data_image0
_chemical_formula_structural       SCH3FeS2CFeSFeSFeSFeS3C3FeS2HC2H2FeS2FeS2FeCFeCS2FeS2FeS2FeSFeS2C7H4C6H4C2H2NSH3CHC6H4C6H2C2H2SHC7H4CHFeHCH2FeCHC2HSCHCHN2SNC6H2CHFeH2C2SCH2C2H6SNC6H3C2H3SCH3CHCHNC2HCHNHCHCFeC2H3CHCHCH3CH3CHFeHC5H8CHCSHCNSNH5CS2HCHSH2SFeSFeNSFeS2FeS2HSFeS3CHFeS2FeSHFeSFeS3FeS2FeS2FeSFeS3C2H3CH2C3SC6H4C2SH2CH2C2NH5C7H6C7H3FeC7H3NCH4CHCH3CHCHNCNC3HSH2CHCH2C3HC4H2CH2CHCHCFeH2C2HCHCHC2NC6H8CH3C5HNHCH7C3HFeCNH3CHCHC4HCH2CH3CS2CH2FeS2FeS2FeSFeS3FeS2FeS2FeSFeS3FeS2FeS2FeHFeS3HSH2SCFeCFeS2NSCH3CHC6H3C3HCHNHC8H4CHC2HFeHC3H2C6H8C6H6C2HC3HCHC4HC2H2C3H2C2H3CH2CH2C2HC3HCH5NHCH2CH6FeHCNH5CH2C4H2NC3H2NCHCHC2NC3H3C3H2C3HC2S2CHS2CSH3SC2FeS2FeSFeCSFeS2FeS2FeSFeS3C2SFeS2FeS2FeSFeS2FeS2FeS2FeSFeS3FeSC2HSH2C2FeS2HCN2CHCH5C6H6SC6H4C6H4C8H4C6H4CFeH3C6H3NC5H2NC6H12CH2CH5NC6H4CH3NC4SCH3CHC2HNC7HCH6CHNCNH2SHC2FeCHC2H3CH2SH3C4HFeHCH3CSH2CHCH2CHCHC4H3CH2C2SCFeCHFeHCH2SHFeHCHC2S2H2CHFeNSFeS2CHCSHSCFeS2FeHCS3HC4HC2HNC8H4NCSCHC2HCH4CHCH2SNHCFeHCFe2SH5SHCH4C2HCHCHC2HC2S3CH2FeHC2SHFeCHC4SHCHCH3CHCH2CHSHCHNC2FeS2FeS2FeSFeS3FeS2FeS2FeSFeS3C2HC2HC4HC2HCH2C6H4C3HNCHC5HC2HNHC4HC5H6CH4C3HNHC5HC2H6CHCH2S2H3SCH4C8H5CHC2H2C2HC2H2CNHFeS2FeS2FeSFeS3FeS2FeSCFeSFeS3H4CH2C2SC2HSH2C5H2C6H5C2H4C3HC4HCH2C6H3CHCH4CHCH2C2HSCHC2N2C6H4CH3CHNH2SHNSCH2CHCHCH4C4H2C3H2CHC2H2C2HCNHC3HC2H3C2SH2CFeS2Fe2SHSFeS2FeS2FeSFeS3FeS2Fe2SHCFeS2FeS2FeSFeS3FeS2FeS2CH3C6HCH2C4H3SC6H4C6H4C8H2C6HSH2C3H2C2H2CNC2HCHC3HNHNC3H5NC6H10CHCHC2HCH2C3H3CH2C2HCSC2H7NH2NHCSC3H8FeC2HCH2NHC3SHCH2CFeH3FeSFeS2Fe2S2CNSHSHSFeSFeS2HCSC6H4C8H3C6H4CFeHC2H4C4H2SNH2C3H2CH3S2CSHCH3S2HC2SHC2HCNC6H12C2FeCHFeCHFeHCNC6H3C2H3SCHC2SHC3H2C2HCH2C2NHSHFeCHFeCH2C4SC2H2SCH2C2S2CH2FeSHCSFeSFeS2FeS2FeCHCFeS2H2FeC7H4C3H2CH2C6H3CHC4H2CH3C2HNHC2HCHC2H2NCHCSCHNH2CHC2H2CHSNC6H8C4SCHCH2CN2SCH2S2C2H3NHCH3SC3HCH3C4NFeH3SHSFeSFeS2FeSFeSFeSFeS2CHC6H4C7H3C6H2CHC6HCH4CH10SCH2FeH2CNCH3CNC2H3SCHC2NHCHNCNH3C2HNHFeCH4CH2CH4C2HCH2C5HC2HC3H2SC3HSNHSHCH3CNHCHSH2SHCHFeCS4NFeHCHSCHCH2C2HC10HCH4SC2HFeH2SHNH3C2H3CHCH2CH2S2HFeS2CFe2SCSFeCFeS2H4SHSHFeS2FeS2FeSFeSFeS3FeS2FeS2FeSFeHS2C6H5C6H7C2H2CNC6H2C6H4SNHC6H4CHCH2CHC3NCH2FeHCHC2HCH3CH2SC3H3NSCHCH2NHCHC5HSHCH3CHCHCH3C2NH2NH2C3NCHC2HCFeHCH2CH2CH4NCSH2CHCSCHCHSHCHCH3CH2CH2FeH2SCHCFeS2FeS2FeHFeS3HSHCSFeHFeSHCSFeS2FeS2FeSFeS3FeSCFeSHFeSFeS3C3HC2H2C7H6CH4CH2C2H2CH2C6H4C7H6C6H8FeHCFeHCH4C3NC6H6C2SH7C4SH2CHC3H2CHC2H2C2HCHNH2CHNH2CHNC5HCH2CNSNH2C2HC4H2C2H2C4H6C2NHC3H3SH5C3HSCHSC2H2CSFeS2FeS2FeSFeS3FeS2FeS2FeSFeS3HSHCSHFeCFeSCFeS2FeS2FeHFeS3H2CH3C4HC6H4C2NCHCH3CSHCH4CHC6H4C6H4FeCH2NC6H4CNCNC2HC2SHCHCHC4H3C2SHSH2CH3C2HCH2C3H3CHCH5CHCH2CNCNC7FeH8CH2CH2C3H2C2H2C4HNCH2CFeSHCHFeS2FeS2FeSFeS3H2SFeS2FeS2Fe2S3FeS2FeS2FeSFeS3CH3CHC2H2SCH2FeS2H2CH3CH4C6H4C6H4C9H2NHC6H4CFeCH2CSHC3HC7H4C4H2FeNC6H5SHCNC6H5CHC4HSHCNC3HC2HNH2SCNCH2CSCH2CHC2H2SH2SHCFeHC4HSH3NH2NH3FeHC3H3CHC3HCHCH2CH3CFeH2C4HCH
_chemical_formula_sum              "S432 C1296 H1296 Fe216 N108"
_cell_length_a       48.0368
_cell_length_b       47.5756
_cell_length_c       110.046
_cell_angle_alpha    91.2347
_cell_angle_beta     90.6218
_cell_angle_gamma    114.244

_space_group_name_H-M_alt    "P 1"
_space_group_IT_number       1

loop_
  _space_group_symop_operation_xyz
  'x, y, z'

loop_
  _atom_site_type_symbol
  _atom_site_label
  _atom_site_symmetry_multiplicity
  _atom_site_fract_x
  _atom_site_fract_y
  _atom_site_fract_z
  _atom_site_occupancy
  S   S1        1.0  0.99948  0.19632  0.21535  1.0000
  C   C1        1.0  0.14346  0.18412  0.16804  1.0000
  H   H1        1.0  0.07120  0.29823  0.21903  1.0000
  H   H2        1.0  0.02282  0.30150  0.13847  1.0000
  H   H3        1.0  0.99965  0.20509  0.07471  1.0000
  Fe  Fe1       1.0  0.28604  0.22838  0.98140  1.0000
  S   S2        1.0  0.29850  0.22409  0.00129  1.0000
  S   S3        1.0  0.98598  0.17108  0.18704  1.0000
  C   C2        1.0  0.37037  0.16998  0.10570  1.0000
  Fe  Fe2       1.0  0.37890  0.00508  0.06948  1.0000
  S   S4        1.0  0.41333  0.05411  0.06821  1.0000
  Fe  Fe3       1.0  0.37573  0.01006  0.09753  1.0000
  S   S5        1.0  0.40975  0.05956  0.09818  1.0000
  Fe  Fe4       1.0  0.38417  0.06479  0.08177  1.0000
  S   S6        1.0  0.36645  0.10141  0.07881  1.0000
  Fe  Fe5       1.0  0.43628  0.04448  0.08459  1.0000
  S   S7        1.0  0.34805  0.01616  0.08201  1.0000
  S   S8        1.0  0.30134  0.00661  0.20027  1.0000
  S   S9        1.0  0.23070  0.02334  0.20724  1.0000
  C   C3        1.0  0.12573  0.13797  0.17914  1.0000
  C   C4        1.0  0.34486  0.00657  0.03756  1.0000
  C   C5        1.0  0.34659  0.02893  0.14375  1.0000
  Fe  Fe6       1.0  0.02724  0.20090  0.19853  1.0000
  S   S10       1.0  0.02574  0.24576  0.19306  1.0000
  S   S11       1.0  0.06783  0.18804  0.20112  1.0000
  H   H4        1.0  0.15495  0.24543  0.99715  1.0000
  C   C6        1.0  0.32162  0.98804  0.01735  1.0000
  C   C7        1.0  0.26342  0.09459  0.99000  1.0000
  H   H5        1.0  0.30984  0.07155  0.20934  1.0000
  H   H6        1.0  0.06521  0.32808  0.08096  1.0000
  Fe  Fe7       1.0  0.39213  0.30552  0.06390  1.0000
  S   S12       1.0  0.44230  0.31720  0.06726  1.0000
  S   S13       1.0  0.37585  0.31403  0.04521  1.0000
  Fe  Fe8       1.0  0.37713  0.29228  0.09098  1.0000
  S   S14       1.0  0.42562  0.30307  0.09606  1.0000
  S   S15       1.0  0.33807  0.27468  0.10437  1.0000
  Fe  Fe9       1.0  0.43875  0.34367  0.08387  1.0000
  C   C8        1.0  0.41601  0.03964  0.02630  1.0000
  Fe  Fe10      1.0  0.42540  0.27585  0.07916  1.0000
  C   C9        1.0  0.40453  0.98598  0.02221  1.0000
  S   S16       1.0  0.38964  0.33497  0.07994  1.0000
  S   S17       1.0  0.37566  0.26211  0.07468  1.0000
  Fe  Fe11      1.0  0.26107  0.18254  0.18134  1.0000
  S   S18       1.0  0.31049  0.20991  0.18592  1.0000
  S   S19       1.0  0.24467  0.13413  0.17330  1.0000
  Fe  Fe12      1.0  0.24451  0.23655  0.18690  1.0000
  S   S20       1.0  0.29346  0.26832  0.19203  1.0000
  S   S21       1.0  0.20659  0.25365  0.18502  1.0000
  Fe  Fe13      1.0  0.30616  0.24780  0.17533  1.0000
  S   S22       1.0  0.34449  0.27409  0.16225  1.0000
  Fe  Fe14      1.0  0.29404  0.22778  0.20222  1.0000
  S   S23       1.0  0.25765  0.21914  0.16963  1.0000
  S   S24       1.0  0.24416  0.19742  0.19813  1.0000
  C   C10       1.0  0.08928  0.15946  0.17317  1.0000
  C   C11       1.0  0.34075  0.27107  0.12034  1.0000
  C   C12       1.0  0.31372  0.25748  0.12692  1.0000
  C   C13       1.0  0.31452  0.25700  0.13973  1.0000
  C   C14       1.0  0.34243  0.27034  0.14612  1.0000
  C   C15       1.0  0.36954  0.28304  0.13952  1.0000
  C   C16       1.0  0.36876  0.28326  0.12669  1.0000
  H   H7        1.0  0.29191  0.24795  0.12210  1.0000
  H   H8        1.0  0.29348  0.24718  0.14467  1.0000
  H   H9        1.0  0.39124  0.29332  0.14438  1.0000
  H   H10       1.0  0.38976  0.29389  0.12179  1.0000
  C   C17       1.0  0.10681  0.20821  0.19738  1.0000
  C   C18       1.0  0.12770  0.19582  0.20076  1.0000
  C   C19       1.0  0.15847  0.20975  0.19728  1.0000
  C   C20       1.0  0.16868  0.23632  0.19037  1.0000
  C   C21       1.0  0.14785  0.24893  0.18714  1.0000
  C   C22       1.0  0.11707  0.23498  0.19061  1.0000
  H   H11       1.0  0.12001  0.17510  0.20600  1.0000
  H   H12       1.0  0.17423  0.19984  0.19986  1.0000
  H   H13       1.0  0.15555  0.26948  0.18179  1.0000
  H   H14       1.0  0.10125  0.24468  0.18786  1.0000
  C   C23       1.0  0.38799  0.22591  0.10756  1.0000
  C   C24       1.0  0.33090  0.00562  0.15196  1.0000
  H   H15       1.0  0.10743  0.11953  0.18358  1.0000
  H   H16       1.0  0.01242  0.27063  0.15718  1.0000
  N   N1        1.0  0.03249  0.28148  0.08182  1.0000
  S   S25       1.0  0.98529  0.28423  0.05538  1.0000
  H   H17       1.0  0.31150  0.06225  0.18715  1.0000
  H   H18       1.0  0.32304  0.06112  0.99578  1.0000
  H   H19       1.0  0.29813  0.16235  0.08774  1.0000
  C   C25       1.0  0.31230  0.08419  0.19050  1.0000
  H   H20       1.0  0.05046  0.30965  0.06642  1.0000
  C   C26       1.0  0.23381  0.05385  0.19777  1.0000
  C   C27       1.0  0.23584  0.05107  0.18517  1.0000
  C   C28       1.0  0.23819  0.07555  0.17775  1.0000
  C   C29       1.0  0.23959  0.10334  0.18290  1.0000
  C   C30       1.0  0.23757  0.10618  0.19550  1.0000
  C   C31       1.0  0.23422  0.08128  0.20290  1.0000
  H   H21       1.0  0.23536  0.03001  0.18110  1.0000
  H   H22       1.0  0.23951  0.07316  0.16800  1.0000
  H   H23       1.0  0.23861  0.12753  0.19955  1.0000
  H   H24       1.0  0.23262  0.08355  0.21264  1.0000
  C   C32       1.0  0.39129  0.14080  0.07861  1.0000
  C   C33       1.0  0.37982  0.16172  0.07448  1.0000
  C   C34       1.0  0.39786  0.19356  0.07518  1.0000
  C   C35       1.0  0.42763  0.20478  0.07996  1.0000
  C   C36       1.0  0.43939  0.18386  0.08390  1.0000
  C   C37       1.0  0.42123  0.15188  0.08325  1.0000
  H   H25       1.0  0.35677  0.15325  0.07079  1.0000
  H   H26       1.0  0.38879  0.20932  0.07186  1.0000
  C   C38       1.0  0.31330  0.10014  0.16939  1.0000
  C   C39       1.0  0.98055  0.27239  0.12927  1.0000
  H   H27       1.0  0.36514  0.03974  0.12572  1.0000
  H   H28       1.0  0.31853  0.32013  0.12036  1.0000
  S   S26       1.0  0.25078  0.18152  0.97551  1.0000
  H   H29       1.0  0.28596  0.15505  0.99230  1.0000
  C   C40       1.0  0.32315  0.13792  0.09527  1.0000
  C   C41       1.0  0.35524  0.28845  0.03297  1.0000
  C   C42       1.0  0.34186  0.25639  0.03407  1.0000
  C   C43       1.0  0.32494  0.23718  0.02424  1.0000
  C   C44       1.0  0.32142  0.24964  0.01312  1.0000
  C   C45       1.0  0.33498  0.28167  0.01198  1.0000
  C   C46       1.0  0.35162  0.30090  0.02186  1.0000
  H   H30       1.0  0.34434  0.24643  0.04254  1.0000
  H   H31       1.0  0.31451  0.21247  0.02527  1.0000
  H   H32       1.0  0.33261  0.29170  0.00351  1.0000
  H   H33       1.0  0.36189  0.32565  0.02089  1.0000
  C   C47       1.0  0.34432  0.99075  0.12820  1.0000
  H   H34       1.0  0.35367  0.05284  0.14656  1.0000
  Fe  Fe15      1.0  0.98329  0.23719  0.98365  1.0000
  H   H35       1.0  0.30741  0.11545  0.09172  1.0000
  C   C48       1.0  0.17297  0.18514  0.16803  1.0000
  H   H36       1.0  0.08961  0.18292  0.17268  1.0000
  H   H37       1.0  0.31464  0.16201  0.20249  1.0000
  Fe  Fe16      1.0  0.29431  0.98463  0.18144  1.0000
  C   C49       1.0  0.31814  0.16422  0.09295  1.0000
  H   H38       1.0  0.07963  0.25292  0.21145  1.0000
  C   C50       1.0  0.15501  0.13829  0.17929  1.0000
  C   C51       1.0  0.43097  0.03833  0.03712  1.0000
  H   H39       1.0  0.39330  0.22587  0.11741  1.0000
  S   S27       1.0  0.31061  0.99696  0.00295  1.0000
  C   C52       1.0  0.34925  0.14074  0.10180  1.0000
  H   H40       1.0  0.40922  0.23185  0.10232  1.0000
  C   C53       1.0  0.31453  0.13398  0.18669  1.0000
  H   H41       1.0  0.43305  0.37447  0.14033  1.0000
  N   N2        1.0  0.36519  0.19561  0.10346  1.0000
  N   N3        1.0  0.31309  0.10611  0.18251  1.0000
  S   S28       1.0  0.00552  0.20373  0.98340  1.0000
  N   N4        1.0  0.36464  0.34901  0.12548  1.0000
  C   C54       1.0  0.38533  0.35624  0.13496  1.0000
  C   C55       1.0  0.37439  0.35503  0.11380  1.0000
  C   C56       1.0  0.41673  0.36928  0.13281  1.0000
  C   C57       1.0  0.40561  0.36847  0.11136  1.0000
  C   C58       1.0  0.42686  0.37545  0.12092  1.0000
  C   C59       1.0  0.33186  0.33610  0.12791  1.0000
  H   H42       1.0  0.37759  0.35126  0.14423  1.0000
  H   H43       1.0  0.35801  0.34909  0.10627  1.0000
  C   C60       1.0  0.31167  0.08943  0.20304  1.0000
  H   H44       1.0  0.41340  0.37347  0.10212  1.0000
  Fe  Fe17      1.0  0.98253  0.21560  0.18242  1.0000
  H   H45       1.0  0.32666  0.32235  0.13630  1.0000
  H   H46       1.0  0.32405  0.35494  0.12900  1.0000
  C   C61       1.0  0.25370  0.06278  0.99141  1.0000
  C   C62       1.0  0.31424  0.14015  0.19918  1.0000
  S   S29       1.0  0.32396  0.01625  0.16688  1.0000
  C   C63       1.0  0.41873  0.99904  0.12853  1.0000
  H   H47       1.0  0.41550  0.03215  0.14153  1.0000
  H   H48       1.0  0.35381  0.12051  0.10326  1.0000
  C   C64       1.0  0.99594  0.26357  0.14972  1.0000
  C   C65       1.0  0.44752  0.00990  0.05191  1.0000
  H   H49       1.0  0.02204  0.25567  0.06500  1.0000
  H   H50       1.0  0.02262  0.28133  0.03557  1.0000
  H   H51       1.0  0.45112  0.38562  0.11904  1.0000
  H   H52       1.0  0.43023  0.13588  0.08647  1.0000
  H   H53       1.0  0.31500  0.15126  0.18033  1.0000
  H   H54       1.0  0.29897  0.10971  0.16443  1.0000
  S   S30       1.0  0.40405  0.99459  0.08499  1.0000
  N   N5        1.0  0.22383  0.24491  0.00375  1.0000
  C   C66       1.0  0.20178  0.25598  0.00253  1.0000
  C   C67       1.0  0.21763  0.21498  0.00050  1.0000
  C   C68       1.0  0.17236  0.23661  0.99831  1.0000
  C   C69       1.0  0.18859  0.19510  0.99612  1.0000
  C   C70       1.0  0.16578  0.20595  0.99515  1.0000
  C   C71       1.0  0.25468  0.26533  0.00809  1.0000
  H   H55       1.0  0.20685  0.27992  0.00475  1.0000
  H   H56       1.0  0.23528  0.20639  0.00116  1.0000
  H   H57       1.0  0.39129  0.17212  0.11027  1.0000
  C   C72       1.0  0.01837  0.25201  0.09996  1.0000
  C   C73       1.0  0.42705  0.02869  0.13358  1.0000
  H   H58       1.0  0.25570  0.28722  0.01223  1.0000
  H   H59       1.0  0.26280  0.25382  0.01512  1.0000
  H   H60       1.0  0.27077  0.27092  0.00041  1.0000
  S   S31       1.0  0.45011  0.24481  0.08141  1.0000
  C   C74       1.0  0.04445  0.31153  0.07604  1.0000
  H   H61       1.0  0.39002  0.01360  0.01063  1.0000
  H   H62       1.0  0.30372  0.07494  0.16715  1.0000
  H   H63       1.0  0.20149  0.16257  0.17378  1.0000
  C   C75       1.0  0.17870  0.16202  0.17367  1.0000
  H   H64       1.0  0.33705  0.11079  0.16610  1.0000
  C   C76       1.0  0.41952  0.98544  0.03313  1.0000
  H   H65       1.0  0.07651  0.14540  0.16514  1.0000
  N   N6        1.0  0.12034  0.16082  0.17362  1.0000
  C   C77       1.0  0.02160  0.25483  0.07485  1.0000
  C   C78       1.0  0.00889  0.22608  0.08029  1.0000
  H   H66       1.0  0.14334  0.19090  0.99152  1.0000
  C   C79       1.0  0.35310  0.02158  0.13192  1.0000
  H   H67       1.0  0.02674  0.32091  0.07604  1.0000
  N   N7        1.0  0.29377  0.11390  0.99095  1.0000
  H   H68       1.0  0.35423  0.02510  0.04431  1.0000
  C   C80       1.0  0.31512  0.10221  0.99285  1.0000
  H   H69       1.0  0.13946  0.20262  0.16387  1.0000
  C   C81       1.0  0.30619  0.07050  0.99423  1.0000
  Fe  Fe18      1.0  0.25060  0.99097  0.20004  1.0000
  C   C82       1.0  0.30360  0.14710  0.98926  1.0000
  C   C83       1.0  0.33353  0.01170  0.02633  1.0000
  H   H70       1.0  0.33923  0.11739  0.99328  1.0000
  H   H71       1.0  0.15951  0.12042  0.18377  1.0000
  H   H72       1.0  0.33553  0.21346  0.09525  1.0000
  C   C84       1.0  0.33949  0.19309  0.09717  1.0000
  H   H73       1.0  0.32469  0.16087  0.99468  1.0000
  C   C85       1.0  0.99941  0.27286  0.03207  1.0000
  H   H74       1.0  0.03841  0.30146  0.09974  1.0000
  C   C86       1.0  0.46332  0.04896  0.11760  1.0000
  H   H75       1.0  0.07680  0.14933  0.18156  1.0000
  H   H76       1.0  0.41386  0.06068  0.02392  1.0000
  H   H77       1.0  0.26811  0.02606  0.99446  1.0000
  C   C87       1.0  0.45426  0.01901  0.11275  1.0000
  H   H78       1.0  0.01156  0.26481  0.01380  1.0000
  H   H79       1.0  0.37970  0.24426  0.10626  1.0000
  H   H80       1.0  0.33424  0.03426  0.02457  1.0000
  C   C88       1.0  0.31255  0.11758  0.20737  1.0000
  H   H81       1.0  0.99677  0.20269  0.09729  1.0000
  Fe  Fe19      1.0  0.99531  0.23899  0.20938  1.0000
  H   H82       1.0  0.24659  0.10364  0.98794  1.0000
  C   C89       1.0  0.99322  0.26350  0.01970  1.0000
  C   C90       1.0  0.27527  0.05074  0.99353  1.0000
  C   C91       1.0  0.00726  0.22474  0.09294  1.0000
  C   C92       1.0  0.07592  0.25559  0.22105  1.0000
  C   C93       1.0  0.00178  0.28104  0.13907  1.0000
  H   H83       1.0  0.46464  0.01564  0.10445  1.0000
  H   H84       1.0  0.22967  0.04739  0.99043  1.0000
  H   H85       1.0  0.19145  0.20426  0.16396  1.0000
  H   H86       1.0  0.98687  0.44589  0.08208  1.0000
  H   H87       1.0  0.30807  0.15244  0.97951  1.0000
  H   H88       1.0  0.45575  0.07699  0.13171  1.0000
  H   H89       1.0  0.46133  0.03317  0.05602  1.0000
  H   H90       1.0  0.01642  0.25136  0.10979  1.0000
  C   C94       1.0  0.03081  0.28035  0.09421  1.0000
  H   H91       1.0  0.18400  0.17168  0.99314  1.0000
  C   C95       1.0  0.40275  0.01327  0.01881  1.0000
  S   S32       1.0  0.98918  0.29494  0.11597  1.0000
  H   H92       1.0  0.31152  0.12182  0.21705  1.0000
  C   C96       1.0  0.97593  0.27163  0.03989  1.0000
  N   N8        1.0  0.43227  0.99451  0.11825  1.0000
  S   S33       1.0  0.31482  0.22191  0.22037  1.0000
  N   N9        1.0  0.43277  0.01149  0.04036  1.0000
  H   H93       1.0  0.44062  0.05877  0.04300  1.0000
  H   H94       1.0  0.16573  0.98373  0.21182  1.0000
  H   H95       1.0  0.42978  0.99671  0.05848  1.0000
  H   H96       1.0  0.46315  0.99824  0.05055  1.0000
  H   H97       1.0  0.46248  0.19239  0.08755  1.0000
  C   C97       1.0  0.44947  0.05379  0.12804  1.0000
  S   S34       1.0  0.02071  0.27291  0.97313  1.0000
  S   S35       1.0  0.09300  0.25901  0.97318  1.0000
  H   H98       1.0  0.16789  0.32350  0.37916  1.0000
  C   C98       1.0  0.34640  0.03021  0.34288  1.0000
  H   H99       1.0  0.31790  0.99005  0.36837  1.0000
  S   S36       1.0  0.43709  0.05448  0.29166  1.0000
  H   H100      1.0  0.12480  0.33895  0.43691  1.0000
  H   H101      1.0  0.40624  0.09811  0.34446  1.0000
  S   S37       1.0  0.43636  0.03283  0.32010  1.0000
  Fe  Fe20      1.0  0.42530  0.06786  0.30998  1.0000
  S   S38       1.0  0.44452  0.11793  0.31656  1.0000
  Fe  Fe21      1.0  0.44381  0.01673  0.30155  1.0000
  N   N10       1.0  0.18973  0.39565  0.39122  1.0000
  S   S39       1.0  0.37543  0.03759  0.30803  1.0000
  Fe  Fe22      1.0  0.39353  0.30463  0.28419  1.0000
  S   S40       1.0  0.42886  0.28545  0.28644  1.0000
  S   S41       1.0  0.37697  0.31428  0.26580  1.0000
  Fe  Fe23      1.0  0.39055  0.31431  0.31214  1.0000
  S   S42       1.0  0.42521  0.29518  0.31623  1.0000
  S   S43       1.0  0.36329  0.32839  0.32605  1.0000
  H   H102      1.0  0.34157  0.02872  0.33317  1.0000
  S   S44       1.0  0.97504  0.25244  0.28021  1.0000
  Fe  Fe24      1.0  0.40041  0.25874  0.30184  1.0000
  S   S45       1.0  0.37968  0.20649  0.30345  1.0000
  S   S46       1.0  0.41742  0.34506  0.29725  1.0000
  S   S47       1.0  0.36376  0.27598  0.29876  1.0000
  C   C99       1.0  0.10282  0.36081  0.46340  1.0000
  H   H103      1.0  0.98890  0.31453  0.38311  1.0000
  Fe  Fe25      1.0  0.30097  0.35742  0.41208  1.0000
  S   S48       1.0  0.32402  0.32423  0.41165  1.0000
  S   S49       1.0  0.24894  0.33802  0.40961  1.0000
  Fe  Fe26      1.0  0.36148  0.41301  0.41419  1.0000
  S   S50       1.0  0.38838  0.38440  0.41398  1.0000
  H   H104      1.0  0.40707  0.00282  0.34742  1.0000
  Fe  Fe27      1.0  0.35697  0.35696  0.39868  1.0000
  S   S51       1.0  0.38335  0.34479  0.38372  1.0000
  Fe  Fe28      1.0  0.35389  0.35408  0.42696  1.0000
  S   S52       1.0  0.37598  0.33629  0.44173  1.0000
  S   S53       1.0  0.33209  0.38794  0.39801  1.0000
  S   S54       1.0  0.32879  0.38501  0.42830  1.0000
  Fe  Fe29      1.0  0.05626  0.34986  0.40137  1.0000
  S   S55       1.0  0.09046  0.39904  0.40437  1.0000
  S   S56       1.0  0.05491  0.33146  0.38182  1.0000
  Fe  Fe30      1.0  0.04250  0.34316  0.42900  1.0000
  S   S57       1.0  0.07591  0.39162  0.43350  1.0000
  S   S58       1.0  0.01451  0.30981  0.44347  1.0000
  Fe  Fe31      1.0  0.05622  0.40404  0.41687  1.0000
  S   S59       1.0  0.03826  0.44114  0.41584  1.0000
  Fe  Fe32      1.0  0.10718  0.38174  0.42051  1.0000
  S   S60       1.0  0.15810  0.39898  0.42516  1.0000
  S   S61       1.0  0.02072  0.35588  0.41297  1.0000
  S   S62       1.0  0.07511  0.33231  0.41700  1.0000
  C   C100      1.0  0.35844  0.12944  0.27427  1.0000
  C   C101      1.0  0.00616  0.31884  0.45844  1.0000
  H   H105      1.0  0.36075  0.23188  0.47223  1.0000
  H   H106      1.0  0.23464  0.41394  0.39928  1.0000
  H   H107      1.0  0.11818  0.32848  0.37748  1.0000
  C   C102      1.0  0.36567  0.10391  0.27476  1.0000
  H   H108      1.0  0.44116  0.33585  0.26649  1.0000
  H   H109      1.0  0.43686  0.41142  0.26177  1.0000
  C   C103      1.0  0.11243  0.33717  0.44527  1.0000
  C   C104      1.0  0.08946  0.30898  0.44851  1.0000
  C   C105      1.0  0.02073  0.34842  0.46375  1.0000
  S   S63       1.0  0.35867  0.02483  0.27379  1.0000
  C   C106      1.0  0.22379  0.35408  0.41506  1.0000
  C   C107      1.0  0.23440  0.38253  0.42135  1.0000
  C   C108      1.0  0.21379  0.39542  0.42473  1.0000
  C   C109      1.0  0.18246  0.38026  0.42173  1.0000
  C   C110      1.0  0.17172  0.35144  0.41573  1.0000
  C   C111      1.0  0.19228  0.33837  0.41250  1.0000
  H   H110      1.0  0.25853  0.39481  0.42345  1.0000
  H   H111      1.0  0.22232  0.41765  0.42944  1.0000
  H   H112      1.0  0.14771  0.33948  0.41336  1.0000
  H   H113      1.0  0.18382  0.31624  0.40771  1.0000
  C   C112      1.0  0.35051  0.34378  0.46348  1.0000
  C   C113      1.0  0.37130  0.33460  0.45769  1.0000
  S   S64       1.0  0.38450  0.46504  0.41435  1.0000
  H   H114      1.0  0.33589  0.35123  0.45812  1.0000
  H   H115      1.0  0.40604  0.31750  0.46037  1.0000
  C   C114      1.0  0.32174  0.99555  0.23980  1.0000
  H   H116      1.0  0.40110  0.07010  0.36357  1.0000
  H   H117      1.0  0.43785  0.39949  0.44859  1.0000
  C   C115      1.0  0.38992  0.32468  0.46479  1.0000
  C   C116      1.0  0.99464  0.31353  0.37367  1.0000
  N   N11       1.0  0.40949  0.41181  0.46041  1.0000
  H   H118      1.0  0.36926  0.41363  0.45272  1.0000
  H   H119      1.0  0.41897  0.38025  0.27202  1.0000
  H   H120      1.0  0.06253  0.26532  0.25509  1.0000
  H   H121      1.0  0.01450  0.30846  0.33973  1.0000
  H   H122      1.0  0.42090  0.37221  0.25607  1.0000
  C   C117      1.0  0.16258  0.39851  0.39032  1.0000
  C   C118      1.0  0.37042  0.33492  0.34198  1.0000
  C   C119      1.0  0.39558  0.33276  0.34770  1.0000
  C   C120      1.0  0.39928  0.33619  0.36046  1.0000
  C   C121      1.0  0.37798  0.34189  0.36765  1.0000
  C   C122      1.0  0.35301  0.34441  0.36192  1.0000
  C   C123      1.0  0.34930  0.34094  0.34915  1.0000
  H   H123      1.0  0.41201  0.32812  0.34231  1.0000
  H   H124      1.0  0.41871  0.33424  0.36480  1.0000
  H   H125      1.0  0.33644  0.34879  0.36732  1.0000
  H   H126      1.0  0.32977  0.34270  0.34482  1.0000
  H   H127      1.0  0.16073  0.41927  0.39369  1.0000
  H   H128      1.0  0.36588  0.03050  0.37699  1.0000
  C   C124      1.0  0.98030  0.25924  0.26441  1.0000
  C   C125      1.0  0.39811  0.18261  0.30765  1.0000
  C   C126      1.0  0.42891  0.19463  0.31123  1.0000
  C   C127      1.0  0.44273  0.17454  0.31414  1.0000
  C   C128      1.0  0.42610  0.14237  0.31321  1.0000
  C   C129      1.0  0.39533  0.13041  0.30960  1.0000
  C   C130      1.0  0.38133  0.15046  0.30701  1.0000
  H   H129      1.0  0.44207  0.21934  0.31177  1.0000
  H   H130      1.0  0.05212  0.32087  0.23512  1.0000
  H   H131      1.0  0.38226  0.10573  0.30884  1.0000
  Fe  Fe33      1.0  0.38736  0.02174  0.29009  1.0000
  C   C131      1.0  0.33170  0.24808  0.23292  1.0000
  C   C132      1.0  0.33595  0.27899  0.23284  1.0000
  C   C133      1.0  0.34973  0.29882  0.24298  1.0000
  C   C134      1.0  0.35933  0.28806  0.25334  1.0000
  C   C135      1.0  0.35505  0.25714  0.25344  1.0000
  C   C136      1.0  0.34138  0.23735  0.24329  1.0000
  C   C137      1.0  0.97828  0.30125  0.35225  1.0000
  H   H132      1.0  0.35284  0.32265  0.24278  1.0000
  H   H133      1.0  0.36226  0.24846  0.26132  1.0000
  H   H134      1.0  0.33820  0.21351  0.24347  1.0000
  N   N12       1.0  0.37267  0.05270  0.34771  1.0000
  C   C138      1.0  0.34822  0.00369  0.25965  1.0000
  H   H135      1.0  0.21065  0.43209  0.40432  1.0000
  H   H136      1.0  0.22647  0.43931  0.38925  1.0000
  H   H137      1.0  0.21341  0.36692  0.38784  1.0000
  H   H138      1.0  0.99600  0.22622  0.23892  1.0000
  C   C139      1.0  0.38106  0.15888  0.27682  1.0000
  H   H139      1.0  0.03450  0.26592  0.45453  1.0000
  C   C140      1.0  0.35985  0.03089  0.36747  1.0000
  H   H140      1.0  0.98575  0.45178  0.29952  1.0000
  H   H141      1.0  0.38297  0.07899  0.33151  1.0000
  H   H142      1.0  0.44250  0.39691  0.39123  1.0000
  C   C141      1.0  0.44696  0.42124  0.39161  1.0000
  H   H143      1.0  0.98100  0.30895  0.24240  1.0000
  C   C142      1.0  0.07548  0.23324  0.22913  1.0000
  H   H144      1.0  0.11528  0.37695  0.38436  1.0000
  N   N13       1.0  0.07381  0.30674  0.45902  1.0000
  C   C143      1.0  0.21676  0.42156  0.39622  1.0000
  N   N14       1.0  0.41737  0.13708  0.28062  1.0000
  C   C144      1.0  0.39546  0.10819  0.27792  1.0000
  C   C145      1.0  0.41065  0.16232  0.27991  1.0000
  C   C146      1.0  0.02508  0.32143  0.37060  1.0000
  H   H145      1.0  0.40504  0.44382  0.44821  1.0000
  S   S65       1.0  0.98106  0.31687  0.30703  1.0000
  H   H146      1.0  0.06146  0.26121  0.46508  1.0000
  H   H147      1.0  0.97283  0.30085  0.26458  1.0000
  C   C147      1.0  0.97783  0.28452  0.25902  1.0000
  H   H148      1.0  0.41067  0.46856  0.38781  1.0000
  C   C148      1.0  0.39335  0.41903  0.45039  1.0000
  H   H149      1.0  0.08393  0.28897  0.44249  1.0000
  H   H150      1.0  0.39239  0.40484  0.44211  1.0000
  C   C149      1.0  0.44802  0.39558  0.46738  1.0000
  C   C150      1.0  0.07132  0.28119  0.22540  1.0000
  C   C151      1.0  0.05051  0.27666  0.46235  1.0000
  H   H151      1.0  0.37558  0.17888  0.27673  1.0000
  C   C152      1.0  0.19195  0.36935  0.38703  1.0000
  C   C153      1.0  0.13671  0.37457  0.38519  1.0000
  C   C154      1.0  0.16627  0.34465  0.38212  1.0000
  C   C155      1.0  0.13847  0.34736  0.38121  1.0000
  H   H152      1.0  0.98893  0.21873  0.26111  1.0000
  H   H153      1.0  0.97435  0.27207  0.46151  1.0000
  C   C156      1.0  0.42344  0.43025  0.38891  1.0000
  H   H154      1.0  0.35748  0.14099  0.30423  1.0000
  H   H155      1.0  0.32389  0.03004  0.25329  1.0000
  C   C157      1.0  0.98585  0.29505  0.46550  1.0000
  H   H156      1.0  0.40077  0.41301  0.38649  1.0000
  C   C158      1.0  0.33069  0.01152  0.25112  1.0000
  H   H157      1.0  0.40084  0.08818  0.27830  1.0000
  C   C159      1.0  0.03198  0.31969  0.35827  1.0000
  Fe  Fe34      1.0  0.38706  0.00123  0.31680  1.0000
  H   H158      1.0  0.46121  0.14110  0.27545  1.0000
  H   H159      1.0  0.41352  0.99890  0.36969  1.0000
  C   C160      1.0  0.00881  0.31003  0.34913  1.0000
  C   C161      1.0  0.99184  0.43832  0.33583  1.0000
  H   H160      1.0  0.04527  0.47071  0.44146  1.0000
  C   C162      1.0  0.98882  0.26798  0.23904  1.0000
  H   H161      1.0  0.42540  0.44213  0.42587  1.0000
  C   C163      1.0  0.99085  0.24248  0.24442  1.0000
  H   H162      1.0  0.00618  0.42602  0.33741  1.0000
  C   C164      1.0  0.00175  0.46923  0.33954  1.0000
  C   C165      1.0  0.98695  0.23836  0.25703  1.0000
  N   N15       1.0  0.33300  0.25204  0.33439  1.0000
  C   C166      1.0  0.33935  0.26123  0.34635  1.0000
  C   C167      1.0  0.34914  0.23813  0.32850  1.0000
  C   C168      1.0  0.36325  0.25778  0.35257  1.0000
  C   C169      1.0  0.37318  0.23429  0.33444  1.0000
  C   C170      1.0  0.38042  0.24446  0.34653  1.0000
  C   C171      1.0  0.30801  0.25598  0.32796  1.0000
  H   H163      1.0  0.32661  0.27229  0.35104  1.0000
  H   H164      1.0  0.34374  0.23025  0.31909  1.0000
  H   H165      1.0  0.36885  0.26618  0.36193  1.0000
  H   H166      1.0  0.38632  0.22386  0.32962  1.0000
  H   H167      1.0  0.39939  0.24219  0.35117  1.0000
  H   H168      1.0  0.31405  0.26208  0.31835  1.0000
  H   H169      1.0  0.28681  0.23449  0.32821  1.0000
  H   H170      1.0  0.30383  0.27549  0.33202  1.0000
  C   C172      1.0  0.43791  0.46635  0.42429  1.0000
  H   H171      1.0  0.42789  0.18525  0.28212  1.0000
  H   H172      1.0  0.03641  0.27883  0.46997  1.0000
  H   H173      1.0  0.41195  0.06706  0.33680  1.0000
  C   C173      1.0  0.42911  0.46144  0.38950  1.0000
  C   C174      1.0  0.44847  0.14097  0.28381  1.0000
  C   C175      1.0  0.43235  0.40255  0.45793  1.0000
  C   C176      1.0  0.39447  0.07526  0.33976  1.0000
  C   C177      1.0  0.11900  0.36324  0.45274  1.0000
  H   H174      1.0  0.03643  0.36697  0.45847  1.0000
  N   N16       1.0  0.06660  0.28447  0.23750  1.0000
  H   H175      1.0  0.06999  0.21934  0.24777  1.0000
  C   C178      1.0  0.98238  0.28900  0.24643  1.0000
  H   H176      1.0  0.30824  0.00187  0.23338  1.0000
  H   H177      1.0  0.46655  0.18396  0.31696  1.0000
  H   H178      1.0  0.34834  0.08084  0.27277  1.0000
  H   H179      1.0  0.05538  0.32556  0.35578  1.0000
  H   H180      1.0  0.07881  0.21319  0.22582  1.0000
  H   H181      1.0  0.13638  0.38535  0.45015  1.0000
  H   H182      1.0  0.99418  0.45995  0.43266  1.0000
  C   C179      1.0  0.37972  0.05304  0.35982  1.0000
  C   C180      1.0  0.43353  0.38756  0.26389  1.0000
  C   C181      1.0  0.06367  0.31234  0.24203  1.0000
  H   H183      1.0  0.33533  0.12642  0.27199  1.0000
  Fe  Fe35      1.0  0.45074  0.32392  0.30052  1.0000
  C   C182      1.0  0.97140  0.30314  0.36457  1.0000
  N   N17       1.0  0.46251  0.38495  0.26615  1.0000
  H   H184      1.0  0.46548  0.38734  0.46537  1.0000
  H   H185      1.0  0.98150  0.46423  0.27220  1.0000
  H   H186      1.0  0.44799  0.12194  0.28962  1.0000
  C   C183      1.0  0.08036  0.33214  0.46649  1.0000
  H   H187      1.0  0.10743  0.38105  0.46918  1.0000
  C   C184      1.0  0.07054  0.23671  0.24143  1.0000
  H   H188      1.0  0.33100  0.26228  0.46744  1.0000
  C   C185      1.0  0.38968  0.98482  0.35236  1.0000
  C   C186      1.0  0.33283  0.00815  0.36264  1.0000
  C   C187      1.0  0.46238  0.35634  0.26734  1.0000
  C   C188      1.0  0.39326  0.98251  0.36500  1.0000
  H   H189      1.0  0.46099  0.16268  0.28921  1.0000
  C   C189      1.0  0.06635  0.26275  0.24551  1.0000
  H   H190      1.0  0.32866  0.28764  0.22496  1.0000
  H   H191      1.0  0.04940  0.30757  0.25027  1.0000
  C   C190      1.0  0.40215  0.41512  0.47218  1.0000
  H   H192      1.0  0.10321  0.47699  0.42130  1.0000
  H   H193      1.0  0.30588  0.98926  0.34628  1.0000
  H   H194      1.0  0.08659  0.33072  0.24427  1.0000
  C   C191      1.0  0.32598  0.00780  0.35027  1.0000
  S   S66       1.0  0.39471  0.98269  0.29869  1.0000
  S   S67       1.0  0.99630  0.27555  0.22339  1.0000
  C   C192      1.0  0.06241  0.48061  0.41479  1.0000
  H   H195      1.0  0.18217  0.42631  0.59738  1.0000
  H   H196      1.0  0.37858  0.14888  0.55104  1.0000
  Fe  Fe36      1.0  0.08514  0.40395  0.64212  1.0000
  S   S68       1.0  0.03505  0.37590  0.63908  1.0000
  S   S69       1.0  0.10708  0.45480  0.64736  1.0000
  Fe  Fe37      1.0  0.10051  0.34904  0.63677  1.0000
  S   S70       1.0  0.05115  0.31669  0.63320  1.0000
  S   S71       1.0  0.13594  0.32926  0.63497  1.0000
  Fe  Fe38      1.0  0.04842  0.35551  0.62261  1.0000
  S   S72       1.0  0.02768  0.35756  0.60395  1.0000
  Fe  Fe39      1.0  0.04225  0.33966  0.65000  1.0000
  S   S73       1.0  0.00725  0.31565  0.66450  1.0000
  S   S74       1.0  0.09846  0.38618  0.62512  1.0000
  S   S75       1.0  0.09169  0.36933  0.65417  1.0000
  Fe  Fe40      1.0  0.32501  0.34804  0.65410  1.0000
  S   S76       1.0  0.33650  0.39892  0.65502  1.0000
  S   S77       1.0  0.29572  0.31309  0.66786  1.0000
  Fe  Fe41      1.0  0.34450  0.35095  0.62700  1.0000
  S   S78       1.0  0.35628  0.40176  0.62607  1.0000
  S   S79       1.0  0.34867  0.31783  0.61249  1.0000
  Fe  Fe42      1.0  0.37859  0.40522  0.64448  1.0000
  S   S80       1.0  0.42804  0.43715  0.64931  1.0000
  Fe  Fe43      1.0  0.31304  0.39109  0.63664  1.0000
  S   S81       1.0  0.27868  0.41196  0.63346  1.0000
  S   S82       1.0  0.36880  0.35454  0.64495  1.0000
  S   S83       1.0  0.29974  0.34019  0.63613  1.0000
  Fe  Fe44      1.0  0.39040  0.31923  0.51357  1.0000
  S   S84       1.0  0.41971  0.29305  0.51087  1.0000
  S   S85       1.0  0.36515  0.33500  0.49940  1.0000
  Fe  Fe45      1.0  0.39871  0.32229  0.54172  1.0000
  S   S86       1.0  0.42864  0.29622  0.54104  1.0000
  S   S87       1.0  0.39203  0.35005  0.55779  1.0000
  Fe  Fe46      1.0  0.45082  0.32593  0.52520  1.0000
  H   H197      1.0  0.31369  0.02855  0.56125  1.0000
  Fe  Fe47      1.0  0.39525  0.26522  0.52684  1.0000
  S   S88       1.0  0.37248  0.21250  0.52544  1.0000
  S   S89       1.0  0.42334  0.35399  0.52674  1.0000
  S   S90       1.0  0.36348  0.28938  0.52862  1.0000
  H   H198      1.0  0.41029  0.40928  0.49114  1.0000
  S   S91       1.0  0.42155  0.04259  0.54690  1.0000
  H   H199      1.0  0.23555  0.31962  0.66848  1.0000
  H   H200      1.0  0.12964  0.41798  0.59055  1.0000
  S   S92       1.0  0.44262  0.04441  0.51863  1.0000
  C   C193      1.0  0.37145  0.06897  0.56098  1.0000
  Fe  Fe48      1.0  0.44273  0.01802  0.53516  1.0000
  C   C194      1.0  0.00669  0.42824  0.66042  1.0000
  Fe  Fe49      1.0  0.41716  0.06600  0.52983  1.0000
  S   S93       1.0  0.43539  0.11849  0.53156  1.0000
  S   S94       1.0  0.37085  0.02941  0.52427  1.0000
  N   N18       1.0  0.09246  0.22416  0.72198  1.0000
  S   S95       1.0  0.03088  0.26798  0.71606  1.0000
  C   C195      1.0  0.14347  0.35145  0.60490  1.0000
  H   H201      1.0  0.36650  0.28086  0.62818  1.0000
  H   H202      1.0  0.00580  0.37598  0.66896  1.0000
  H   H203      1.0  0.98870  0.41451  0.53086  1.0000
  C   C196      1.0  0.05914  0.20813  0.72227  1.0000
  H   H204      1.0  0.18039  0.26705  0.72180  1.0000
  C   C197      1.0  0.39080  0.18690  0.52655  1.0000
  C   C198      1.0  0.42137  0.19713  0.53027  1.0000
  C   C199      1.0  0.43469  0.17587  0.53151  1.0000
  C   C200      1.0  0.41775  0.14420  0.52899  1.0000
  C   C201      1.0  0.38728  0.13398  0.52506  1.0000
  C   C202      1.0  0.37385  0.15524  0.52392  1.0000
  H   H205      1.0  0.43469  0.22138  0.53233  1.0000
  H   H206      1.0  0.18531  0.37297  0.66018  1.0000
  H   H207      1.0  0.37399  0.10970  0.52307  1.0000
  C   C203      1.0  0.98192  0.42103  0.52230  1.0000
  C   C204      1.0  0.36787  0.33419  0.48336  1.0000
  C   C205      1.0  0.44023  0.39825  0.47940  1.0000
  H   H208      1.0  0.01126  0.45295  0.65931  1.0000
  C   C206      1.0  0.40189  0.12349  0.55911  1.0000
  H   H209      1.0  0.40300  0.31718  0.48292  1.0000
  N   N19       1.0  0.34682  0.07211  0.55588  1.0000
  H   H210      1.0  0.19096  0.38320  0.60654  1.0000
  C   C207      1.0  0.38832  0.32454  0.47756  1.0000
  C   C208      1.0  0.26183  0.36842  0.66784  1.0000
  C   C209      1.0  0.37993  0.34027  0.57295  1.0000
  C   C210      1.0  0.37210  0.31067  0.57736  1.0000
  C   C211      1.0  0.36262  0.30421  0.58947  1.0000
  C   C212      1.0  0.36089  0.32721  0.59732  1.0000
  C   C213      1.0  0.36887  0.35682  0.59292  1.0000
  C   C214      1.0  0.37832  0.36326  0.58082  1.0000
  H   H211      1.0  0.37319  0.29274  0.57143  1.0000
  H   H212      1.0  0.35648  0.28122  0.59276  1.0000
  H   H213      1.0  0.36760  0.37472  0.59881  1.0000
  H   H214      1.0  0.38423  0.38620  0.57751  1.0000
  C   C215      1.0  0.08845  0.47886  0.64369  1.0000
  H   H215      1.0  0.33277  0.35082  0.48068  1.0000
  C   C216      1.0  0.13741  0.27130  0.72037  1.0000
  C   C217      1.0  0.13383  0.39935  0.59451  1.0000
  H   H216      1.0  0.08412  0.30302  0.59487  1.0000
  Fe  Fe50      1.0  0.39680  0.00579  0.51417  1.0000
  H   H217      1.0  0.35017  0.14708  0.52103  1.0000
  C   C218      1.0  0.01555  0.33405  0.59045  1.0000
  C   C219      1.0  0.01057  0.30291  0.59003  1.0000
  C   C220      1.0  0.99841  0.28477  0.57934  1.0000
  H   H218      1.0  0.01499  0.29246  0.59803  1.0000
  H   H219      1.0  0.01287  0.37097  0.58017  1.0000
  C   C221      1.0  0.17533  0.35281  0.63395  1.0000
  C   C222      1.0  0.18660  0.38498  0.63379  1.0000
  C   C223      1.0  0.21832  0.40285  0.63331  1.0000
  C   C224      1.0  0.23894  0.38874  0.63322  1.0000
  C   C225      1.0  0.22750  0.35657  0.63326  1.0000
  C   C226      1.0  0.19585  0.33871  0.63351  1.0000
  H   H220      1.0  0.17097  0.39611  0.63409  1.0000
  H   H221      1.0  0.22698  0.42775  0.63325  1.0000
  H   H222      1.0  0.24300  0.34539  0.63307  1.0000
  H   H223      1.0  0.18729  0.31383  0.63351  1.0000
  H   H224      1.0  0.99400  0.26055  0.57917  1.0000
  H   H225      1.0  0.44549  0.46158  0.62111  1.0000
  H   H226      1.0  0.31009  0.26380  0.50523  1.0000
  H   H227      1.0  0.33911  0.23257  0.50964  1.0000
  C   C227      1.0  0.31363  0.29075  0.70708  1.0000
  C   C228      1.0  0.28456  0.27669  0.70161  1.0000
  C   C229      1.0  0.27951  0.28411  0.68967  1.0000
  C   C230      1.0  0.30330  0.30590  0.68309  1.0000
  C   C231      1.0  0.33230  0.32025  0.68859  1.0000
  C   C232      1.0  0.33743  0.31257  0.70049  1.0000
  H   H228      1.0  0.26608  0.25975  0.70651  1.0000
  H   H229      1.0  0.25703  0.27268  0.68549  1.0000
  H   H230      1.0  0.35086  0.33701  0.68366  1.0000
  H   H231      1.0  0.36002  0.32357  0.70461  1.0000
  H   H232      1.0  0.00499  0.41758  0.65120  1.0000
  H   H233      1.0  0.39154  0.29378  0.66612  1.0000
  C   C233      1.0  0.02336  0.28089  0.70179  1.0000
  C   C234      1.0  0.99428  0.27807  0.69818  1.0000
  H   H234      1.0  0.09146  0.26821  0.71987  1.0000
  C   C235      1.0  0.01410  0.30212  0.67874  1.0000
  C   C236      1.0  0.04319  0.30501  0.68237  1.0000
  C   C237      1.0  0.04774  0.29446  0.69380  1.0000
  H   H235      1.0  0.16065  0.31891  0.65865  1.0000
  C   C238      1.0  0.98973  0.28864  0.68673  1.0000
  H   H236      1.0  0.06216  0.31526  0.67635  1.0000
  C   C239      1.0  0.34917  0.10039  0.55232  1.0000
  C   C240      1.0  0.17953  0.31510  0.66324  1.0000
  C   C241      1.0  0.98043  0.30057  0.47774  1.0000
  C   C242      1.0  0.00898  0.34689  0.57999  1.0000
  H   H237      1.0  0.97034  0.47970  0.50939  1.0000
  C   C243      1.0  0.02688  0.39591  0.67117  1.0000
  C   C244      1.0  0.37419  0.28614  0.65893  1.0000
  H   H238      1.0  0.97530  0.26771  0.70419  1.0000
  H   H239      1.0  0.29745  0.25867  0.65477  1.0000
  C   C245      1.0  0.20671  0.37150  0.66244  1.0000
  C   C246      1.0  0.34903  0.23810  0.47947  1.0000
  C   C247      1.0  0.23468  0.34174  0.66699  1.0000
  H   H240      1.0  0.39016  0.22712  0.49925  1.0000
  H   H241      1.0  0.07032  0.29677  0.69647  1.0000
  C   C248      1.0  0.32128  0.26622  0.65244  1.0000
  C   C249      1.0  0.16820  0.37986  0.60348  1.0000
  H   H242      1.0  0.43898  0.40873  0.55053  1.0000
  H   H243      1.0  0.42371  0.14333  0.55989  1.0000
  H   H244      1.0  0.29844  0.05053  0.55250  1.0000
  C   C250      1.0  0.33706  0.23859  0.50033  1.0000
  H   H245      1.0  0.31434  0.25370  0.62215  1.0000
  H   H246      1.0  0.28536  0.23870  0.63336  1.0000
  C   C251      1.0  0.10964  0.37060  0.59605  1.0000
  H   H247      1.0  0.46505  0.01808  0.49710  1.0000
  H   H248      1.0  0.06769  0.33050  0.47475  1.0000
  C   C252      1.0  0.35979  0.27866  0.63762  1.0000
  C   C253      1.0  0.05925  0.46672  0.63831  1.0000
  H   H249      1.0  0.10321  0.46569  0.67798  1.0000
  C   C254      1.0  0.07757  0.41684  0.68018  1.0000
  C   C255      1.0  0.30604  0.25921  0.63090  1.0000
  C   C256      1.0  0.23355  0.39860  0.66302  1.0000
  H   H250      1.0  0.45149  0.39199  0.48681  1.0000
  C   C257      1.0  0.01564  0.35385  0.47603  1.0000
  H   H251      1.0  0.36978  0.04644  0.56357  1.0000
  H   H252      1.0  0.17215  0.30630  0.67245  1.0000
  H   H253      1.0  0.23301  0.42062  0.66105  1.0000
  H   H254      1.0  0.28319  0.36687  0.67005  1.0000
  H   H255      1.0  0.37562  0.20272  0.48583  1.0000
  N   N20       1.0  0.32960  0.26773  0.64054  1.0000
  H   H256      1.0  0.04847  0.44257  0.63567  1.0000
  C   C258      1.0  0.34339  0.27515  0.66180  1.0000
  H   H257      1.0  0.06796  0.32123  0.60557  1.0000
  H   H258      1.0  0.02752  0.37670  0.48007  1.0000
  C   C259      1.0  0.08880  0.31770  0.60328  1.0000
  H   H259      1.0  0.30535  0.27820  0.48401  1.0000
  H   H260      1.0  0.06144  0.47227  0.66698  1.0000
  H   H261      1.0  0.29969  0.27884  0.62934  1.0000
  H   H262      1.0  0.04927  0.20433  0.71289  1.0000
  H   H263      1.0  0.28243  0.41766  0.66572  1.0000
  H   H264      1.0  0.04672  0.36875  0.68042  1.0000
  Fe  Fe51      1.0  0.37681  0.00494  0.54095  1.0000
  H   H265      1.0  0.14748  0.33288  0.60903  1.0000
  C   C260      1.0  0.10561  0.25539  0.72057  1.0000
  N   N21       1.0  0.35102  0.22975  0.49117  1.0000
  H   H266      1.0  0.09596  0.41366  0.68490  1.0000
  H   H267      1.0  0.35572  0.19237  0.49986  1.0000
  H   H268      1.0  0.33002  0.10285  0.54792  1.0000
  H   H269      1.0  0.40642  0.29711  0.64440  1.0000
  H   H270      1.0  0.02107  0.47616  0.63242  1.0000
  C   C261      1.0  0.32024  0.25591  0.49788  1.0000
  H   H271      1.0  0.41909  0.09185  0.56634  1.0000
  H   H272      1.0  0.08674  0.36724  0.59319  1.0000
  C   C262      1.0  0.99554  0.32998  0.48313  1.0000
  C   C263      1.0  0.16325  0.40401  0.59835  1.0000
  C   C264      1.0  0.99680  0.32877  0.56933  1.0000
  C   C265      1.0  0.37657  0.12656  0.55406  1.0000
  H   H273      1.0  0.98773  0.46616  0.52888  1.0000
  H   H274      1.0  0.09344  0.30539  0.61100  1.0000
  N   N22       1.0  0.03094  0.42464  0.66753  1.0000
  C   C266      1.0  0.41718  0.40811  0.48184  1.0000
  C   C267      1.0  0.36902  0.21215  0.49409  1.0000
  C   C268      1.0  0.39935  0.09458  0.56265  1.0000
  H   H275      1.0  0.99176  0.33899  0.56139  1.0000
  H   H276      1.0  0.33661  0.27421  0.67122  1.0000
  N   N23       1.0  0.11457  0.34737  0.60147  1.0000
  C   C269      1.0  0.38252  0.28792  0.64676  1.0000
  H   H277      1.0  0.32052  0.03221  0.54520  1.0000
  C   C270      1.0  0.99093  0.29743  0.56900  1.0000
  H   H278      1.0  0.45830  0.18402  0.53453  1.0000
  C   C271      1.0  0.31761  0.26401  0.48596  1.0000
  C   C272      1.0  0.05001  0.39163  0.67763  1.0000
  N   N24       1.0  0.20764  0.34348  0.66415  1.0000
  C   C273      1.0  0.31841  0.04464  0.55358  1.0000
  C   C274      1.0  0.26131  0.39694  0.66562  1.0000
  C   C275      1.0  0.44620  0.47782  0.64815  1.0000
  H   H279      1.0  0.18332  0.29724  0.65769  1.0000
  H   H280      1.0  0.34470  0.99270  0.48728  1.0000
  H   H281      1.0  0.45545  0.36703  0.55468  1.0000
  C   C276      1.0  0.08155  0.44603  0.67642  1.0000
  C   C277      1.0  0.33209  0.25512  0.47667  1.0000
  C   C278      1.0  0.05780  0.44957  0.67011  1.0000
  H   H282      1.0  0.98443  0.41695  0.66497  1.0000
  H   H283      1.0  0.38390  0.42225  0.47414  1.0000
  C   C279      1.0  0.98137  0.44996  0.52118  1.0000
  C   C280      1.0  0.15567  0.25496  0.72142  1.0000
  C   C281      1.0  0.34882  0.34353  0.47626  1.0000
  H   H284      1.0  0.39414  0.98309  0.56636  1.0000
  C   C282      1.0  0.46307  0.41334  0.55032  1.0000
  C   C283      1.0  0.14201  0.22303  0.72256  1.0000
  S   S96       1.0  0.99123  0.33817  0.49872  1.0000
  S   S97       1.0  0.32162  0.28139  0.72193  1.0000
  C   C284      1.0  0.46972  0.47642  0.62087  1.0000
  H   H285      1.0  0.14782  0.29618  0.71971  1.0000
  S   S98       1.0  0.33930  0.98368  0.55476  1.0000
  S   S99       1.0  0.39704  0.98082  0.49612  1.0000
  C   C285      1.0  0.97255  0.40001  0.51243  1.0000
  S   S100      1.0  0.97293  0.27301  0.55617  1.0000
  H   H286      1.0  0.97342  0.38622  0.48655  1.0000
  H   H287      1.0  0.97299  0.37758  0.51337  1.0000
  H   H288      1.0  0.44629  0.98201  0.51375  1.0000
  S   S101      1.0  0.97100  0.33377  0.53223  1.0000
  C   C286      1.0  0.97164  0.45755  0.51023  1.0000
  C   C287      1.0  0.11015  0.20788  0.72284  1.0000
  Fe  Fe52      1.0  0.01861  0.20539  0.75108  1.0000
  S   S102      1.0  0.03702  0.25593  0.74832  1.0000
  S   S103      1.0  0.05073  0.18208  0.75437  1.0000
  Fe  Fe53      1.0  0.00138  0.25628  0.76116  1.0000
  S   S104      1.0  0.98584  0.19350  0.73509  1.0000
  Fe  Fe54      1.0  0.00318  0.24497  0.73280  1.0000
  C   C288      1.0  0.00091  0.37667  0.83611  1.0000
  S   S105      1.0  0.31568  0.23163  0.96530  1.0000
  Fe  Fe55      1.0  0.04685  0.32884  0.84735  1.0000
  S   S106      1.0  0.07491  0.37883  0.84400  1.0000
  S   S107      1.0  0.01680  0.29219  0.83342  1.0000
  Fe  Fe56      1.0  0.06509  0.33615  0.87481  1.0000
  S   S108      1.0  0.09491  0.38702  0.87336  1.0000
  S   S109      1.0  0.06555  0.30826  0.89154  1.0000
  Fe  Fe57      1.0  0.05688  0.38883  0.86161  1.0000
  S   S110      1.0  0.03462  0.42309  0.86281  1.0000
  Fe  Fe58      1.0  0.11068  0.37331  0.85592  1.0000
  S   S111      1.0  0.15893  0.39154  0.84908  1.0000
  S   S112      1.0  0.02576  0.33862  0.86427  1.0000
  S   S113      1.0  0.08391  0.32261  0.85804  1.0000
  C   C289      1.0  0.05326  0.46402  0.86226  1.0000
  C   C290      1.0  0.35360  0.32879  0.74667  1.0000
  S   S114      1.0  0.29005  0.04124  0.75075  1.0000
  Fe  Fe59      1.0  0.22834  0.23930  0.74900  1.0000
  S   S115      1.0  0.27622  0.27537  0.75171  1.0000
  S   S116      1.0  0.19316  0.25938  0.74890  1.0000
  Fe  Fe60      1.0  0.24949  0.18750  0.74584  1.0000
  S   S117      1.0  0.29897  0.22009  0.74827  1.0000
  S   S118      1.0  0.22924  0.13557  0.74166  1.0000
  Fe  Fe61      1.0  0.28298  0.24130  0.76382  1.0000
  S   S119      1.0  0.31166  0.25610  0.78146  1.0000
  Fe  Fe62      1.0  0.28778  0.25163  0.73591  1.0000
  S   S120      1.0  0.23414  0.20659  0.76219  1.0000
  S   S121      1.0  0.23934  0.21771  0.73244  1.0000
  Fe  Fe63      1.0  0.30014  0.36919  0.86988  1.0000
  S   S122      1.0  0.29009  0.31960  0.86605  1.0000
  S   S123      1.0  0.26159  0.37324  0.88031  1.0000
  Fe  Fe64      1.0  0.36415  0.39109  0.85927  1.0000
  S   S124      1.0  0.35783  0.34204  0.85501  1.0000
  S   S125      1.0  0.40709  0.42902  0.85168  1.0000
  Fe  Fe65      1.0  0.31113  0.33441  0.84782  1.0000
  S   S126      1.0  0.28183  0.31024  0.83100  1.0000
  Fe  Fe66      1.0  0.33712  0.33196  0.87368  1.0000
  S   S127      1.0  0.34421  0.30032  0.88750  1.0000
  S   S128      1.0  0.31802  0.38366  0.85122  1.0000
  S   S129      1.0  0.34671  0.38118  0.87838  1.0000
  Fe  Fe67      1.0  0.99502  0.24968  0.95597  1.0000
  S   S130      1.0  0.01667  0.21621  0.95400  1.0000
  C   C291      1.0  0.16631  0.23853  0.96797  1.0000
  C   C292      1.0  0.36733  0.31057  0.76886  1.0000
  H   H289      1.0  0.19467  0.98247  0.76856  1.0000
  S   S131      1.0  0.98839  0.27676  0.94014  1.0000
  H   H290      1.0  0.98726  0.31235  0.91952  1.0000
  H   H291      1.0  0.28061  0.04300  0.96184  1.0000
  C   C293      1.0  0.41359  0.36245  0.89833  1.0000
  C   C294      1.0  0.46110  0.48057  0.85010  1.0000
  Fe  Fe68      1.0  0.28732  0.25198  0.95523  1.0000
  S   S132      1.0  0.30396  0.29395  0.94301  1.0000
  S   S133      1.0  0.25305  0.20629  0.94787  1.0000
  H   H292      1.0  0.31081  0.09781  0.95734  1.0000
  C   C295      1.0  0.26863  0.99747  0.93539  1.0000
  N   N25       1.0  0.98674  0.34988  0.82939  1.0000
  N   N26       1.0  0.35207  0.32933  0.76849  1.0000
  C   C296      1.0  0.32361  0.02116  0.93214  1.0000
  H   H293      1.0  0.40861  0.99418  0.83794  1.0000
  C   C297      1.0  0.22370  0.06786  0.96207  1.0000
  H   H294      1.0  0.09903  0.46663  0.86189  1.0000
  H   H295      1.0  0.19501  0.09534  0.76420  1.0000
  H   H296      1.0  0.05172  0.18571  0.72688  1.0000
  H   H297      1.0  0.40693  0.33715  0.89739  1.0000
  H   H298      1.0  0.31619  0.32465  0.78036  1.0000
  C   C298      1.0  0.33376  0.29913  0.90302  1.0000
  C   C299      1.0  0.32859  0.27256  0.90967  1.0000
  C   C300      1.0  0.31982  0.27064  0.92194  1.0000
  C   C301      1.0  0.31688  0.29565  0.92781  1.0000
  C   C302      1.0  0.32298  0.32257  0.92126  1.0000
  C   C303      1.0  0.33093  0.32418  0.90890  1.0000
  H   H299      1.0  0.33097  0.25314  0.90526  1.0000
  H   H300      1.0  0.31536  0.24982  0.92686  1.0000
  H   H301      1.0  0.32096  0.34212  0.92572  1.0000
  H   H302      1.0  0.33497  0.34486  0.90397  1.0000
  H   H303      1.0  0.12606  0.37876  0.91848  1.0000
  H   H304      1.0  0.20783  0.99527  0.75352  1.0000
  S   S134      1.0  0.21539  0.00794  0.96536  1.0000
  C   C304      1.0  0.29104  0.29584  0.81725  1.0000
  C   C305      1.0  0.31915  0.29411  0.81562  1.0000
  C   C306      1.0  0.32491  0.28160  0.80467  1.0000
  C   C307      1.0  0.30285  0.27099  0.79517  1.0000
  C   C308      1.0  0.27494  0.27317  0.79673  1.0000
  C   C309      1.0  0.26904  0.28534  0.80773  1.0000
  H   H305      1.0  0.33625  0.30197  0.82286  1.0000
  H   H306      1.0  0.34657  0.28000  0.80358  1.0000
  H   H307      1.0  0.25775  0.26515  0.78952  1.0000
  H   H308      1.0  0.24717  0.28642  0.80888  1.0000
  C   C310      1.0  0.27431  0.06777  0.74680  1.0000
  C   C311      1.0  0.29001  0.09895  0.75045  1.0000
  C   C312      1.0  0.27712  0.12034  0.74851  1.0000
  C   C313      1.0  0.24835  0.11072  0.74287  1.0000
  C   C314      1.0  0.23313  0.07977  0.73882  1.0000
  C   C315      1.0  0.24602  0.05837  0.74077  1.0000
  H   H309      1.0  0.31201  0.10649  0.75504  1.0000
  H   H310      1.0  0.28911  0.14408  0.75164  1.0000
  H   H311      1.0  0.21099  0.07219  0.73435  1.0000
  H   H312      1.0  0.23394  0.03461  0.73771  1.0000
  C   C316      1.0  0.34513  0.33843  0.75758  1.0000
  C   C317      1.0  0.03014  0.40154  0.81873  1.0000
  C   C318      1.0  0.18767  0.38835  0.85830  1.0000
  C   C319      1.0  0.18123  0.37516  0.86974  1.0000
  C   C320      1.0  0.20426  0.37116  0.87654  1.0000
  C   C321      1.0  0.23359  0.37980  0.87184  1.0000
  C   C322      1.0  0.24003  0.39313  0.86044  1.0000
  C   C323      1.0  0.21721  0.39768  0.85375  1.0000
  H   H313      1.0  0.15850  0.36792  0.87330  1.0000
  H   H314      1.0  0.19919  0.36098  0.88538  1.0000
  H   H315      1.0  0.26269  0.40025  0.85682  1.0000
  H   H316      1.0  0.22235  0.40811  0.84495  1.0000
  C   C324      1.0  0.04271  0.29882  0.90469  1.0000
  C   C325      1.0  0.04798  0.28021  0.91339  1.0000
  C   C326      1.0  0.03166  0.27334  0.92429  1.0000
  C   C327      1.0  0.00969  0.28489  0.92659  1.0000
  C   C328      1.0  0.00423  0.30329  0.91785  1.0000
  C   C329      1.0  0.02071  0.31033  0.90697  1.0000
  H   H317      1.0  0.06504  0.27129  0.91174  1.0000
  H   H318      1.0  0.03616  0.25919  0.93093  1.0000
  H   H319      1.0  0.39238  0.36637  0.89896  1.0000
  H   H320      1.0  0.01649  0.32479  0.90038  1.0000
  C   C330      1.0  0.28651  0.08957  0.95876  1.0000
  Fe  Fe69      1.0  0.27904  0.18585  0.95916  1.0000
  H   H321      1.0  0.08718  0.35966  0.91271  1.0000
  H   H322      1.0  0.34739  0.33533  0.73800  1.0000
  H   H323      1.0  0.04382  0.24495  0.81895  1.0000
  C   C331      1.0  0.09062  0.20365  0.75349  1.0000
  C   C332      1.0  0.10293  0.23551  0.75201  1.0000
  C   C333      1.0  0.13449  0.25226  0.75112  1.0000
  C   C334      1.0  0.15422  0.23733  0.75147  1.0000
  C   C335      1.0  0.14220  0.20543  0.75302  1.0000
  C   C336      1.0  0.11042  0.18866  0.75409  1.0000
  H   H324      1.0  0.08837  0.24749  0.75142  1.0000
  H   H325      1.0  0.14365  0.27690  0.74986  1.0000
  H   H326      1.0  0.15731  0.19370  0.75325  1.0000
  N   N27       1.0  0.43101  0.37838  0.88782  1.0000
  C   C337      1.0  0.02026  0.29351  0.79155  1.0000
  C   C338      1.0  0.99729  0.26895  0.81029  1.0000
  C   C339      1.0  0.01911  0.29320  0.81733  1.0000
  C   C340      1.0  0.04163  0.31757  0.81142  1.0000
  C   C341      1.0  0.04194  0.31786  0.79860  1.0000
  H   H327      1.0  0.05854  0.33641  0.81671  1.0000
  H   H328      1.0  0.05918  0.33705  0.79411  1.0000
  N   N28       1.0  0.21608  0.33878  0.83669  1.0000
  C   C342      1.0  0.22293  0.32521  0.84643  1.0000
  C   C343      1.0  0.18718  0.33716  0.83502  1.0000
  C   C344      1.0  0.20090  0.31057  0.85508  1.0000
  C   C345      1.0  0.16449  0.32243  0.84343  1.0000
  C   C346      1.0  0.17154  0.30934  0.85358  1.0000
  C   C347      1.0  0.23963  0.35430  0.82781  1.0000
  H   H329      1.0  0.24577  0.32638  0.84773  1.0000
  H   H330      1.0  0.18178  0.34832  0.82742  1.0000
  H   H331      1.0  0.20690  0.30102  0.86304  1.0000
  H   H332      1.0  0.14207  0.32260  0.84238  1.0000
  H   H333      1.0  0.15447  0.29900  0.86041  1.0000
  H   H334      1.0  0.26266  0.36480  0.83227  1.0000
  H   H335      1.0  0.23987  0.33731  0.82076  1.0000
  H   H336      1.0  0.23575  0.37324  0.82343  1.0000
  H   H337      1.0  0.32179  0.00112  0.92626  1.0000
  H   H338      1.0  0.40181  0.34404  0.87519  1.0000
  H   H339      1.0  0.01011  0.18905  0.81662  1.0000
  H   H340      1.0  0.34163  0.04213  0.92838  1.0000
  C   C348      1.0  0.43838  0.46190  0.85794  1.0000
  H   H341      1.0  0.97971  0.25001  0.81476  1.0000
  H   H342      1.0  0.35223  0.33368  0.78793  1.0000
  C   C349      1.0  0.20579  0.08015  0.76672  1.0000
  H   H343      1.0  0.11095  0.16578  0.96466  1.0000
  H   H344      1.0  0.38656  0.28414  0.75845  1.0000
  H   H345      1.0  0.37194  0.30247  0.77748  1.0000
  H   H346      1.0  0.37432  0.30069  0.73853  1.0000
  H   H347      1.0  0.26235  0.07479  0.93062  1.0000
  N   N29       1.0  0.05459  0.23401  0.78917  1.0000
  C   C350      1.0  0.05770  0.24886  0.80021  1.0000
  C   C351      1.0  0.03675  0.20307  0.78788  1.0000
  C   C352      1.0  0.04194  0.23288  0.81027  1.0000
  C   C353      1.0  0.02040  0.18645  0.79771  1.0000
  C   C354      1.0  0.02294  0.20154  0.80895  1.0000
  C   C355      1.0  0.07149  0.25115  0.77880  1.0000
  H   H348      1.0  0.07186  0.27338  0.80122  1.0000
  H   H349      1.0  0.03478  0.19113  0.77917  1.0000
  H   H350      1.0  0.42695  0.37050  0.90698  1.0000
  H   H351      1.0  0.00575  0.16207  0.79654  1.0000
  C   C356      1.0  0.27231  0.10997  0.95784  1.0000
  H   H352      1.0  0.06048  0.23944  0.77011  1.0000
  H   H353      1.0  0.07171  0.27463  0.77871  1.0000
  H   H354      1.0  0.09527  0.25290  0.77910  1.0000
  N   N30       1.0  0.09772  0.34033  0.92859  1.0000
  C   C357      1.0  0.07535  0.34356  0.93531  1.0000
  C   C358      1.0  0.11284  0.32347  0.93282  1.0000
  C   C359      1.0  0.15321  0.20649  0.96613  1.0000
  C   C360      1.0  0.10539  0.30897  0.94400  1.0000
  S   S135      1.0  0.29430  0.14826  0.95377  1.0000
  C   C361      1.0  0.23778  0.02661  0.93437  1.0000
  H   H355      1.0  0.42879  0.37194  0.85708  1.0000
  H   H356      1.0  0.13061  0.32098  0.92751  1.0000
  H   H357      1.0  0.34627  0.36325  0.77988  1.0000
  C   C362      1.0  0.36874  0.30929  0.74697  1.0000
  H   H358      1.0  0.46242  0.41675  0.89837  1.0000
  C   C363      1.0  0.10649  0.35605  0.91702  1.0000
  C   C364      1.0  0.08253  0.31202  0.95086  1.0000
  H   H359      1.0  0.19928  0.05947  0.96320  1.0000
  N   N31       1.0  0.25691  0.31490  0.90934  1.0000
  C   C365      1.0  0.24944  0.29611  0.91913  1.0000
  C   C366      1.0  0.26054  0.30383  0.89817  1.0000
  C   C367      1.0  0.24623  0.26558  0.91793  1.0000
  C   C368      1.0  0.25785  0.27354  0.89667  1.0000
  C   C369      1.0  0.25075  0.25438  0.90664  1.0000
  C   C370      1.0  0.26115  0.34715  0.91066  1.0000
  C   C371      1.0  0.06727  0.32928  0.94651  1.0000
  H   H360      1.0  0.26659  0.31885  0.89047  1.0000
  C   C372      1.0  0.24090  0.09918  0.95969  1.0000
  H   H361      1.0  0.26237  0.26541  0.88793  1.0000
  H   H362      1.0  0.24967  0.23119  0.90571  1.0000
  H   H363      1.0  0.28247  0.36249  0.90615  1.0000
  H   H364      1.0  0.24171  0.35021  0.90622  1.0000
  H   H365      1.0  0.26319  0.35493  0.92034  1.0000
  H   H366      1.0  0.02077  0.37281  0.80242  1.0000
  C   C373      1.0  0.23494  0.04187  0.77160  1.0000
  H   H367      1.0  0.00254  0.17180  0.91890  1.0000
  N   N32       1.0  0.29401  0.02317  0.93267  1.0000
  C   C374      1.0  0.23397  0.09217  0.77286  1.0000
  N   N33       1.0  0.20724  0.03022  0.76562  1.0000
  H   H368      1.0  0.17139  0.04017  0.75791  1.0000
  H   H369      1.0  0.24726  0.02748  0.77302  1.0000
  S   S136      1.0  0.26023  0.25264  0.97202  1.0000
  H   H370      1.0  0.97255  0.31939  0.84413  1.0000
  C   C375      1.0  0.02281  0.40288  0.83090  1.0000
  C   C376      1.0  0.29195  0.05067  0.93091  1.0000
  Fe  Fe70      1.0  0.97881  0.18541  0.96587  1.0000
  C   C377      1.0  0.34125  0.33829  0.77971  1.0000
  H   H371      1.0  0.27122  0.08235  0.77963  1.0000
  C   C378      1.0  0.44219  0.46880  0.87044  1.0000
  C   C379      1.0  0.01514  0.37429  0.81187  1.0000
  H   H372      1.0  0.04756  0.42153  0.81466  1.0000
  H   H373      1.0  0.11708  0.29530  0.94738  1.0000
  H   H374      1.0  0.22973  0.11475  0.95892  1.0000
  C   C380      1.0  0.19269  0.04895  0.76311  1.0000
  H   H375      1.0  0.04882  0.33099  0.95164  1.0000
  H   H376      1.0  0.24498  0.11664  0.77519  1.0000
  S   S137      1.0  0.02143  0.29552  0.77546  1.0000
  H   H377      1.0  0.07661  0.30087  0.95953  1.0000
  H   H378      1.0  0.33221  0.35249  0.75724  1.0000
  H   H379      1.0  0.10116  0.16398  0.75524  1.0000
  C   C381      1.0  0.99803  0.26890  0.79747  1.0000
  C   C382      1.0  0.19428  0.99799  0.76122  1.0000
  C   C383      1.0  0.23786  0.04734  0.96285  1.0000
  C   C384      1.0  0.37566  0.30007  0.75812  1.0000
  H   H380      1.0  0.42491  0.45478  0.87659  1.0000
  Fe  Fe71      1.0  0.22759  0.20594  0.96496  1.0000
  H   H381      1.0  0.24732  0.30495  0.92808  1.0000
  C   C385      1.0  0.98079  0.20316  0.91695  1.0000
  H   H382      1.0  0.24182  0.25126  0.92585  1.0000
  H   H383      1.0  0.19089  0.25098  0.96811  1.0000
  H   H384      1.0  0.17016  0.99006  0.75802  1.0000
  C   C386      1.0  0.24866  0.07295  0.77536  1.0000
  S   S138      1.0  0.17574  0.18508  0.96495  1.0000
  H   H385      1.0  0.06302  0.35652  0.93191  1.0000
  H   H386      1.0  0.21602  0.02817  0.93550  1.0000
  C   C387      1.0  0.24017  0.99880  0.93629  1.0000
  H   H387      1.0  0.03443  0.42390  0.83636  1.0000
  C   C388      1.0  0.43688  0.38128  0.86616  1.0000
  H   H388      1.0  0.31215  0.07133  0.92911  1.0000
  H   H389      1.0  0.01091  0.46957  0.86249  1.0000
  C   C389      1.0  0.08504  0.47958  0.86188  1.0000
  H   H390      1.0  0.33096  0.01777  0.94141  1.0000
  C   C390      1.0  0.26943  0.05845  0.96136  1.0000
  H   H391      1.0  0.11285  0.34191  0.91034  1.0000
  C   C391      1.0  0.42157  0.36588  0.87641  1.0000
  C   C392      1.0  0.99316  0.34861  0.81736  1.0000
  C   C393      1.0  0.14752  0.25436  0.96996  1.0000
  C   C394      1.0  0.26379  0.05276  0.93165  1.0000
  H   H392      1.0  0.09975  0.18321  0.72416  1.0000
  H   H393      1.0  0.98107  0.25012  0.79217  1.0000
  H   H394      1.0  0.99565  0.37777  0.84563  1.0000
  C   C395      1.0  0.98480  0.17849  0.92211  1.0000
  H   H395      1.0  0.99539  0.21586  0.90969  1.0000
  H   H396      1.0  0.98185  0.32743  0.81198  1.0000
  C   C396      1.0  0.11556  0.23835  0.97003  1.0000
  C   C397      1.0  0.45543  0.40630  0.88937  1.0000
  S   S139      1.0  0.98448  0.20580  0.76483  1.0000
  C   C398      1.0  0.10246  0.20643  0.96794  1.0000
  Fe  Fe72      1.0  0.26895  0.98883  0.74841  1.0000
  C   C399      1.0  0.12124  0.19059  0.96604  1.0000
  H   H397      1.0  0.07789  0.19386  0.96800  1.0000
  Fe  Fe73      1.0  0.04110  0.23783  0.97159  1.0000
  H   H398      1.0  0.04957  0.22219  0.72748  1.0000
  C   C400      1.0  0.46204  0.40950  0.86767  1.0000
  H   H399      1.0  0.45844  0.47549  0.84041  1.0000
  H   H400      1.0  0.15611  0.21035  0.72382  1.0000
  S   S140      1.0  0.28875  0.99183  0.96995  1.0000
  H   H401      1.0  0.15781  0.27907  0.97157  1.0000
  Fe  Fe74      1.0  0.01071  0.68153  0.99144  1.0000
  H   H402      1.0  0.33239  0.93159  0.03266  1.0000
  C   C401      1.0  0.06692  0.75275  0.00914  1.0000
  H   H403      1.0  0.41952  0.96379  0.03601  1.0000
  C   C402      1.0  0.01834  0.57420  0.13229  1.0000
  C   C403      1.0  0.32084  0.95899  0.01978  1.0000
  S   S141      1.0  0.24378  0.97180  0.18096  1.0000
  S   S142      1.0  0.23062  0.95119  0.98686  1.0000
  H   H404      1.0  0.03276  0.65330  0.03440  1.0000
  H   H405      1.0  0.03329  0.59979  0.10351  1.0000
  C   C404      1.0  0.12051  0.76384  0.00777  1.0000
  H   H406      1.0  0.99733  0.62489  0.05065  1.0000
  Fe  Fe75      1.0  0.99304  0.67869  0.20916  1.0000
  N   N34       1.0  0.07338  0.78345  0.00827  1.0000
  S   S143      1.0  0.19644  0.85914  0.97792  1.0000
  Fe  Fe76      1.0  0.23848  0.92731  0.18955  1.0000
  S   S144      1.0  0.28898  0.93872  0.18868  1.0000
  S   S145      1.0  0.20248  0.88209  0.18152  1.0000
  C   C405      1.0  0.13514  0.91050  0.20278  1.0000
  H   H407      1.0  0.02550  0.68616  0.14918  1.0000
  C   C406      1.0  0.12697  0.79517  0.00717  1.0000
  S   S146      1.0  0.27860  0.92270  0.97717  1.0000
  H   H408      1.0  0.99330  0.51698  0.06002  1.0000
  S   S147      1.0  0.24102  0.94554  0.20871  1.0000
  C   C407      1.0  0.14159  0.90401  0.18134  1.0000
  Fe  Fe77      1.0  0.04693  0.73346  0.19830  1.0000
  S   S148      1.0  0.03595  0.68234  0.19980  1.0000
  S   S149      1.0  0.09044  0.77339  0.20578  1.0000
  Fe  Fe78      1.0  0.01000  0.67691  0.18189  1.0000
  H   H409      1.0  0.15495  0.79587  0.97805  1.0000
  C   C408      1.0  0.32876  0.96748  0.13642  1.0000
  S   S150      1.0  0.02378  0.72802  0.17986  1.0000
  S   S151      1.0  0.00522  0.72955  0.20868  1.0000
  S   S152      1.0  0.05114  0.79281  0.97794  1.0000
  H   H410      1.0  0.13746  0.82892  0.21571  1.0000
  C   C409      1.0  0.99708  0.64801  0.02131  1.0000
  C   C410      1.0  0.04856  0.79379  0.00881  1.0000
  C   C411      1.0  0.01022  0.66500  0.14459  1.0000
  C   C412      1.0  0.27043  0.87569  0.20996  1.0000
  H   H411      1.0  0.18623  0.96198  0.21715  1.0000
  C   C413      1.0  0.00777  0.66329  0.13178  1.0000
  C   C414      1.0  0.97196  0.60992  0.13237  1.0000
  H   H412      1.0  0.32187  0.94356  0.13366  1.0000
  N   N35       1.0  0.15529  0.94082  0.20244  1.0000
  C   C415      1.0  0.03015  0.59473  0.12290  1.0000
  C   C416      1.0  0.33253  0.95396  0.03096  1.0000
  C   C417      1.0  0.17089  0.85272  0.18842  1.0000
  C   C418      1.0  0.16584  0.85308  0.20091  1.0000
  C   C419      1.0  0.14091  0.82876  0.20601  1.0000
  C   C420      1.0  0.12048  0.80407  0.19870  1.0000
  C   C421      1.0  0.12516  0.80414  0.18618  1.0000
  C   C422      1.0  0.15033  0.82823  0.18110  1.0000
  H   H413      1.0  0.18132  0.87186  0.20664  1.0000
  H   H414      1.0  0.08492  0.71799  0.00932  1.0000
  H   H415      1.0  0.10973  0.78529  0.18044  1.0000
  H   H416      1.0  0.15396  0.82774  0.17142  1.0000
  N   N36       1.0  0.25372  0.85527  0.20093  1.0000
  C   C423      1.0  0.32190  0.97481  0.14820  1.0000
  S   S153      1.0  0.02330  0.66788  0.00986  1.0000
  C   C424      1.0  0.00835  0.64393  0.03271  1.0000
  H   H417      1.0  0.30988  0.95662  0.15439  1.0000
  C   C425      1.0  0.09033  0.74246  0.00881  1.0000
  C   C426      1.0  0.00890  0.55217  0.10839  1.0000
  H   H418      1.0  0.02113  0.68332  0.12661  1.0000
  C   C427      1.0  0.02526  0.58374  0.11087  1.0000
  H   H419      1.0  0.41981  0.94640  0.11994  1.0000
  H   H420      1.0  0.11210  0.86758  0.19254  1.0000
  H   H421      1.0  0.13710  0.88934  0.17321  1.0000
  H   H422      1.0  0.29288  0.89346  0.20819  1.0000
  C   C428      1.0  0.00179  0.54279  0.12949  1.0000
  H   H423      1.0  0.99579  0.57460  0.03005  1.0000
  C   C429      1.0  0.99425  0.63888  0.15135  1.0000
  H   H424      1.0  0.05455  0.81570  0.00393  1.0000
  H   H425      1.0  0.10815  0.82898  0.00671  1.0000
  S   S154      1.0  0.99966  0.63846  0.16735  1.0000
  N   N37       1.0  0.99759  0.53211  0.11765  1.0000
  H   H426      1.0  0.26204  0.83396  0.18501  1.0000
  C   C430      1.0  0.15606  0.84159  0.97782  1.0000
  Fe  Fe79      1.0  0.28157  0.96568  0.98729  1.0000
  H   H427      1.0  0.02758  0.77668  0.00417  1.0000
  C   C431      1.0  0.14138  0.80926  0.97794  1.0000
  Fe  Fe80      1.0  0.98160  0.72027  0.19047  1.0000
  Fe  Fe81      1.0  0.29180  0.96002  0.20753  1.0000
  S   S155      1.0  0.97676  0.57874  0.08011  1.0000
  H   H428      1.0  0.04353  0.73592  0.00999  1.0000
  H   H429      1.0  0.14938  0.88362  0.97769  1.0000
  H   H430      1.0  0.15032  0.81202  0.00616  1.0000
  H   H431      1.0  0.04353  0.79713  0.01842  1.0000
  H   H432      1.0  0.18533  0.97692  0.19157  1.0000
  S   S156      1.0  0.98338  0.65131  0.97575  1.0000
  H   H433      1.0  0.13885  0.75615  0.00738  1.0000
  C   C432      1.0  0.98832  0.62785  0.04196  1.0000
  H   H434      1.0  0.31187  0.94060  0.01295  1.0000
  H   H435      1.0  0.02126  0.58281  0.14166  1.0000
  H   H436      1.0  0.04207  0.61931  0.12490  1.0000
  H   H437      1.0  0.00495  0.54386  0.09901  1.0000
  C   C433      1.0  0.26584  0.85724  0.18865  1.0000
  C   C434      1.0  0.22519  0.83335  0.20318  1.0000
  H   H438      1.0  0.17380  0.94430  0.17274  1.0000
  C   C435      1.0  0.10619  0.84347  0.97782  1.0000
  H   H439      1.0  0.29079  0.87185  0.18853  1.0000
  C   C436      1.0  0.10297  0.80464  0.00747  1.0000
  H   H440      1.0  0.19037  0.81341  0.21654  1.0000
  C   C437      1.0  0.97970  0.49927  0.11475  1.0000
  C   C438      1.0  0.25883  0.87410  0.22165  1.0000
  H   H441      1.0  0.39312  0.96505  0.01672  1.0000
  C   C439      1.0  0.16233  0.93483  0.18110  1.0000
  C   C440      1.0  0.12766  0.89178  0.19221  1.0000
  S   S157      1.0  0.04907  0.70934  0.97921  1.0000
  S   S158      1.0  0.35392  0.98004  0.11375  1.0000
  S   S159      1.0  0.98974  0.63371  0.10943  1.0000
  C   C441      1.0  0.98894  0.63568  0.12558  1.0000
  H   H442      1.0  0.09849  0.76923  0.97795  1.0000
  H   H443      1.0  0.21145  0.81792  0.19592  1.0000
  Fe  Fe82      1.0  0.22772  0.90998  0.97553  1.0000
  H   H444      1.0  0.14650  0.95050  0.22078  1.0000
  C   C442      1.0  0.09155  0.81109  0.97786  1.0000
  C   C443      1.0  0.16891  0.95304  0.19179  1.0000
  S   S160      1.0  0.36252  0.97139  0.05319  1.0000
  H   H445      1.0  0.99132  0.49090  0.10777  1.0000
  Fe  Fe83      1.0  0.02527  0.74060  0.97722  1.0000
  C   C444      1.0  0.34487  0.97777  0.03987  1.0000
  H   H446      1.0  0.99214  0.52711  0.13684  1.0000
  C   C445      1.0  0.98311  0.55651  0.03624  1.0000
  C   C446      1.0  0.97494  0.61144  0.14517  1.0000
  C   C447      1.0  0.99842  0.54711  0.04501  1.0000
  C   C448      1.0  0.16371  0.96004  0.21362  1.0000
  S   S161      1.0  0.98882  0.71502  0.99056  1.0000
  H   H447      1.0  0.25416  0.86738  0.18249  1.0000
  C   C449      1.0  0.21306  0.83084  0.21482  1.0000
  H   H448      1.0  0.43794  0.96181  0.10591  1.0000
  C   C450      1.0  0.13832  0.85869  0.97773  1.0000
  H   H449      1.0  0.39915  0.95672  0.10834  1.0000
  H   H450      1.0  0.97658  0.48476  0.12282  1.0000
  H   H451      1.0  0.12499  0.90044  0.21127  1.0000
  C   C451      1.0  0.10933  0.79407  0.97789  1.0000
  H   H452      1.0  0.09263  0.85687  0.97780  1.0000
  C   C452      1.0  0.42192  0.96334  0.11283  1.0000
  H   H453      1.0  0.97561  0.68548  0.16264  1.0000
  H   H454      1.0  0.02318  0.55763  0.04562  1.0000
  C   C453      1.0  0.98171  0.52439  0.05309  1.0000
  H   H455      1.0  0.40044  0.97977  0.13262  1.0000
  S   S162      1.0  0.31913  0.95029  0.22271  1.0000
  H   H456      1.0  0.02024  0.56165  0.35604  1.0000
  C   C454      1.0  0.04952  0.50093  0.41131  1.0000
  H   H457      1.0  0.35443  0.94496  0.24320  1.0000
  N   N38       1.0  0.04811  0.54299  0.44295  1.0000
  C   C455      1.0  0.98857  0.61290  0.35207  1.0000
  C   C456      1.0  0.06930  0.57446  0.44650  1.0000
  Fe  Fe84      1.0  0.05443  0.64053  0.40229  1.0000
  S   S163      1.0  0.10539  0.65485  0.40302  1.0000
  S   S164      1.0  0.02716  0.64429  0.38566  1.0000
  Fe  Fe85      1.0  0.04905  0.63369  0.43036  1.0000
  S   S165      1.0  0.09961  0.64813  0.43301  1.0000
  S   S166      1.0  0.01072  0.61439  0.44414  1.0000
  Fe  Fe86      1.0  0.10642  0.68484  0.41926  1.0000
  S   S167      1.0  0.13709  0.73663  0.42134  1.0000
  Fe  Fe87      1.0  0.09477  0.61709  0.41660  1.0000
  S   S168      1.0  0.11896  0.58514  0.41750  1.0000
  S   S169      1.0  0.05581  0.67270  0.41785  1.0000
  S   S170      1.0  0.04392  0.60061  0.41467  1.0000
  Fe  Fe88      1.0  0.35350  0.92581  0.40288  1.0000
  S   S171      1.0  0.35865  0.88095  0.40427  1.0000
  S   S172      1.0  0.37497  0.96037  0.38777  1.0000
  Fe  Fe89      1.0  0.33528  0.92415  0.42997  1.0000
  S   S173      1.0  0.33933  0.87959  0.43295  1.0000
  S   S174      1.0  0.32201  0.94813  0.44556  1.0000
  Fe  Fe90      1.0  0.38214  0.89976  0.42224  1.0000
  S   S175      1.0  0.42751  0.90349  0.42979  1.0000
  Fe  Fe91      1.0  0.31464  0.86430  0.41487  1.0000
  S   S176      1.0  0.28018  0.81372  0.41279  1.0000
  S   S177      1.0  0.37962  0.94536  0.42044  1.0000
  S   S178      1.0  0.30794  0.90817  0.41233  1.0000
  C   C457      1.0  0.45112  0.89216  0.42071  1.0000
  C   C458      1.0  0.35674  0.97959  0.25669  1.0000
  H   H458      1.0  0.22073  0.85006  0.23311  1.0000
  C   C459      1.0  0.43914  0.86991  0.41135  1.0000
  C   C460      1.0  0.97454  0.48315  0.27149  1.0000
  H   H459      1.0  0.41491  0.86020  0.40921  1.0000
  C   C461      1.0  0.34322  0.95764  0.45954  1.0000
  C   C462      1.0  0.28786  0.88064  0.45966  1.0000
  C   C463      1.0  0.36748  0.94918  0.46160  1.0000
  C   C464      1.0  0.10046  0.69539  0.37694  1.0000
  H   H460      1.0  0.37404  0.93715  0.45451  1.0000
  C   C465      1.0  0.09726  0.54495  0.41594  1.0000
  C   C466      1.0  0.06682  0.53294  0.41190  1.0000
  H   H461      1.0  0.42847  0.52773  0.41284  1.0000
  C   C467      1.0  0.11049  0.52462  0.41910  1.0000
  H   H462      1.0  0.05656  0.54824  0.40919  1.0000
  H   H463      1.0  0.32010  0.92536  0.34822  1.0000
  C   C468      1.0  0.17700  0.75751  0.41901  1.0000
  C   C469      1.0  0.18975  0.78996  0.42002  1.0000
  C   C470      1.0  0.22109  0.80757  0.41802  1.0000
  C   C471      1.0  0.24022  0.79292  0.41506  1.0000
  C   C472      1.0  0.22740  0.76048  0.41396  1.0000
  C   C473      1.0  0.19602  0.74287  0.41590  1.0000
  H   H464      1.0  0.17520  0.80157  0.42229  1.0000
  H   H465      1.0  0.23036  0.83245  0.41865  1.0000
  H   H466      1.0  0.24191  0.74884  0.41167  1.0000
  H   H467      1.0  0.18663  0.71796  0.41507  1.0000
  C   C474      1.0  0.98173  0.62338  0.26269  1.0000
  C   C475      1.0  0.01123  0.61232  0.46025  1.0000
  C   C476      1.0  0.98798  0.53794  0.27169  1.0000
  H   H468      1.0  0.05915  0.64075  0.46296  1.0000
  N   N39       1.0  0.46571  0.94761  0.40029  1.0000
  C   C477      1.0  0.00886  0.48316  0.43588  1.0000
  H   H469      1.0  0.02582  0.49186  0.40834  1.0000
  C   C478      1.0  0.99988  0.50735  0.43445  1.0000
  C   C479      1.0  0.99640  0.58822  0.34939  1.0000
  C   C480      1.0  0.01397  0.58063  0.35799  1.0000
  C   C481      1.0  0.02352  0.59738  0.36914  1.0000
  C   C482      1.0  0.01558  0.62198  0.37183  1.0000
  H   H470      1.0  0.32261  0.83528  0.46911  1.0000
  C   C483      1.0  0.45847  0.85942  0.40502  1.0000
  C   C484      1.0  0.97106  0.63976  0.23894  1.0000
  H   H471      1.0  0.03692  0.59118  0.37566  1.0000
  N   N40       1.0  0.10921  0.71799  0.38587  1.0000
  H   H472      1.0  0.01287  0.55605  0.43682  1.0000
  C   C485      1.0  0.99815  0.62966  0.36321  1.0000
  C   C486      1.0  0.37055  0.95970  0.37167  1.0000
  C   C487      1.0  0.00089  0.64957  0.24357  1.0000
  C   C488      1.0  0.34772  0.96356  0.24536  1.0000
  H   H473      1.0  0.09193  0.73431  0.40093  1.0000
  C   C489      1.0  0.98309  0.48476  0.33725  1.0000
  C   C490      1.0  0.44412  0.90697  0.38039  1.0000
  C   C491      1.0  0.01990  0.53732  0.43808  1.0000
  C   C492      1.0  0.45438  0.84369  0.44091  1.0000
  C   C493      1.0  0.99673  0.51348  0.27261  1.0000
  H   H474      1.0  0.02056  0.51805  0.27417  1.0000
  H   H475      1.0  0.08017  0.52425  0.44749  1.0000
  H   H476      1.0  0.43010  0.83774  0.43984  1.0000
  H   H477      1.0  0.22981  0.85834  0.44174  1.0000
  H   H478      1.0  0.06336  0.70931  0.39051  1.0000
  H   H479      1.0  0.32675  0.92110  0.37046  1.0000
  C   C494      1.0  0.33501  0.97318  0.46892  1.0000
  H   H480      1.0  0.40322  0.91517  0.38182  1.0000
  H   H481      1.0  0.44911  0.84180  0.39790  1.0000
  H   H482      1.0  0.18421  0.73276  0.38854  1.0000
  H   H483      1.0  0.26136  0.82261  0.43878  1.0000
  C   C495      1.0  0.12147  0.68487  0.37218  1.0000
  C   C496      1.0  0.98366  0.59548  0.46611  1.0000
  C   C497      1.0  0.34074  0.94122  0.35286  1.0000
  H   H484      1.0  0.00492  0.56163  0.27252  1.0000
  N   N41       1.0  0.27221  0.86355  0.44967  1.0000
  H   H485      1.0  0.27217  0.89052  0.22875  1.0000
  C   C498      1.0  0.05727  0.51950  0.44419  1.0000
  C   C499      1.0  0.00615  0.64131  0.25536  1.0000
  C   C500      1.0  0.34447  0.93871  0.36548  1.0000
  C   C501      1.0  0.27356  0.83606  0.44674  1.0000
  C   C502      1.0  0.29151  0.82534  0.45372  1.0000
  H   H486      1.0  0.02934  0.64896  0.25882  1.0000
  C   C503      1.0  0.25425  0.87475  0.44186  1.0000
  C   C504      1.0  0.42597  0.92048  0.38551  1.0000
  H   H487      1.0  0.26294  0.87715  0.43245  1.0000
  H   H488      1.0  0.08860  0.58274  0.44012  1.0000
  H   H489      1.0  0.08694  0.74832  0.38622  1.0000
  H   H490      1.0  0.14622  0.75068  0.39645  1.0000
  H   H491      1.0  0.01993  0.66339  0.23807  1.0000
  H   H492      1.0  0.25609  0.89790  0.44494  1.0000
  C   C505      1.0  0.30814  0.84300  0.46375  1.0000
  H   H493      1.0  0.29296  0.80383  0.45117  1.0000
  C   C506      1.0  0.46802  0.82787  0.43411  1.0000
  H   H494      1.0  0.97786  0.50305  0.43031  1.0000
  H   H495      1.0  0.11410  0.66623  0.36539  1.0000
  S   S179      1.0  0.98487  0.56608  0.33552  1.0000
  S   S180      1.0  0.35548  0.96888  0.33070  1.0000
  H   H496      1.0  0.97513  0.61908  0.34557  1.0000
  H   H497      1.0  0.45882  0.96326  0.41776  1.0000
  H   H498      1.0  0.16818  0.68992  0.37297  1.0000
  S   S181      1.0  0.98979  0.61316  0.27738  1.0000
  C   C507      1.0  0.08678  0.72810  0.39109  1.0000
  H   H499      1.0  0.07843  0.57518  0.45587  1.0000
  H   H500      1.0  0.05800  0.59069  0.44639  1.0000
  H   H501      1.0  0.46249  0.50747  0.39324  1.0000
  H   H502      1.0  0.28676  0.90240  0.46203  1.0000
  C   C508      1.0  0.03778  0.62765  0.46733  1.0000
  C   C509      1.0  0.13909  0.73202  0.38970  1.0000
  C   C510      1.0  0.45843  0.48330  0.39270  1.0000
  C   C511      1.0  0.16074  0.72212  0.38516  1.0000
  C   C512      1.0  0.43719  0.94083  0.39553  1.0000
  C   C513      1.0  0.09311  0.49249  0.41855  1.0000
  C   C514      1.0  0.33019  0.97141  0.23684  1.0000
  C   C515      1.0  0.43979  0.51464  0.41694  1.0000
  H   H503      1.0  0.42289  0.95105  0.39954  1.0000
  H   H504      1.0  0.99188  0.64865  0.36517  1.0000
  H   H505      1.0  0.43545  0.89070  0.37276  1.0000
  H   H506      1.0  0.07701  0.68496  0.37358  1.0000
  H   H507      1.0  0.13412  0.53377  0.42216  1.0000
  C   C516      1.0  0.15174  0.69817  0.37642  1.0000
  H   H508      1.0  0.37018  0.97324  0.26313  1.0000
  C   C517      1.0  0.36313  0.96446  0.34624  1.0000
  C   C518      1.0  0.03764  0.48920  0.44086  1.0000
  H   H509      1.0  0.99108  0.50896  0.33998  1.0000
  H   H510      1.0  0.46194  0.88178  0.45322  1.0000
  C   C519      1.0  0.23000  0.85145  0.22409  1.0000
  C   C520      1.0  0.30632  0.87083  0.46676  1.0000
  H   H511      1.0  0.45440  0.80935  0.42780  1.0000
  C   C521      1.0  0.42321  0.48309  0.41894  1.0000
  C   C522      1.0  0.46888  0.48109  0.42772  1.0000
  H   H512      1.0  0.31622  0.97977  0.46743  1.0000
  H   H513      1.0  0.02382  0.48118  0.34408  1.0000
  C   C523      1.0  0.38349  0.95645  0.47286  1.0000
  N   N42       1.0  0.40394  0.91073  0.67188  1.0000
  H   H514      1.0  0.04123  0.74024  0.71459  1.0000
  Fe  Fe92      1.0  0.04448  0.63967  0.62406  1.0000
  S   S182      1.0  0.07771  0.61814  0.62181  1.0000
  S   S183      1.0  0.01839  0.64772  0.60795  1.0000
  Fe  Fe93      1.0  0.05728  0.64950  0.65205  1.0000
  S   S184      1.0  0.09096  0.62765  0.65142  1.0000
  S   S185      1.0  0.05376  0.67616  0.66915  1.0000
  Fe  Fe94      1.0  0.10853  0.65581  0.63475  1.0000
  S   S186      1.0  0.15895  0.68152  0.63065  1.0000
  Fe  Fe95      1.0  0.05692  0.59228  0.63860  1.0000
  S   S187      1.0  0.03650  0.53986  0.63773  1.0000
  S   S188      1.0  0.07668  0.67925  0.63584  1.0000
  S   S189      1.0  0.02176  0.61225  0.64032  1.0000
  Fe  Fe96      1.0  0.32154  0.91226  0.64918  1.0000
  S   S190      1.0  0.30726  0.86164  0.65147  1.0000
  S   S191      1.0  0.32318  0.94517  0.66478  1.0000
  Fe  Fe97      1.0  0.33344  0.90816  0.62143  1.0000
  S   S192      1.0  0.31761  0.85652  0.62206  1.0000
  C   C524      1.0  0.10235  0.51040  0.64694  1.0000
  Fe  Fe98      1.0  0.28004  0.85663  0.63418  1.0000
  S   S193      1.0  0.22873  0.82790  0.63493  1.0000
  Fe  Fe99      1.0  0.34627  0.86676  0.63923  1.0000
  S   S194      1.0  0.37939  0.84440  0.64206  1.0000
  S   S195      1.0  0.29347  0.90777  0.63216  1.0000
  S   S196      1.0  0.36282  0.91789  0.63845  1.0000
  H   H515      1.0  0.40256  0.96393  0.58627  1.0000
  H   H516      1.0  0.04522  0.69143  0.71297  1.0000
  H   H517      1.0  0.40233  0.94992  0.47430  1.0000
  H   H518      1.0  0.24519  0.91984  0.65676  1.0000
  C   C525      1.0  0.20351  0.85214  0.68975  1.0000
  H   H519      1.0  0.19810  0.80983  0.68037  1.0000
  H   H520      1.0  0.46301  0.51429  0.61319  1.0000
  C   C526      1.0  0.00878  0.61053  0.48600  1.0000
  C   C527      1.0  0.99223  0.63387  0.58492  1.0000
  S   S197      1.0  0.97496  0.56476  0.55928  1.0000
  C   C528      1.0  0.35558  0.94741  0.59162  1.0000
  C   C529      1.0  0.32638  0.94445  0.58811  1.0000
  H   H521      1.0  0.29127  0.96419  0.70534  1.0000
  S   S198      1.0  0.39824  0.97847  0.53045  1.0000
  H   H522      1.0  0.30745  0.93370  0.59411  1.0000
  H   H523      1.0  0.41340  0.84416  0.66968  1.0000
  C   C530      1.0  0.00996  0.62714  0.59371  1.0000
  C   C531      1.0  0.01908  0.60325  0.59123  1.0000
  C   C532      1.0  0.00938  0.58546  0.58034  1.0000
  C   C533      1.0  0.99067  0.59139  0.57174  1.0000
  C   C534      1.0  0.41942  0.86871  0.67075  1.0000
  H   H524      1.0  0.03289  0.59790  0.59782  1.0000
  H   H525      1.0  0.01577  0.56641  0.57869  1.0000
  C   C535      1.0  0.17872  0.72202  0.63293  1.0000
  C   C536      1.0  0.16369  0.74029  0.63672  1.0000
  C   C537      1.0  0.17946  0.77264  0.63742  1.0000
  C   C538      1.0  0.21052  0.78706  0.63453  1.0000
  C   C539      1.0  0.22575  0.76880  0.63099  1.0000
  C   C540      1.0  0.20984  0.73644  0.63013  1.0000
  H   H526      1.0  0.13979  0.72956  0.63893  1.0000
  H   H527      1.0  0.16747  0.78656  0.64016  1.0000
  H   H528      1.0  0.24964  0.77961  0.62871  1.0000
  H   H529      1.0  0.22169  0.72251  0.62720  1.0000
  H   H530      1.0  0.37724  0.92858  0.68213  1.0000
  C   C541      1.0  0.41919  0.86665  0.64141  1.0000
  C   C542      1.0  0.43130  0.89884  0.64152  1.0000
  H   H531      1.0  0.43006  0.82693  0.64128  1.0000
  H   H532      1.0  0.41638  0.91060  0.64177  1.0000
  H   H533      1.0  0.38456  0.87967  0.60177  1.0000
  H   H534      1.0  0.37283  0.86325  0.67053  1.0000
  C   C543      1.0  0.05761  0.51734  0.63974  1.0000
  C   C544      1.0  0.08708  0.52967  0.64489  1.0000
  C   C545      1.0  0.03650  0.62680  0.48013  1.0000
  H   H535      1.0  0.09789  0.55390  0.64750  1.0000
  C   C546      1.0  0.28144  0.91614  0.70245  1.0000
  C   C547      1.0  0.28375  0.89413  0.69424  1.0000
  C   C548      1.0  0.29673  0.90269  0.68275  1.0000
  C   C549      1.0  0.30774  0.93347  0.67935  1.0000
  H   H536      1.0  0.05381  0.77364  0.70541  1.0000
  C   C550      1.0  0.29296  0.94701  0.69914  1.0000
  H   H537      1.0  0.27484  0.87018  0.69671  1.0000
  H   H538      1.0  0.29786  0.88537  0.67650  1.0000
  C   C551      1.0  0.00781  0.65041  0.70623  1.0000
  C   C552      1.0  0.99607  0.63024  0.69607  1.0000
  C   C553      1.0  0.01107  0.63649  0.68483  1.0000
  C   C554      1.0  0.03792  0.66319  0.68361  1.0000
  C   C555      1.0  0.05026  0.68265  0.69390  1.0000
  C   C556      1.0  0.03553  0.67614  0.70517  1.0000
  H   H539      1.0  0.00114  0.62141  0.67699  1.0000
  H   H540      1.0  0.07105  0.70329  0.69309  1.0000
  H   H541      1.0  0.46799  0.88146  0.67030  1.0000
  C   C557      1.0  0.22589  0.89794  0.67794  1.0000
  H   H542      1.0  0.98610  0.67177  0.50861  1.0000
  C   C558      1.0  0.43111  0.49508  0.64352  1.0000
  H   H543      1.0  0.05704  0.63935  0.48553  1.0000
  H   H544      1.0  0.42636  0.93873  0.61043  1.0000
  H   H545      1.0  0.43972  0.95598  0.67298  1.0000
  H   H546      1.0  0.26496  0.89507  0.65637  1.0000
  C   C559      1.0  0.37982  0.92204  0.67259  1.0000
  H   H547      1.0  0.16926  0.76186  0.60992  1.0000
  C   C560      1.0  0.44719  0.52713  0.64207  1.0000
  H   H548      1.0  0.11643  0.75889  0.61105  1.0000
  H   H549      1.0  0.98136  0.54900  0.62659  1.0000
  C   C561      1.0  0.21778  0.84926  0.66894  1.0000
  C   C562      1.0  0.43922  0.85186  0.64130  1.0000
  H   H550      1.0  0.02729  0.67853  0.49378  1.0000
  S   S199      1.0  0.36336  0.93433  0.60578  1.0000
  C   C563      1.0  0.43388  0.93140  0.67237  1.0000
  H   H551      1.0  0.44726  0.95244  0.50355  1.0000
  C   C564      1.0  0.30611  0.95560  0.68766  1.0000
  C   C565      1.0  0.98243  0.59440  0.47890  1.0000
  N   N43       1.0  0.22769  0.88053  0.66816  1.0000
  N   N44       1.0  0.12979  0.68671  0.60167  1.0000
  C   C566      1.0  0.10064  0.68482  0.60232  1.0000
  C   C567      1.0  0.15420  0.71401  0.60430  1.0000
  C   C568      1.0  0.09537  0.71077  0.60559  1.0000
  C   C569      1.0  0.14980  0.74048  0.60752  1.0000
  C   C570      1.0  0.12016  0.73874  0.60823  1.0000
  C   C571      1.0  0.13501  0.65901  0.59887  1.0000
  H   H552      1.0  0.08120  0.66309  0.60046  1.0000
  H   H553      1.0  0.17724  0.71516  0.60439  1.0000
  H   H554      1.0  0.07214  0.70891  0.60628  1.0000
  H   H555      1.0  0.35741  0.90437  0.66927  1.0000
  C   C572      1.0  0.46081  0.97052  0.51039  1.0000
  H   H556      1.0  0.11497  0.64089  0.59408  1.0000
  H   H557      1.0  0.15505  0.66456  0.59294  1.0000
  H   H558      1.0  0.13948  0.64947  0.60745  1.0000
  C   C573      1.0  0.21350  0.88397  0.68883  1.0000
  H   H559      1.0  0.46633  0.95983  0.51843  1.0000
  N   N45       1.0  0.98013  0.66411  0.48940  1.0000
  H   H560      1.0  0.05061  0.75689  0.68502  1.0000
  H   H561      1.0  0.98857  0.52225  0.61691  1.0000
  S   S200      1.0  0.00761  0.61367  0.50210  1.0000
  H   H562      1.0  0.21310  0.89794  0.69672  1.0000
  N   N46       1.0  0.01650  0.73343  0.69791  1.0000
  S   S201      1.0  0.26129  0.90325  0.71611  1.0000
  C   C574      1.0  0.98585  0.69311  0.67876  1.0000
  H   H563      1.0  0.01679  0.70794  0.48760  1.0000
  H   H564      1.0  0.01894  0.67775  0.47791  1.0000
  C   C575      1.0  0.44053  0.92587  0.61085  1.0000
  H   H565      1.0  0.12493  0.51997  0.65112  1.0000
  C   C576      1.0  0.37519  0.97247  0.57237  1.0000
  H   H566      1.0  0.21978  0.83558  0.66123  1.0000
  C   C577      1.0  0.32170  0.95557  0.57680  1.0000
  H   H567      1.0  0.97476  0.61013  0.69680  1.0000
  H   H568      1.0  0.22814  0.88295  0.64886  1.0000
  H   H569      1.0  0.38509  0.94247  0.66683  1.0000
  H   H570      1.0  0.43532  0.54032  0.63854  1.0000
  C   C578      1.0  0.24208  0.89539  0.65699  1.0000
  C   C579      1.0  0.45001  0.88963  0.67107  1.0000
  C   C580      1.0  0.39653  0.87972  0.67114  1.0000
  C   C581      1.0  0.03330  0.75341  0.70823  1.0000
  H   H571      1.0  0.38432  0.88944  0.61765  1.0000
  H   H572      1.0  0.23506  0.92288  0.67753  1.0000
  C   C582      1.0  0.20551  0.83458  0.67974  1.0000
  C   C583      1.0  0.02857  0.73826  0.68654  1.0000
  C   C584      1.0  0.98941  0.70892  0.69990  1.0000
  H   H573      1.0  0.01853  0.76227  0.71327  1.0000
  H   H574      1.0  0.02371  0.72124  0.66792  1.0000
  C   C585      1.0  0.39395  0.87836  0.61092  1.0000
  H   H575      1.0  0.38600  0.85381  0.61343  1.0000
  C   C586      1.0  0.01335  0.71829  0.67679  1.0000
  C   C587      1.0  0.45736  0.92119  0.67190  1.0000
  H   H576      1.0  0.01197  0.56288  0.61592  1.0000
  H   H577      1.0  0.40712  0.48374  0.64102  1.0000
  C   C588      1.0  0.46302  0.91611  0.64164  1.0000
  C   C589      1.0  0.98831  0.54551  0.61727  1.0000
  H   H578      1.0  0.43452  0.85305  0.61186  1.0000
  C   C590      1.0  0.37989  0.96151  0.58368  1.0000
  N   N47       1.0  0.42731  0.89437  0.61112  1.0000
  H   H579      1.0  0.29904  0.95317  0.57419  1.0000
  C   C591      1.0  0.44499  0.87800  0.61152  1.0000
  C   C592      1.0  0.35112  0.98056  0.48019  1.0000
  C   C593      1.0  0.37556  0.97229  0.48220  1.0000
  H   H580      1.0  0.19493  0.84131  0.69832  1.0000
  C   C594      1.0  0.34604  0.96957  0.56886  1.0000
  C   C595      1.0  0.04381  0.48583  0.63646  1.0000
  H   H581      1.0  0.98055  0.70415  0.70900  1.0000
  H   H582      1.0  0.31946  0.88509  0.47441  1.0000
  H   H583      1.0  0.31470  0.97952  0.68514  1.0000
  C   C596      1.0  0.01234  0.68315  0.48704  1.0000
  C   C597      1.0  0.98265  0.61615  0.57398  1.0000
  S   S202      1.0  0.98593  0.64407  0.71966  1.0000
  H   H584      1.0  0.98516  0.65240  0.58671  1.0000
  H   H585      1.0  0.97476  0.67654  0.67141  1.0000
  C   C598      1.0  0.97369  0.68840  0.69037  1.0000
  Fe  Fe100     1.0  0.03684  0.74349  0.74436  1.0000
  S   S203      1.0  0.04491  0.70029  0.74433  1.0000
  S   S204      1.0  0.07349  0.78284  0.73476  1.0000
  Fe  Fe101     1.0  0.99786  0.67722  0.73617  1.0000
  Fe  Fe102     1.0  0.02298  0.69187  0.76271  1.0000
  S   S205      1.0  0.04794  0.67701  0.77744  1.0000
  H   H586      1.0  0.99053  0.65417  0.93397  1.0000
  S   S206      1.0  0.01848  0.73712  0.76328  1.0000
  Fe  Fe103     1.0  0.08115  0.60733  0.86164  1.0000
  S   S207      1.0  0.03164  0.59935  0.86153  1.0000
  S   S208      1.0  0.10012  0.57046  0.86159  1.0000
  Fe  Fe104     1.0  0.10333  0.67728  0.86298  1.0000
  S   S209      1.0  0.05529  0.67378  0.86308  1.0000
  S   S210      1.0  0.13639  0.72764  0.86399  1.0000
  Fe  Fe105     1.0  0.04582  0.63633  0.87644  1.0000
  S   S211      1.0  0.01457  0.63311  0.89235  1.0000
  Fe  Fe106     1.0  0.04559  0.63798  0.84816  1.0000
  S   S212      1.0  0.01506  0.64034  0.83246  1.0000
  S   S213      1.0  0.09452  0.64199  0.87743  1.0000
  S   S214      1.0  0.09429  0.64366  0.84721  1.0000
  Fe  Fe107     1.0  0.21255  0.92991  0.75203  1.0000
  S   S215      1.0  0.23760  0.90021  0.74861  1.0000
  S   S216      1.0  0.16443  0.91025  0.75906  1.0000
  Fe  Fe108     1.0  0.25931  0.93120  0.73304  1.0000
  Fe  Fe109     1.0  0.27486  0.93400  0.76064  1.0000
  S   S217      1.0  0.29525  0.91208  0.77443  1.0000
  H   H587      1.0  0.13355  0.84393  0.94922  1.0000
  C   C599      1.0  0.12580  0.79585  0.94864  1.0000
  Fe  Fe110     1.0  0.30240  0.84195  0.85549  1.0000
  S   S218      1.0  0.27736  0.87233  0.85742  1.0000
  S   S219      1.0  0.27731  0.79009  0.85237  1.0000
  Fe  Fe111     1.0  0.36458  0.89551  0.86000  1.0000
  S   S220      1.0  0.34277  0.92920  0.86266  1.0000
  S   S221      1.0  0.41684  0.91835  0.86071  1.0000
  Fe  Fe112     1.0  0.30791  0.89300  0.87386  1.0000
  S   S222      1.0  0.27953  0.89579  0.89007  1.0000
  Fe  Fe113     1.0  0.31421  0.90546  0.84607  1.0000
  S   S223      1.0  0.30558  0.93527  0.83185  1.0000
  S   S224      1.0  0.33156  0.86083  0.87244  1.0000
  S   S225      1.0  0.33757  0.87373  0.84287  1.0000
  Fe  Fe114     1.0  0.01950  0.68237  0.96328  1.0000
  S   S226      1.0  0.99711  0.71519  0.96077  1.0000
  S   S227      1.0  0.04725  0.67168  0.94844  1.0000
  Fe  Fe115     1.0  0.28115  0.94774  0.95977  1.0000
  S   S228      1.0  0.23054  0.93303  0.95762  1.0000
  S   S229      1.0  0.31381  0.95070  0.94442  1.0000
  C   C600      1.0  0.00435  0.57135  0.90903  1.0000
  H   H588      1.0  0.06469  0.59377  0.92885  1.0000
  H   H589      1.0  0.14995  0.80116  0.94963  1.0000
  H   H590      1.0  0.13220  0.82664  0.72805  1.0000
  C   C601      1.0  0.28988  0.91087  0.90518  1.0000
  C   C602      1.0  0.32030  0.92608  0.90917  1.0000
  C   C603      1.0  0.32720  0.93786  0.92124  1.0000
  C   C604      1.0  0.30384  0.93440  0.92946  1.0000
  C   C605      1.0  0.27342  0.91909  0.92548  1.0000
  C   C606      1.0  0.26653  0.90749  0.91340  1.0000
  H   H591      1.0  0.33850  0.92889  0.90296  1.0000
  C   C607      1.0  0.46893  0.49336  0.87502  1.0000
  H   H592      1.0  0.25520  0.91615  0.93169  1.0000
  H   H593      1.0  0.24293  0.89583  0.91041  1.0000
  C   C608      1.0  0.29513  0.91724  0.79043  1.0000
  C   C609      1.0  0.29130  0.94233  0.79576  1.0000
  C   C610      1.0  0.29375  0.94701  0.80848  1.0000
  C   C611      1.0  0.29960  0.92648  0.81603  1.0000
  H   H594      1.0  0.03991  0.77803  0.94688  1.0000
  H   H595      1.0  0.30695  0.88483  0.81642  1.0000
  H   H596      1.0  0.04260  0.74432  0.83930  1.0000
  S   S230      1.0  0.23083  0.95872  0.73560  1.0000
  C   C612      1.0  0.17436  0.74343  0.85901  1.0000
  C   C613      1.0  0.18905  0.77553  0.85811  1.0000
  C   C614      1.0  0.22027  0.78983  0.85563  1.0000
  C   C615      1.0  0.23722  0.77224  0.85403  1.0000
  C   C616      1.0  0.22219  0.73991  0.85433  1.0000
  C   C617      1.0  0.19076  0.72547  0.85682  1.0000
  H   H597      1.0  0.17644  0.78955  0.85967  1.0000
  H   H598      1.0  0.23121  0.81451  0.85514  1.0000
  H   H599      1.0  0.23508  0.72608  0.85299  1.0000
  H   H600      1.0  0.17959  0.70065  0.85745  1.0000
  C   C618      1.0  0.02490  0.64698  0.90762  1.0000
  C   C619      1.0  0.00195  0.64653  0.91556  1.0000
  C   C620      1.0  0.00854  0.65492  0.92799  1.0000
  C   C621      1.0  0.03813  0.66334  0.93268  1.0000
  C   C622      1.0  0.06115  0.66396  0.92473  1.0000
  C   C623      1.0  0.05468  0.65613  0.91225  1.0000
  H   H601      1.0  0.14403  0.73488  0.81405  1.0000
  H   H602      1.0  0.15434  0.85140  0.77419  1.0000
  H   H603      1.0  0.08408  0.67022  0.92826  1.0000
  H   H604      1.0  0.07252  0.65635  0.90629  1.0000
  C   C624      1.0  0.09834  0.81794  0.74185  1.0000
  C   C625      1.0  0.12624  0.83524  0.73636  1.0000
  C   C626      1.0  0.14662  0.86354  0.74158  1.0000
  C   C627      1.0  0.13888  0.87514  0.75218  1.0000
  C   C628      1.0  0.11085  0.85800  0.75763  1.0000
  C   C629      1.0  0.09076  0.82925  0.75257  1.0000
  C   C630      1.0  0.11998  0.72840  0.83088  1.0000
  C   C631      1.0  0.08562  0.81383  0.94768  1.0000
  H   H605      1.0  0.10473  0.86688  0.76583  1.0000
  H   H606      1.0  0.06919  0.81617  0.75680  1.0000
  C   C632      1.0  0.03965  0.66991  0.79303  1.0000
  C   C633      1.0  0.01279  0.66924  0.79806  1.0000
  C   C634      1.0  0.00595  0.66076  0.81023  1.0000
  C   C635      1.0  0.02609  0.65342  0.81757  1.0000
  C   C636      1.0  0.05347  0.65518  0.81267  1.0000
  C   C637      1.0  0.06005  0.66312  0.80043  1.0000
  H   H607      1.0  0.99691  0.67447  0.79249  1.0000
  S   S231      1.0  0.29877  0.96305  0.74486  1.0000
  H   H608      1.0  0.06914  0.64953  0.81819  1.0000
  H   H609      1.0  0.08088  0.66354  0.79662  1.0000
  C   C638      1.0  0.08120  0.52947  0.86161  1.0000
  C   C639      1.0  0.04935  0.51388  0.86186  1.0000
  C   C640      1.0  0.09887  0.51209  0.86160  1.0000
  H   H610      1.0  0.03538  0.52682  0.86176  1.0000
  H   H611      1.0  0.12351  0.52386  0.86140  1.0000
  C   C641      1.0  0.43240  0.86900  0.85599  1.0000
  C   C642      1.0  0.44245  0.90090  0.85762  1.0000
  H   H612      1.0  0.13563  0.80562  0.76026  1.0000
  H   H613      1.0  0.40825  0.85429  0.85623  1.0000
  C   C643      1.0  0.12303  0.73256  0.81837  1.0000
  N   N48       1.0  0.06884  0.72533  0.82946  1.0000
  C   C644      1.0  0.18005  0.80519  0.75840  1.0000
  C   C645      1.0  0.39591  0.91271  0.81608  1.0000
  H   H614      1.0  0.30341  0.87688  0.79394  1.0000
  C   C646      1.0  0.06453  0.57839  0.91018  1.0000
  H   H615      1.0  0.10079  0.73636  0.80172  1.0000
  C   C647      1.0  0.30238  0.90078  0.81073  1.0000
  C   C648      1.0  0.07406  0.75944  0.94733  1.0000
  C   C649      1.0  0.06414  0.78326  0.94711  1.0000
  H   H616      1.0  0.39785  0.95985  0.84666  1.0000
  N   N49       1.0  0.10452  0.76592  0.94818  1.0000
  H   H617      1.0  0.05305  0.73043  0.81178  1.0000
  N   N50       1.0  0.20062  0.85667  0.77406  1.0000
  C   C650      1.0  0.22068  0.84508  0.76995  1.0000
  C   C651      1.0  0.21081  0.81943  0.76195  1.0000
  C   C652      1.0  0.21172  0.88414  0.78214  1.0000
  H   H618      1.0  0.24463  0.85611  0.77261  1.0000
  H   H619      1.0  0.22704  0.81100  0.75841  1.0000
  H   H620      1.0  0.19521  0.89504  0.78255  1.0000
  H   H621      1.0  0.21621  0.87810  0.79143  1.0000
  H   H622      1.0  0.23326  0.90187  0.77869  1.0000
  N   N51       1.0  0.22388  0.80311  0.88569  1.0000
  C   C653      1.0  0.20352  0.77302  0.88659  1.0000
  C   C654      1.0  0.25432  0.81035  0.88443  1.0000
  C   C655      1.0  0.21343  0.74920  0.88583  1.0000
  C   C656      1.0  0.26500  0.78713  0.88358  1.0000
  C   C657      1.0  0.24436  0.75637  0.88420  1.0000
  C   C658      1.0  0.21336  0.82800  0.88610  1.0000
  H   H623      1.0  0.17926  0.76710  0.88734  1.0000
  H   H624      1.0  0.27038  0.83419  0.88375  1.0000
  H   H625      1.0  0.19701  0.72533  0.88594  1.0000
  H   H626      1.0  0.28896  0.79295  0.88195  1.0000
  H   H627      1.0  0.25222  0.73813  0.88306  1.0000
  H   H628      1.0  0.22360  0.84415  0.87860  1.0000
  H   H629      1.0  0.18816  0.81914  0.88500  1.0000
  H   H630      1.0  0.22068  0.84128  0.89486  1.0000
  H   H631      1.0  0.35081  0.94969  0.92422  1.0000
  H   H632      1.0  0.97881  0.63937  0.91210  1.0000
  C   C659      1.0  0.07188  0.73014  0.81723  1.0000
  H   H633      1.0  0.09057  0.72206  0.84604  1.0000
  C   C660      1.0  0.38338  0.91988  0.80572  1.0000
  H   H634      1.0  0.16818  0.87653  0.73733  1.0000
  C   C661      1.0  0.09265  0.72504  0.83631  1.0000
  C   C662      1.0  0.04045  0.72180  0.83539  1.0000
  H   H635      1.0  0.08691  0.57578  0.88860  1.0000
  C   C663      1.0  0.17030  0.84237  0.77088  1.0000
  H   H636      1.0  0.17207  0.78556  0.75206  1.0000
  H   H637      1.0  0.05723  0.73571  0.94701  1.0000
  C   C664      1.0  0.30039  0.89635  0.79798  1.0000
  C   C665      1.0  0.15957  0.81647  0.76300  1.0000
  C   C666      1.0  0.11396  0.74035  0.94890  1.0000
  H   H638      1.0  0.03216  0.59998  0.77803  1.0000
  H   H639      1.0  0.40818  0.92377  0.83494  1.0000
  H   H640      1.0  0.99904  0.61766  0.76819  1.0000
  C   C667      1.0  0.01046  0.57981  0.80695  1.0000
  H   H641      1.0  0.29160  0.96697  0.81250  1.0000
  H   H642      1.0  0.08810  0.58123  0.91070  1.0000
  C   C668      1.0  0.05138  0.58520  0.92050  1.0000
  C   C669      1.0  0.37365  0.94374  0.80631  1.0000
  H   H643      1.0  0.07815  0.83248  0.94797  1.0000
  C   C670      1.0  0.39843  0.92953  0.82693  1.0000
  S   S232      1.0  0.97591  0.66453  0.75455  1.0000
  C   C671      1.0  0.02810  0.58557  0.79654  1.0000
  C   C672      1.0  0.02110  0.58168  0.91988  1.0000
  H   H644      1.0  0.38089  0.90680  0.79727  1.0000
  H   H645      1.0  0.13861  0.72770  0.83636  1.0000
  H   H646      1.0  0.05194  0.56490  0.88028  1.0000
  H   H647      1.0  0.10509  0.72459  0.94081  1.0000
  H   H648      1.0  0.36883  0.97099  0.84099  1.0000
  H   H649      1.0  0.28743  0.95869  0.79006  1.0000
  H   H650      1.0  0.45839  0.89776  0.88450  1.0000
  N   N52       1.0  0.38829  0.95254  0.82748  1.0000
  H   H651      1.0  0.36329  0.94912  0.79837  1.0000
  H   H652      1.0  0.36737  0.97751  0.81788  1.0000
  N   N53       1.0  0.04806  0.56874  0.89951  1.0000
  H   H653      1.0  0.44572  0.83122  0.85315  1.0000
  C   C673      1.0  0.06199  0.56104  0.88889  1.0000
  S   S233      1.0  0.24834  0.96196  0.76505  1.0000
  C   C674      1.0  0.09892  0.73362  0.81149  1.0000
  C   C675      1.0  0.11668  0.82024  0.94838  1.0000
  C   C676      1.0  0.45372  0.85598  0.85426  1.0000
  H   H654      1.0  0.01867  0.57408  0.81537  1.0000
  H   H655      1.0  0.13918  0.74843  0.94937  1.0000
  H   H656      1.0  0.10435  0.72688  0.95715  1.0000
  H   H657      1.0  0.40345  0.89410  0.81576  1.0000
  H   H658      1.0  0.97172  0.62514  0.77693  1.0000
  H   H659      1.0  0.05854  0.53648  0.88899  1.0000
  H   H660      1.0  0.02064  0.71260  0.82890  1.0000
  H   H661      1.0  0.03506  0.70483  0.84276  1.0000
  Fe  Fe116     1.0  0.23809  0.97549  0.96910  1.0000
  C   C677      1.0  0.01826  0.56495  0.89886  1.0000
  C   C678      1.0  0.37609  0.95978  0.81736  1.0000
  H   H662      1.0  0.00531  0.55787  0.89036  1.0000
  C   C679      1.0  0.98019  0.60716  0.77470  1.0000
  H   H663      1.0  0.05004  0.58409  0.79678  1.0000
  H   H664      1.0  0.27043  0.97588  0.93705  1.0000
  N   N54       1.0  0.99071  0.59756  0.78577  1.0000
  H   H665      1.0  0.01094  0.58795  0.92768  1.0000
  C   C680      1.0  0.01783  0.59450  0.78596  1.0000
  C   C681      1.0  0.39111  0.97028  0.83883  1.0000
  C   C682      1.0  0.98268  0.58262  0.80662  1.0000
  S   S234      1.0  0.99042  0.72078  0.73529  1.0000
  H   H666      1.0  0.98120  0.56978  0.90830  1.0000
  C   C683      1.0  0.03552  0.48137  0.86223  1.0000
  H   H667      1.0  0.98466  0.65941  0.81394  1.0000
  H   H668      1.0  0.22024  0.97866  0.93885  1.0000
  C   C684      1.0  0.97299  0.59136  0.79586  1.0000
  Fe  Fe117     1.0  0.97219  0.71024  0.75417  1.0000
  H   H669      1.0  0.46770  0.85044  0.88154  1.0000
  H   H670      1.0  0.91676  0.24356  0.01924  1.0000
  H   H671      1.0  0.90147  0.45323  0.08690  1.0000
  Fe  Fe118     1.0  0.63616  0.02831  0.07685  1.0000
  S   S235      1.0  0.58392  0.00583  0.07555  1.0000
  Fe  Fe119     1.0  0.69773  0.08299  0.07930  1.0000
  S   S236      1.0  0.72362  0.05316  0.07915  1.0000
  S   S237      1.0  0.72183  0.13524  0.07882  1.0000
  Fe  Fe120     1.0  0.69218  0.02705  0.06361  1.0000
  Fe  Fe121     1.0  0.68799  0.02302  0.09179  1.0000
  S   S238      1.0  0.66813  0.05878  0.06299  1.0000
  S   S239      1.0  0.66397  0.05489  0.09321  1.0000
  C   C685      1.0  0.86666  0.13684  0.99460  1.0000
  N   N55       1.0  0.81096  0.28065  0.09522  1.0000
  S   S240      1.0  0.76283  0.01733  0.18942  1.0000
  H   H672      1.0  0.94077  0.12478  0.99075  1.0000
  S   S241      1.0  0.90437  0.27562  0.07052  1.0000
  H   H673      1.0  0.75431  0.01073  0.02869  1.0000
  S   S242      1.0  0.90859  0.27992  0.10066  1.0000
  Fe  Fe122     1.0  0.89894  0.24358  0.08593  1.0000
  S   S243      1.0  0.86507  0.19420  0.08812  1.0000
  Fe  Fe123     1.0  0.91819  0.31311  0.08529  1.0000
  S   S244      1.0  0.89618  0.34758  0.08632  1.0000
  S   S245      1.0  0.94748  0.24851  0.08556  1.0000
  H   H674      1.0  0.48041  0.06834  0.11306  1.0000
  C   C686      1.0  0.94768  0.22835  0.14082  1.0000
  S   S246      1.0  0.91586  0.13381  0.21080  1.0000
  C   C687      1.0  0.50760  0.41480  0.08524  1.0000
  C   C688      1.0  0.52872  0.44017  0.09203  1.0000
  C   C689      1.0  0.55585  0.46105  0.08680  1.0000
  C   C690      1.0  0.56212  0.45677  0.07468  1.0000
  C   C691      1.0  0.54072  0.43171  0.06784  1.0000
  C   C692      1.0  0.51369  0.41077  0.07308  1.0000
  H   H675      1.0  0.52423  0.44357  0.10143  1.0000
  H   H676      1.0  0.79900  0.04757  0.16592  1.0000
  H   H677      1.0  0.91951  0.14755  0.17488  1.0000
  H   H678      1.0  0.66375  0.00557  0.03346  1.0000
  C   C693      1.0  0.59113  0.40564  0.07846  1.0000
  C   C694      1.0  0.85955  0.04492  0.18929  1.0000
  C   C695      1.0  0.89063  0.06116  0.18682  1.0000
  C   C696      1.0  0.90807  0.08920  0.19303  1.0000
  C   C697      1.0  0.89444  0.10088  0.20179  1.0000
  C   C698      1.0  0.86327  0.08498  0.20403  1.0000
  C   C699      1.0  0.84595  0.05699  0.19789  1.0000
  C   C700      1.0  0.70980  0.00908  0.03262  1.0000
  H   H679      1.0  0.93219  0.10129  0.19130  1.0000
  H   H680      1.0  0.85256  0.09404  0.21073  1.0000
  H   H681      1.0  0.82218  0.04456  0.20000  1.0000
  C   C701      1.0  0.76150  0.15220  0.08181  1.0000
  C   C702      1.0  0.77597  0.13563  0.08742  1.0000
  C   C703      1.0  0.80767  0.14920  0.08949  1.0000
  C   C704      1.0  0.82522  0.17943  0.08597  1.0000
  C   C705      1.0  0.81084  0.19626  0.08042  1.0000
  C   C706      1.0  0.77896  0.18264  0.07838  1.0000
  H   H682      1.0  0.76274  0.11241  0.09030  1.0000
  H   H683      1.0  0.81869  0.13608  0.09379  1.0000
  H   H684      1.0  0.82429  0.21955  0.07762  1.0000
  H   H685      1.0  0.76784  0.19556  0.07402  1.0000
  C   C707      1.0  0.69529  0.02227  0.12841  1.0000
  Fe  Fe124     1.0  0.74164  0.98669  0.20510  1.0000
  H   H686      1.0  0.83934  0.99350  0.20658  1.0000
  C   C708      1.0  0.94602  0.45365  0.08441  1.0000
  C   C709      1.0  0.91606  0.38840  0.08561  1.0000
  H   H687      1.0  0.86646  0.98831  0.21671  1.0000
  H   H688      1.0  0.76449  0.25908  0.08898  1.0000
  H   H689      1.0  0.51321  0.31353  0.09250  1.0000
  H   H690      1.0  0.49764  0.39148  0.06772  1.0000
  C   C710      1.0  0.55770  0.02265  0.07863  1.0000
  C   C711      1.0  0.56733  0.05306  0.08301  1.0000
  C   C712      1.0  0.54570  0.06532  0.08547  1.0000
  C   C713      1.0  0.51424  0.04746  0.08356  1.0000
  H   H691      1.0  0.89613  0.18550  0.99687  1.0000
  H   H692      1.0  0.59144  0.06719  0.08447  1.0000
  S   S247      1.0  0.95256  0.21341  0.19828  1.0000
  N   N56       1.0  0.86523  0.10778  0.99259  1.0000
  H   H693      1.0  0.90128  0.05186  0.18018  1.0000
  H   H694      1.0  0.93692  0.23881  0.12275  1.0000
  C   C714      1.0  0.55073  0.35741  0.07164  1.0000
  C   C715      1.0  0.70653  0.00482  0.14795  1.0000
  C   C716      1.0  0.50455  0.01699  0.07921  1.0000
  H   H695      1.0  0.54529  0.42818  0.05846  1.0000
  H   H696      1.0  0.82948  0.30967  0.08036  1.0000
  C   C717      1.0  0.89962  0.40694  0.08666  1.0000
  H   H697      1.0  0.68706  0.03807  0.14602  1.0000
  H   H698      1.0  0.49137  0.33502  0.08813  1.0000
  H   H699      1.0  0.89412  0.04308  0.22080  1.0000
  S   S248      1.0  0.65828  0.99454  0.07622  1.0000
  S   S249      1.0  0.95411  0.24143  0.99936  1.0000
  C   C718      1.0  0.93989  0.25154  0.02279  1.0000
  S   S250      1.0  0.70379  0.00476  0.16402  1.0000
  H   H700      1.0  0.92776  0.25974  0.04104  1.0000
  C   C719      1.0  0.52620  0.00469  0.07678  1.0000
  H   H701      1.0  0.94363  0.17758  0.99464  1.0000
  H   H702      1.0  0.85660  0.29615  0.10212  1.0000
  H   H703      1.0  0.79616  0.31258  0.08678  1.0000
  S   S251      1.0  0.48815  0.06420  0.08696  1.0000
  S   S252      1.0  0.59701  0.48054  0.06783  1.0000
  H   H704      1.0  0.58778  0.38607  0.06040  1.0000
  C   C720      1.0  0.81907  0.06866  0.16803  1.0000
  C   C721      1.0  0.69561  0.02322  0.14124  1.0000
  S   S253      1.0  0.47475  0.38809  0.09248  1.0000
  H   H705      1.0  0.89038  0.08030  0.98966  1.0000
  C   C722      1.0  0.89145  0.10324  0.99145  1.0000
  C   C723      1.0  0.89488  0.16235  0.99537  1.0000
  H   H706      1.0  0.84752  0.24667  0.11194  1.0000
  C   C724      1.0  0.72585  0.99959  0.01244  1.0000
  N   N57       1.0  0.76944  0.12676  0.05318  1.0000
  C   C725      1.0  0.76162  0.09588  0.05423  1.0000
  C   C726      1.0  0.79866  0.14760  0.05580  1.0000
  C   C727      1.0  0.78290  0.08519  0.05855  1.0000
  C   C728      1.0  0.82050  0.13777  0.06023  1.0000
  C   C729      1.0  0.81241  0.10635  0.06172  1.0000
  C   C730      1.0  0.74661  0.13740  0.04877  1.0000
  H   H707      1.0  0.73861  0.07933  0.05191  1.0000
  H   H708      1.0  0.80501  0.17209  0.05487  1.0000
  H   H709      1.0  0.77624  0.06064  0.05962  1.0000
  H   H710      1.0  0.84326  0.15451  0.06287  1.0000
  H   H711      1.0  0.82889  0.09847  0.06543  1.0000
  H   H712      1.0  0.74672  0.13807  0.03870  1.0000
  H   H713      1.0  0.72335  0.12187  0.05173  1.0000
  H   H714      1.0  0.75100  0.16061  0.05269  1.0000
  H   H715      1.0  0.48046  0.00290  0.07773  1.0000
  H   H716      1.0  0.61145  0.42628  0.07666  1.0000
  H   H717      1.0  0.74305  0.99747  0.00671  1.0000
  H   H718      1.0  0.84590  0.14046  0.99550  1.0000
  C   C731      1.0  0.70541  0.00243  0.12217  1.0000
  C   C732      1.0  0.92166  0.15794  0.99413  1.0000
  Fe  Fe125     1.0  0.78803  0.98773  0.18614  1.0000
  C   C733      1.0  0.96247  0.43516  0.08339  1.0000
  H   H719      1.0  0.75440  0.20970  0.09892  1.0000
  Fe  Fe126     1.0  0.95740  0.28691  0.09937  1.0000
  C   C734      1.0  0.60150  0.99626  0.10728  1.0000
  H   H720      1.0  0.83236  0.32971  0.09466  1.0000
  Fe  Fe127     1.0  0.95841  0.17091  0.20334  1.0000
  H   H721      1.0  0.54023  0.34023  0.06443  1.0000
  C   C735      1.0  0.68123  0.00426  0.02765  1.0000
  N   N58       1.0  0.87094  0.12178  0.17395  1.0000
  C   C736      1.0  0.87256  0.10094  0.16553  1.0000
  C   C737      1.0  0.84381  0.11693  0.17929  1.0000
  C   C738      1.0  0.84674  0.07396  0.16253  1.0000
  C   C739      1.0  0.81749  0.09031  0.17643  1.0000
  C   C740      1.0  0.92004  0.12826  0.99212  1.0000
  C   C741      1.0  0.89804  0.15010  0.17695  1.0000
  H   H722      1.0  0.89402  0.10482  0.16126  1.0000
  H   H723      1.0  0.84254  0.13347  0.18596  1.0000
  H   H724      1.0  0.62685  0.98896  0.13544  1.0000
  C   C742      1.0  0.94605  0.26073  0.03518  1.0000
  C   C743      1.0  0.83547  0.08127  0.99223  1.0000
  H   H725      1.0  0.89913  0.15609  0.18682  1.0000
  H   H726      1.0  0.58718  0.42017  0.09678  1.0000
  H   H727      1.0  0.55345  0.08893  0.08882  1.0000
  S   S254      1.0  0.71791  0.01464  0.04849  1.0000
  C   C744      1.0  0.96339  0.25294  0.01495  1.0000
  H   H728      1.0  0.92662  0.20791  0.14141  1.0000
  C   C745      1.0  0.83405  0.27730  0.10153  1.0000
  C   C746      1.0  0.91448  0.43937  0.08608  1.0000
  S   S255      1.0  0.95995  0.21368  0.16374  1.0000
  H   H729      1.0  0.81771  0.08729  0.98785  1.0000
  C   C747      1.0  0.80016  0.22521  0.10630  1.0000
  C   C748      1.0  0.71702  0.98461  0.12888  1.0000
  C   C749      1.0  0.94763  0.40275  0.08399  1.0000
  H   H730      1.0  0.89766  0.16957  0.17165  1.0000
  H   H731      1.0  0.87521  0.39615  0.08791  1.0000
  C   C750      1.0  0.50925  0.32736  0.08521  1.0000
  C   C751      1.0  0.81733  0.30945  0.08893  1.0000
  H   H732      1.0  0.68640  0.03617  0.12337  1.0000
  C   C752      1.0  0.55044  0.37630  0.09178  1.0000
  H   H733      1.0  0.79609  0.08619  0.18082  1.0000
  H   H734      1.0  0.84826  0.05687  0.15619  1.0000
  C   C753      1.0  0.57749  0.40222  0.08978  1.0000
  C   C754      1.0  0.73217  0.00713  0.02492  1.0000
  N   N59       1.0  0.53751  0.35427  0.08278  1.0000
  H   H735      1.0  0.82842  0.07339  0.00156  1.0000
  S   S256      1.0  0.83814  0.00954  0.18166  1.0000
  H   H736      1.0  0.50020  0.31183  0.07706  1.0000
  Fe  Fe128     1.0  0.95384  0.28314  0.07108  1.0000
  C   C755      1.0  0.57770  0.38316  0.06931  1.0000
  H   H737      1.0  0.53934  0.37434  0.10045  1.0000
  Fe  Fe129     1.0  0.72592  0.98341  0.17735  1.0000
  C   C756      1.0  0.77672  0.22884  0.09987  1.0000
  H   H738      1.0  0.60472  0.02016  0.12445  1.0000
  H   H739      1.0  0.96061  0.38887  0.08316  1.0000
  C   C757      1.0  0.60869  0.00201  0.11966  1.0000
  C   C758      1.0  0.78264  0.25678  0.09424  1.0000
  C   C759      1.0  0.82902  0.24954  0.10715  1.0000
  C   C760      1.0  0.69692  0.99364  0.00754  1.0000
  S   S257      1.0  0.76948  0.99291  0.98153  1.0000
  C   C761      1.0  0.67481  0.99643  0.01517  1.0000
  C   C762      1.0  0.84458  0.99100  0.21625  1.0000
  H   H740      1.0  0.65235  0.99185  0.01147  1.0000
  H   H741      1.0  0.79621  0.20328  0.11033  1.0000
  S   S258      1.0  0.70064  0.99613  0.10618  1.0000
  C   C763      1.0  0.95345  0.24586  0.13020  1.0000
  H   H742      1.0  0.83612  0.06174  0.98666  1.0000
  H   H743      1.0  0.59182  0.00980  0.10234  1.0000
  C   C764      1.0  0.71772  0.98587  0.14169  1.0000
  C   C765      1.0  0.62124  0.98433  0.12581  1.0000
  S   S259      1.0  0.74573  0.01573  0.22245  1.0000
  S   S260      1.0  0.96806  0.32274  0.08492  1.0000
  C   C766      1.0  0.96879  0.23707  0.15066  1.0000
  H   H744      1.0  0.51852  0.98111  0.07341  1.0000
  H   H745      1.0  0.57207  0.48018  0.09218  1.0000
  Fe  Fe130     1.0  0.68539  0.01716  0.29039  1.0000
  S   S261      1.0  0.69784  0.06825  0.29103  1.0000
  H   H746      1.0  0.72530  0.04262  0.26379  1.0000
  C   C767      1.0  0.54490  0.99826  0.32738  1.0000
  S   S262      1.0  0.68354  0.06134  0.32061  1.0000
  Fe  Fe131     1.0  0.65715  0.05678  0.30312  1.0000
  S   S263      1.0  0.62384  0.07937  0.30166  1.0000
  Fe  Fe132     1.0  0.72331  0.06865  0.30839  1.0000
  S   S264      1.0  0.77238  0.10208  0.31318  1.0000
  S   S265      1.0  0.71311  0.01773  0.30709  1.0000
  Fe  Fe133     1.0  0.89377  0.27016  0.30175  1.0000
  S   S266      1.0  0.92487  0.24880  0.30795  1.0000
  S   S267      1.0  0.84321  0.24167  0.29773  1.0000
  Fe  Fe134     1.0  0.94627  0.33471  0.30116  1.0000
  C   C768      1.0  0.87558  0.06935  0.23144  1.0000
  H   H747      1.0  0.87400  0.26851  0.25340  1.0000
  C   C769      1.0  0.47593  0.44368  0.39492  1.0000
  Fe  Fe135     1.0  0.94624  0.29019  0.32072  1.0000
  S   S268      1.0  0.92412  0.29725  0.28683  1.0000
  S   S269      1.0  0.91257  0.30981  0.31536  1.0000
  H   H748      1.0  0.62174  0.06901  0.33185  1.0000
  H   H749      1.0  0.69097  0.00980  0.37256  1.0000
  Fe  Fe136     1.0  0.67146  0.01060  0.31807  1.0000
  C   C770      1.0  0.63516  0.03041  0.26642  1.0000
  C   C771      1.0  0.79186  0.13982  0.30769  1.0000
  C   C772      1.0  0.82357  0.15509  0.30976  1.0000
  C   C773      1.0  0.83968  0.18602  0.30654  1.0000
  C   C774      1.0  0.82423  0.20203  0.30114  1.0000
  C   C775      1.0  0.79264  0.18654  0.29879  1.0000
  C   C776      1.0  0.77649  0.15558  0.30205  1.0000
  H   H750      1.0  0.83562  0.14308  0.31414  1.0000
  H   H751      1.0  0.86386  0.19758  0.30852  1.0000
  H   H752      1.0  0.78044  0.19869  0.29462  1.0000
  H   H753      1.0  0.75207  0.14411  0.30043  1.0000
  C   C777      1.0  0.91338  0.44777  0.29783  1.0000
  C   C778      1.0  0.89742  0.41552  0.29749  1.0000
  C   C779      1.0  0.91321  0.39633  0.29798  1.0000
  H   H754      1.0  0.49405  0.43648  0.39710  1.0000
  H   H755      1.0  0.95582  0.39945  0.32682  1.0000
  C   C780      1.0  0.94524  0.46074  0.29876  1.0000
  H   H756      1.0  0.89718  0.08947  0.23230  1.0000
  H   H757      1.0  0.53784  0.42900  0.27119  1.0000
  C   C781      1.0  0.55326  0.45627  0.29752  1.0000
  C   C782      1.0  0.52116  0.44237  0.29760  1.0000
  C   C783      1.0  0.50526  0.41036  0.29910  1.0000
  C   C784      1.0  0.52135  0.39183  0.30041  1.0000
  C   C785      1.0  0.55348  0.40583  0.30053  1.0000
  C   C786      1.0  0.56939  0.43790  0.29914  1.0000
  H   H758      1.0  0.87273  0.40532  0.29672  1.0000
  H   H759      1.0  0.56613  0.39171  0.30155  1.0000
  H   H760      1.0  0.68783  0.01452  0.35016  1.0000
  C   C787      1.0  0.52018  0.02205  0.29900  1.0000
  H   H761      1.0  0.48933  0.43362  0.26686  1.0000
  C   C788      1.0  0.57208  0.02482  0.29900  1.0000
  C   C789      1.0  0.58402  0.05689  0.30057  1.0000
  C   C790      1.0  0.56389  0.07150  0.30121  1.0000
  C   C791      1.0  0.53204  0.05413  0.30054  1.0000
  H   H762      1.0  0.57294  0.09633  0.30237  1.0000
  H   H763      1.0  0.51668  0.06553  0.30120  1.0000
  C   C792      1.0  0.54034  0.00754  0.29809  1.0000
  H   H764      1.0  0.65450  0.07854  0.27211  1.0000
  H   H765      1.0  0.87210  0.17885  0.27943  1.0000
  H   H766      1.0  0.91206  0.20259  0.28315  1.0000
  C   C793      1.0  0.73366  0.03028  0.24554  1.0000
  C   C794      1.0  0.71963  0.02429  0.25696  1.0000
  H   H767      1.0  0.92460  0.21751  0.24081  1.0000
  N   N60       1.0  0.89336  0.21741  0.26826  1.0000
  H   H768      1.0  0.53129  0.98273  0.29685  1.0000
  C   C795      1.0  0.60535  0.05894  0.27178  1.0000
  C   C796      1.0  0.96104  0.44159  0.29899  1.0000
  H   H769      1.0  0.92334  0.42763  0.32331  1.0000
  C   C797      1.0  0.69842  0.99459  0.25952  1.0000
  H   H770      1.0  0.52391  0.03065  0.32773  1.0000
  C   C798      1.0  0.88367  0.25188  0.25492  1.0000
  C   C799      1.0  0.67161  0.99441  0.35454  1.0000
  H   H771      1.0  0.88339  0.21566  0.28716  1.0000
  H   H772      1.0  0.91915  0.19391  0.26099  1.0000
  N   N61       1.0  0.94440  0.47740  0.26975  1.0000
  C   C800      1.0  0.51682  0.40842  0.26982  1.0000
  H   H773      1.0  0.85011  0.09070  0.24105  1.0000
  C   C801      1.0  0.72668  0.00674  0.23655  1.0000
  S   S270      1.0  0.96618  0.38653  0.29863  1.0000
  C   C802      1.0  0.84914  0.07018  0.23623  1.0000
  H   H774      1.0  0.58723  0.01330  0.29837  1.0000
  N   N62       1.0  0.84630  0.01802  0.22342  1.0000
  H   H775      1.0  0.55662  0.03246  0.27141  1.0000
  H   H776      1.0  0.59409  0.44825  0.29909  1.0000
  C   C803      1.0  0.91193  0.22314  0.24786  1.0000
  H   H777      1.0  0.48058  0.39995  0.29899  1.0000
  C   C804      1.0  0.54507  0.02767  0.32861  1.0000
  C   C805      1.0  0.90866  0.20979  0.25926  1.0000
  H   H778      1.0  0.94789  0.29631  0.36713  1.0000
  H   H779      1.0  0.74997  0.05337  0.24366  1.0000
  C   C806      1.0  0.57283  0.05327  0.33031  1.0000
  H   H780      1.0  0.86779  0.24336  0.27322  1.0000
  S   S271      1.0  0.94766  0.28548  0.34135  1.0000
  N   N63       1.0  0.86322  0.21142  0.33928  1.0000
  C   C807      1.0  0.86338  0.23792  0.33463  1.0000
  C   C808      1.0  0.83677  0.18510  0.33929  1.0000
  C   C809      1.0  0.83661  0.23851  0.32976  1.0000
  C   C810      1.0  0.80952  0.18494  0.33457  1.0000
  C   C811      1.0  0.80954  0.21183  0.32975  1.0000
  C   C812      1.0  0.89184  0.21153  0.34411  1.0000
  H   H781      1.0  0.88440  0.25869  0.33455  1.0000
  H   H782      1.0  0.83662  0.16385  0.34272  1.0000
  H   H783      1.0  0.83709  0.25926  0.32566  1.0000
  H   H784      1.0  0.78881  0.16375  0.33419  1.0000
  H   H785      1.0  0.78887  0.21169  0.32561  1.0000
  H   H786      1.0  0.90101  0.22895  0.35169  1.0000
  H   H787      1.0  0.88890  0.18877  0.34758  1.0000
  H   H788      1.0  0.90921  0.21785  0.33688  1.0000
  C   C813      1.0  0.51683  0.37933  0.27110  1.0000
  C   C814      1.0  0.92161  0.44555  0.26804  1.0000
  C   C815      1.0  0.89001  0.20280  0.28006  1.0000
  C   C816      1.0  0.59893  0.01945  0.32972  1.0000
  S   S272      1.0  0.50244  0.35105  0.30106  1.0000
  C   C817      1.0  0.88039  0.23769  0.26614  1.0000
  H   H789      1.0  0.60401  0.08006  0.27503  1.0000
  C   C818      1.0  0.96344  0.42330  0.32999  1.0000
  H   H790      1.0  0.92855  0.42921  0.27298  1.0000
  H   H791      1.0  0.90075  0.37150  0.29765  1.0000
  C   C819      1.0  0.59996  0.04919  0.33089  1.0000
  N   N64       1.0  0.48132  0.47426  0.39548  1.0000
  N   N65       1.0  0.60897  0.00438  0.26428  1.0000
  S   S273      1.0  0.89302  0.47102  0.29605  1.0000
  C   C820      1.0  0.48948  0.35310  0.26989  1.0000
  H   H792      1.0  0.65736  0.02982  0.26534  1.0000
  H   H793      1.0  0.91355  0.47192  0.32531  1.0000
  S   S274      1.0  0.67946  0.98579  0.27363  1.0000
  S   S275      1.0  0.64280  0.00594  0.30119  1.0000
  C   C821      1.0  0.89969  0.24461  0.24575  1.0000
  C   C822      1.0  0.58102  0.00487  0.26610  1.0000
  H   H794      1.0  0.56025  0.98403  0.26485  1.0000
  H   H795      1.0  0.53780  0.37714  0.27354  1.0000
  H   H796      1.0  0.50846  0.45639  0.29638  1.0000
  N   N66       1.0  0.57167  0.99452  0.32788  1.0000
  H   H797      1.0  0.62012  0.01645  0.33011  1.0000
  C   C823      1.0  0.57877  0.03221  0.26975  1.0000
  H   H798      1.0  0.80038  0.04535  0.23792  1.0000
  H   H799      1.0  0.57342  0.07631  0.33078  1.0000
  H   H800      1.0  0.48913  0.33046  0.27131  1.0000
  S   S276      1.0  0.48055  0.99893  0.29844  1.0000
  C   C824      1.0  0.63374  0.05806  0.27018  1.0000
  C   C825      1.0  0.94521  0.43943  0.32799  1.0000
  C   C826      1.0  0.48922  0.41086  0.26745  1.0000
  H   H801      1.0  0.91864  0.43895  0.25822  1.0000
  C   C827      1.0  0.67333  0.99165  0.36725  1.0000
  H   H802      1.0  0.89923  0.44290  0.27175  1.0000
  H   H803      1.0  0.48007  0.46804  0.43195  1.0000
  H   H804      1.0  0.48263  0.99308  0.40782  1.0000
  C   C828      1.0  0.87369  0.04300  0.22494  1.0000
  C   C829      1.0  0.94511  0.40935  0.29859  1.0000
  C   C830      1.0  0.82126  0.04481  0.23447  1.0000
  C   C831      1.0  0.82020  0.01884  0.22793  1.0000
  N   N67       1.0  0.95521  0.46979  0.33156  1.0000
  Fe  Fe137     1.0  0.95633  0.27757  0.29357  1.0000
  H   H805      1.0  0.79824  0.99952  0.22638  1.0000
  H   H806      1.0  0.90286  0.25573  0.23705  1.0000
  H   H807      1.0  0.54819  0.42820  0.54944  1.0000
  S   S277      1.0  0.90427  0.28395  0.54147  1.0000
  H   H808      1.0  0.94051  0.26686  0.60356  1.0000
  S   S278      1.0  0.91102  0.31114  0.51395  1.0000
  Fe  Fe138     1.0  0.92321  0.33040  0.53298  1.0000
  S   S279      1.0  0.91910  0.37103  0.54257  1.0000
  Fe  Fe139     1.0  0.89591  0.26417  0.52238  1.0000
  S   S280      1.0  0.85021  0.22717  0.51519  1.0000
  S   S281      1.0  0.94254  0.26326  0.52092  1.0000
  Fe  Fe140     1.0  0.65752  0.00441  0.53736  1.0000
  S   S282      1.0  0.66900  0.05488  0.54028  1.0000
  Fe  Fe141     1.0  0.67490  0.01267  0.51008  1.0000
  S   S283      1.0  0.68767  0.06384  0.51128  1.0000
  Fe  Fe142     1.0  0.71082  0.06382  0.52912  1.0000
  S   S284      1.0  0.75870  0.09743  0.53568  1.0000
  Fe  Fe143     1.0  0.64506  0.05079  0.52226  1.0000
  S   S285      1.0  0.61205  0.07284  0.51921  1.0000
  S   S286      1.0  0.70094  0.01312  0.52739  1.0000
  C   C832      1.0  0.77203  0.09457  0.49346  1.0000
  H   H809      1.0  0.95414  0.44177  0.49218  1.0000
  C   C833      1.0  0.82440  0.19221  0.52163  1.0000
  C   C834      1.0  0.83258  0.17906  0.53154  1.0000
  C   C835      1.0  0.81191  0.15043  0.53588  1.0000
  C   C836      1.0  0.78273  0.13464  0.53044  1.0000
  C   C837      1.0  0.77433  0.14804  0.52066  1.0000
  C   C838      1.0  0.79512  0.17652  0.51625  1.0000
  H   H810      1.0  0.85501  0.19072  0.53575  1.0000
  H   H811      1.0  0.81870  0.14032  0.54344  1.0000
  H   H812      1.0  0.75202  0.13624  0.51637  1.0000
  H   H813      1.0  0.78851  0.18646  0.50859  1.0000
  C   C839      1.0  0.51642  0.02308  0.53426  1.0000
  C   C840      1.0  0.53782  0.01021  0.53539  1.0000
  C   C841      1.0  0.56717  0.02524  0.53071  1.0000
  C   C842      1.0  0.57527  0.05330  0.52493  1.0000
  C   C843      1.0  0.55374  0.06600  0.52367  1.0000
  C   C844      1.0  0.52428  0.05084  0.52828  1.0000
  C   C845      1.0  0.54159  0.04705  0.56244  1.0000
  H   H814      1.0  0.58361  0.01528  0.53171  1.0000
  H   H815      1.0  0.55994  0.08770  0.51918  1.0000
  H   H816      1.0  0.50798  0.06105  0.52747  1.0000
  C   C846      1.0  0.90371  0.44450  0.52081  1.0000
  C   C847      1.0  0.89617  0.41505  0.51557  1.0000
  C   C848      1.0  0.90081  0.39226  0.52214  1.0000
  C   C849      1.0  0.91233  0.39865  0.53409  1.0000
  C   C850      1.0  0.91912  0.42786  0.53942  1.0000
  C   C851      1.0  0.91514  0.45086  0.53276  1.0000
  H   H817      1.0  0.88722  0.40999  0.50634  1.0000
  H   H818      1.0  0.89529  0.36971  0.51801  1.0000
  C   C852      1.0  0.96222  0.43586  0.50057  1.0000
  H   H819      1.0  0.59341  0.44550  0.52578  1.0000
  C   C853      1.0  0.52183  0.38729  0.52249  1.0000
  C   C854      1.0  0.55353  0.40200  0.52470  1.0000
  C   C855      1.0  0.56910  0.43424  0.52388  1.0000
  C   C856      1.0  0.55300  0.45178  0.52068  1.0000
  C   C857      1.0  0.52151  0.43693  0.51815  1.0000
  C   C858      1.0  0.50595  0.40487  0.51911  1.0000
  H   H820      1.0  0.56599  0.38845  0.52722  1.0000
  C   C859      1.0  0.78467  0.47132  0.51661  1.0000
  H   H821      1.0  0.50896  0.45039  0.51565  1.0000
  H   H822      1.0  0.93900  0.33470  0.56089  1.0000
  H   H823      1.0  0.94107  0.36107  0.49484  1.0000
  H   H824      1.0  0.56380  0.00984  0.50237  1.0000
  C   C860      1.0  0.47250  0.38975  0.55263  1.0000
  H   H825      1.0  0.48314  0.44387  0.62969  1.0000
  H   H826      1.0  0.53857  0.47903  0.62998  1.0000
  H   H827      1.0  0.82486  0.04410  0.70463  1.0000
  H   H828      1.0  0.53273  0.47059  0.54514  1.0000
  H   H829      1.0  0.73335  0.05251  0.48816  1.0000
  H   H830      1.0  0.76813  0.10805  0.48634  1.0000
  H   H831      1.0  0.67509  0.00943  0.56986  1.0000
  H   H832      1.0  0.67760  0.99826  0.62936  1.0000
  H   H833      1.0  0.91039  0.27284  0.56728  1.0000
  H   H834      1.0  0.89896  0.32128  0.56411  1.0000
  S   S287      1.0  0.50249  0.34725  0.52453  1.0000
  C   C861      1.0  0.60160  0.06671  0.55522  1.0000
  H   H835      1.0  0.92595  0.35626  0.57117  1.0000
  H   H836      1.0  0.84542  0.46602  0.52740  1.0000
  Fe  Fe144     1.0  0.95791  0.31125  0.51350  1.0000
  H   H837      1.0  0.62863  0.03194  0.56297  1.0000
  H   H838      1.0  0.51764  0.03843  0.56474  1.0000
  C   C862      1.0  0.92240  0.33258  0.56814  1.0000
  N   N68       1.0  0.58763  0.03897  0.56070  1.0000
  C   C863      1.0  0.92355  0.26604  0.58528  1.0000
  H   H839      1.0  0.76204  0.01945  0.71562  1.0000
  H   H840      1.0  0.77254  0.04586  0.53020  1.0000
  H   H841      1.0  0.53180  0.98871  0.54001  1.0000
  C   C864      1.0  0.51295  0.03832  0.49319  1.0000
  N   N69       1.0  0.92643  0.31448  0.57808  1.0000
  C   C865      1.0  0.60355  0.01862  0.56179  1.0000
  C   C866      1.0  0.58592  0.08538  0.55326  1.0000
  H   H842      1.0  0.76829  0.45192  0.52134  1.0000
  H   H843      1.0  0.70011  0.99590  0.66718  1.0000
  H   H844      1.0  0.59582  0.00354  0.56976  1.0000
  S   S288      1.0  0.63071  0.99983  0.51983  1.0000
  C   C867      1.0  0.54208  0.01147  0.50100  1.0000
  H   H845      1.0  0.92801  0.43290  0.54866  1.0000
  C   C868      1.0  0.80026  0.09093  0.51118  1.0000
  C   C869      1.0  0.55571  0.07541  0.55689  1.0000
  N   N70       1.0  0.96243  0.40737  0.50181  1.0000
  H   H846      1.0  0.91851  0.24190  0.58349  1.0000
  C   C870      1.0  0.75746  0.04669  0.50390  1.0000
  H   H847      1.0  0.74192  0.02267  0.50473  1.0000
  N   N71       1.0  0.50268  0.39507  0.55213  1.0000
  C   C871      1.0  0.82288  0.04203  0.71463  1.0000
  N   N72       1.0  0.78118  0.06041  0.51206  1.0000
  H   H848      1.0  0.80717  0.43660  0.52708  1.0000
  H   H849      1.0  0.54286  0.08904  0.55497  1.0000
  H   H850      1.0  0.94599  0.35311  0.59046  1.0000
  C   C872      1.0  0.52424  0.42391  0.54982  1.0000
  C   C873      1.0  0.94371  0.31150  0.59840  1.0000
  H   H851      1.0  0.80958  0.05080  0.52487  1.0000
  N   N73       1.0  0.80457  0.05793  0.71929  1.0000
  H   H852      1.0  0.56157  0.05336  0.49104  1.0000
  Fe  Fe145     1.0  0.95180  0.28642  0.53972  1.0000
  C   C874      1.0  0.51563  0.44805  0.54745  1.0000
  H   H853      1.0  0.77618  0.01779  0.51980  1.0000
  H   H854      1.0  0.81816  0.10223  0.51797  1.0000
  H   H855      1.0  0.59676  0.10677  0.54847  1.0000
  H   H856      1.0  0.95464  0.32294  0.60691  1.0000
  C   C875      1.0  0.93884  0.32849  0.58903  1.0000
  H   H857      1.0  0.81103  0.13275  0.50132  1.0000
  H   H858      1.0  0.51167  0.05728  0.48826  1.0000
  C   C876      1.0  0.66086  0.98676  0.58702  1.0000
  H   H859      1.0  0.51658  0.36956  0.56453  1.0000
  H   H860      1.0  0.53280  0.37280  0.54952  1.0000
  H   H861      1.0  0.84608  0.05162  0.71896  1.0000
  H   H862      1.0  0.49407  0.34737  0.55157  1.0000
  C   C877      1.0  0.78511  0.04280  0.52221  1.0000
  C   C878      1.0  0.95301  0.38498  0.49157  1.0000
  H   H863      1.0  0.62466  0.07414  0.55192  1.0000
  C   C879      1.0  0.91898  0.28371  0.57611  1.0000
  H   H864      1.0  0.54637  0.00630  0.56803  1.0000
  H   H865      1.0  0.48169  0.39381  0.51723  1.0000
  C   C880      1.0  0.79618  0.10838  0.50180  1.0000
  C   C881      1.0  0.75254  0.06350  0.49448  1.0000
  C   C882      1.0  0.51207  0.37006  0.55465  1.0000
  C   C883      1.0  0.54083  0.03598  0.49464  1.0000
  C   C884      1.0  0.93596  0.28007  0.59650  1.0000
  H   H866      1.0  0.59918  0.00371  0.55345  1.0000
  C   C885      1.0  0.55793  0.02891  0.56422  1.0000
  C   C886      1.0  0.68857  0.00052  0.64853  1.0000
  H   H867      1.0  0.67851  0.00502  0.59226  1.0000
  C   C887      1.0  0.82494  0.45360  0.52145  1.0000
  C   C888      1.0  0.69828  0.98711  0.65788  1.0000
  C   C889      1.0  0.68553  0.98833  0.63670  1.0000
  H   H868      1.0  0.68299  0.02004  0.65046  1.0000
  H   H869      1.0  0.81244  0.01725  0.71696  1.0000
  S   S289      1.0  0.68457  0.99114  0.49267  1.0000
  C   C890      1.0  0.48674  0.01627  0.49830  1.0000
  C   C891      1.0  0.77339  0.04299  0.71914  1.0000
  C   C892      1.0  0.65896  0.98937  0.57429  1.0000
  H   H870      1.0  0.93696  0.38902  0.48524  1.0000
  S   S290      1.0  0.89961  0.47320  0.51209  1.0000
  N   N74       1.0  0.81460  0.47558  0.51596  1.0000
  H   H871      1.0  0.92103  0.47352  0.53686  1.0000
  S   S291      1.0  0.48077  0.00477  0.54105  1.0000
  H   H872      1.0  0.83138  0.44083  0.51421  1.0000
  C   C893      1.0  0.49095  0.46646  0.62571  1.0000
  H   H873      1.0  0.65594  0.98661  0.69436  1.0000
  H   H874      1.0  0.96489  0.28194  0.48304  1.0000
  H   H875      1.0  0.96713  0.28628  0.68405  1.0000
  C   C894      1.0  0.48480  0.44260  0.54763  1.0000
  N   N75       1.0  0.48844  0.99299  0.50492  1.0000
  H   H876      1.0  0.47776  0.46097  0.54562  1.0000
  C   C895      1.0  0.51550  0.99005  0.50612  1.0000
  H   H877      1.0  0.48923  0.47981  0.65497  1.0000
  S   S292      1.0  0.69266  0.98244  0.71464  1.0000
  H   H878      1.0  0.90521  0.15723  0.96396  1.0000
  H   H879      1.0  0.75622  0.09951  0.73183  1.0000
  S   S293      1.0  0.82659  0.02182  0.74431  1.0000
  H   H880      1.0  0.67466  0.02893  0.85315  1.0000
  C   C896      1.0  0.91663  0.20597  0.93520  1.0000
  H   H881      1.0  0.91101  0.06972  0.96046  1.0000
  Fe  Fe146     1.0  0.77609  0.98797  0.74435  1.0000
  C   C897      1.0  0.67322  0.00760  0.84835  1.0000
  S   S294      1.0  0.90158  0.16826  0.74970  1.0000
  S   S295      1.0  0.73325  0.99536  0.74783  1.0000
  S   S296      1.0  0.95261  0.13381  0.96226  1.0000
  S   S297      1.0  0.72572  0.00402  0.96018  1.0000
  N   N76       1.0  0.69133  0.99398  0.85480  1.0000
  Fe  Fe147     1.0  0.95298  0.19861  0.74854  1.0000
  H   H882      1.0  0.81298  0.12696  0.73145  1.0000
  C   C898      1.0  0.91215  0.11544  0.96213  1.0000
  H   H883      1.0  0.85426  0.04292  0.96046  1.0000
  S   S298      1.0  0.95526  0.21725  0.96649  1.0000
  C   C899      1.0  0.89438  0.13242  0.96305  1.0000
  H   H884      1.0  0.65584  0.98704  0.90862  1.0000
  C   C900      1.0  0.86533  0.06784  0.96117  1.0000
  H   H885      1.0  0.68119  0.01365  0.83891  1.0000
  H   H886      1.0  0.84881  0.13063  0.96347  1.0000
  C   C901      1.0  0.95824  0.21190  0.92141  1.0000
  C   C902      1.0  0.89747  0.08309  0.96117  1.0000
  H   H887      1.0  0.49053  0.44454  0.88052  1.0000
  C   C903      1.0  0.75555  0.05767  0.72366  1.0000
  C   C904      1.0  0.68929  0.99148  0.86715  1.0000
  C   C905      1.0  0.84765  0.08494  0.96191  1.0000
  C   C906      1.0  0.96388  0.32281  0.83511  1.0000
  C   C907      1.0  0.84725  0.06237  0.74671  1.0000
  C   C908      1.0  0.83352  0.08145  0.75097  1.0000
  C   C909      1.0  0.85065  0.11371  0.75203  1.0000
  C   C910      1.0  0.88171  0.12730  0.74896  1.0000
  C   C911      1.0  0.89554  0.10813  0.74492  1.0000
  C   C912      1.0  0.87840  0.07593  0.74381  1.0000
  H   H888      1.0  0.80967  0.07142  0.75332  1.0000
  C   C913      1.0  0.70892  0.98250  0.84845  1.0000
  H   H889      1.0  0.91937  0.11815  0.74253  1.0000
  H   H890      1.0  0.88935  0.06141  0.74059  1.0000
  H   H891      1.0  0.90903  0.19713  0.94440  1.0000
  H   H892      1.0  0.89658  0.19718  0.92886  1.0000
  S   S299      1.0  0.80729  0.06739  0.96222  1.0000
  C   C914      1.0  0.94348  0.17179  0.93562  1.0000
  C   C915      1.0  0.86234  0.11726  0.96282  1.0000
  H   H893      1.0  0.94234  0.32582  0.83627  1.0000
  Fe  Fe148     1.0  0.77597  0.01639  0.96359  1.0000
  H   H894      1.0  0.95905  0.30131  0.82963  1.0000
  H   H895      1.0  0.92887  0.15917  0.94283  1.0000
  S   S300      1.0  0.96842  0.25000  0.74543  1.0000
  H   H896      1.0  0.83975  0.12828  0.75524  1.0000
  N   N77       1.0  0.94028  0.19655  0.93076  1.0000
  H   H897      1.0  0.64897  0.99068  0.84768  1.0000
  H   H898      1.0  0.67459  0.99966  0.87215  1.0000
  H   H899      1.0  0.92565  0.23157  0.93599  1.0000
  C   C916      1.0  0.76978  0.08803  0.72813  1.0000
  C   C917      1.0  0.80153  0.10345  0.72786  1.0000
  H   H900      1.0  0.73084  0.04536  0.72377  1.0000
  H   H901      1.0  0.70978  0.98352  0.83861  1.0000
  H   H902      1.0  0.84340  0.09993  0.72346  1.0000
  C   C918      1.0  0.81866  0.08801  0.72331  1.0000
  H   H903      1.0  0.68669  0.99021  0.80864  1.0000
  C   C919      1.0  0.47152  0.42209  0.87934  1.0000
  H   H904      1.0  0.47344  0.42219  0.85977  1.0000
  H   H905      1.0  0.95567  0.23151  0.91754  1.0000
  C   C920      1.0  0.96593  0.16257  0.93147  1.0000
  H   H906      1.0  0.96880  0.14338  0.93563  1.0000
  H   H907      1.0  0.70164  0.98121  0.78782  1.0000
  S   S301      1.0  0.96599  0.49440  0.08352  1.0000
  S   S302      1.0  0.96679  0.66950  0.19142  1.0000
  H   H908      1.0  0.67393  0.79857  0.16465  1.0000
  Fe  Fe149     1.0  0.72866  0.68074  0.98720  1.0000
  S   S303      1.0  0.72908  0.64981  0.00282  1.0000
  S   S304      1.0  0.75999  0.73128  0.98687  1.0000
  C   C921      1.0  0.77326  0.81864  0.16836  1.0000
  Fe  Fe150     1.0  0.72373  0.73601  0.97503  1.0000
  Fe  Fe151     1.0  0.93575  0.57907  0.07016  1.0000
  S   S305      1.0  0.90597  0.52949  0.07430  1.0000
  C   C922      1.0  0.76205  0.87700  0.97617  1.0000
  S   S306      1.0  0.93180  0.54550  0.10274  1.0000
  Fe  Fe152     1.0  0.94591  0.53021  0.08524  1.0000
  C   C923      1.0  0.86786  0.63737  0.16765  1.0000
  Fe  Fe153     1.0  0.89406  0.54860  0.09129  1.0000
  S   S307      1.0  0.84691  0.53297  0.09898  1.0000
  S   S308      1.0  0.92029  0.59792  0.08648  1.0000
  H   H909      1.0  0.69291  0.81800  0.15114  1.0000
  H   H910      1.0  0.96257  0.59105  0.15031  1.0000
  H   H911      1.0  0.69607  0.90044  0.99407  1.0000
  H   H912      1.0  0.58459  0.52635  0.05500  1.0000
  S   S309      1.0  0.76954  0.95883  0.20247  1.0000
  H   H913      1.0  0.74695  0.60548  0.10234  1.0000
  S   S310      1.0  0.75268  0.95548  0.17294  1.0000
  H   H914      1.0  0.78586  0.78018  0.16944  1.0000
  Fe  Fe154     1.0  0.73168  0.92866  0.18962  1.0000
  S   S311      1.0  0.70968  0.87587  0.18867  1.0000
  S   S312      1.0  0.70213  0.95473  0.19330  1.0000
  Fe  Fe155     1.0  0.72291  0.68089  0.17603  1.0000
  S   S313      1.0  0.77171  0.71424  0.17976  1.0000
  S   S314      1.0  0.70435  0.67788  0.15656  1.0000
  Fe  Fe156     1.0  0.71136  0.66822  0.20349  1.0000
  S   S315      1.0  0.75898  0.70097  0.20886  1.0000
  Fe  Fe157     1.0  0.75310  0.73277  0.19517  1.0000
  S   S316      1.0  0.77308  0.78443  0.19950  1.0000
  Fe  Fe158     1.0  0.77293  0.67957  0.19301  1.0000
  S   S317      1.0  0.80926  0.66153  0.19564  1.0000
  S   S318      1.0  0.70421  0.70169  0.19083  1.0000
  S   S319      1.0  0.72541  0.64464  0.18828  1.0000
  Fe  Fe159     1.0  0.67243  0.59187  0.06800  1.0000
  S   S320      1.0  0.66941  0.54760  0.05963  1.0000
  S   S321      1.0  0.66999  0.62861  0.05554  1.0000
  Fe  Fe160     1.0  0.67943  0.57163  0.09387  1.0000
  S   S322      1.0  0.67682  0.52549  0.08678  1.0000
  S   S323      1.0  0.69070  0.57769  0.11436  1.0000
  Fe  Fe161     1.0  0.70805  0.55295  0.07233  1.0000
  S   S324      1.0  0.74894  0.54841  0.06418  1.0000
  Fe  Fe162     1.0  0.63790  0.52391  0.07479  1.0000
  H   H915      1.0  0.68583  0.81000  0.18953  1.0000
  S   S325      1.0  0.71320  0.59895  0.07990  1.0000
  S   S326      1.0  0.63824  0.56831  0.08260  1.0000
  C   C924      1.0  0.69497  0.60643  0.12579  1.0000
  C   C925      1.0  0.70468  0.60291  0.13757  1.0000
  C   C926      1.0  0.70803  0.62467  0.14703  1.0000
  C   C927      1.0  0.70149  0.65022  0.14486  1.0000
  C   C928      1.0  0.69197  0.65386  0.13306  1.0000
  C   C929      1.0  0.68885  0.63221  0.12356  1.0000
  H   H916      1.0  0.70930  0.58299  0.13943  1.0000
  H   H917      1.0  0.71520  0.62141  0.15604  1.0000
  H   H918      1.0  0.68678  0.67347  0.13126  1.0000
  H   H919      1.0  0.68131  0.63525  0.11459  1.0000
  H   H920      1.0  0.85477  0.60197  0.08862  1.0000
  C   C930      1.0  0.75452  0.80938  0.19719  1.0000
  C   C931      1.0  0.72344  0.79814  0.19409  1.0000
  C   C932      1.0  0.70986  0.81887  0.19195  1.0000
  C   C933      1.0  0.72724  0.85096  0.19268  1.0000
  C   C934      1.0  0.75823  0.86217  0.19592  1.0000
  C   C935      1.0  0.77171  0.84145  0.19825  1.0000
  H   H921      1.0  0.70993  0.77355  0.19324  1.0000
  H   H922      1.0  0.70021  0.83802  0.16578  1.0000
  H   H923      1.0  0.77185  0.88679  0.19651  1.0000
  H   H924      1.0  0.79575  0.85036  0.20067  1.0000
  H   H925      1.0  0.73410  0.74148  0.16329  1.0000
  H   H926      1.0  0.74559  0.92941  0.02119  1.0000
  H   H927      1.0  0.63548  0.52230  0.02371  1.0000
  C   C936      1.0  0.83955  0.61423  0.08763  1.0000
  C   C937      1.0  0.90149  0.50832  0.04319  1.0000
  H   H928      1.0  0.89411  0.67840  0.99908  1.0000
  H   H929      1.0  0.86718  0.63005  0.01021  1.0000
  C   C938      1.0  0.81863  0.53393  0.08891  1.0000
  N   N78       1.0  0.72062  0.80594  0.16324  1.0000
  C   C939      1.0  0.79842  0.58488  0.11656  1.0000
  C   C940      1.0  0.77486  0.54149  0.07373  1.0000
  C   C941      1.0  0.76789  0.53286  0.08577  1.0000
  C   C942      1.0  0.78961  0.52862  0.09329  1.0000
  C   C943      1.0  0.82065  0.59335  0.10760  1.0000
  C   C944      1.0  0.63926  0.94290  0.12628  1.0000
  H   H930      1.0  0.74583  0.52952  0.08927  1.0000
  H   H931      1.0  0.78422  0.52209  0.10261  1.0000
  C   C945      1.0  0.90981  0.71919  0.18806  1.0000
  C   C946      1.0  0.90011  0.68965  0.19267  1.0000
  C   C947      1.0  0.86909  0.67204  0.19464  1.0000
  C   C948      1.0  0.84753  0.68414  0.19235  1.0000
  C   C949      1.0  0.85708  0.71388  0.18787  1.0000
  C   C950      1.0  0.88821  0.73131  0.18565  1.0000
  H   H932      1.0  0.91634  0.68021  0.19479  1.0000
  H   H933      1.0  0.82893  0.60816  0.07836  1.0000
  H   H934      1.0  0.84052  0.72339  0.18611  1.0000
  H   H935      1.0  0.89557  0.75422  0.18209  1.0000
  S   S327      1.0  0.67622  0.64160  0.21754  1.0000
  N   N79       1.0  0.70353  0.92092  0.01193  1.0000
  H   H936      1.0  0.85361  0.63944  0.08837  1.0000
  C   C951      1.0  0.71268  0.64492  0.01748  1.0000
  C   C952      1.0  0.69677  0.66198  0.02171  1.0000
  C   C953      1.0  0.68436  0.65720  0.03346  1.0000
  C   C954      1.0  0.68760  0.63530  0.04109  1.0000
  C   C955      1.0  0.70347  0.61825  0.03684  1.0000
  C   C956      1.0  0.71592  0.62307  0.02512  1.0000
  H   H937      1.0  0.69411  0.67890  0.01595  1.0000
  H   H938      1.0  0.67211  0.67051  0.03664  1.0000
  H   H939      1.0  0.70615  0.60129  0.04256  1.0000
  H   H940      1.0  0.72811  0.60969  0.02197  1.0000
  C   C957      1.0  0.72251  0.92783  0.02196  1.0000
  H   H941      1.0  0.66049  0.91655  0.00471  1.0000
  C   C958      1.0  0.67487  0.92025  0.01280  1.0000
  H   H942      1.0  0.59791  0.58165  0.06268  1.0000
  H   H943      1.0  0.73259  0.90753  0.00075  1.0000
  C   C959      1.0  0.76774  0.78750  0.16740  1.0000
  H   H944      1.0  0.72482  0.93941  0.99551  1.0000
  C   C960      1.0  0.73861  0.76575  0.16410  1.0000
  C   C961      1.0  0.78990  0.60949  0.09495  1.0000
  C   C962      1.0  0.82537  0.54201  0.07682  1.0000
  N   N80       1.0  0.81599  0.60507  0.09689  1.0000
  C   C963      1.0  0.71485  0.91684  0.00000  1.0000
  H   H945      1.0  0.78602  0.61853  0.08643  1.0000
  H   H946      1.0  0.95682  0.49565  0.11102  1.0000
  Fe  Fe163     1.0  0.96288  0.68634  0.97432  1.0000
  H   H947      1.0  0.82426  0.72297  0.99505  1.0000
  C   C964      1.0  0.72752  0.81257  0.97711  1.0000
  H   H948      1.0  0.62433  0.60499  0.03299  1.0000
  C   C965      1.0  0.59745  0.53732  0.04708  1.0000
  C   C966      1.0  0.85550  0.64466  0.00807  1.0000
  H   H949      1.0  0.92503  0.76110  0.21072  1.0000
  C   C967      1.0  0.75941  0.82458  0.97684  1.0000
  H   H950      1.0  0.71866  0.88015  0.97622  1.0000
  H   H951      1.0  0.96151  0.69226  0.14827  1.0000
  H   H952      1.0  0.79205  0.68753  0.99119  1.0000
  C   C968      1.0  0.80886  0.70013  0.99853  1.0000
  H   H953      1.0  0.93714  0.63478  0.16514  1.0000
  H   H954      1.0  0.91242  0.70961  0.15875  1.0000
  S   S328      1.0  0.93015  0.59303  0.05078  1.0000
  C   C969      1.0  0.66432  0.92601  0.02397  1.0000
  C   C970      1.0  0.71273  0.93385  0.03327  1.0000
  C   C971      1.0  0.68345  0.93295  0.03425  1.0000
  H   H955      1.0  0.64200  0.92653  0.02453  1.0000
  H   H956      1.0  0.72806  0.94024  0.04115  1.0000
  H   H957      1.0  0.67610  0.93889  0.04287  1.0000
  N   N81       1.0  0.92779  0.67407  0.16165  1.0000
  S   S329      1.0  0.91093  0.66596  0.97340  1.0000
  C   C972      1.0  0.92000  0.64417  0.16483  1.0000
  H   H958      1.0  0.60293  0.60976  0.05153  1.0000
  C   C973      1.0  0.89002  0.62548  0.16800  1.0000
  H   H959      1.0  0.64528  0.57676  0.01947  1.0000
  H   H960      1.0  0.89098  0.48888  0.04944  1.0000
  N   N82       1.0  0.60344  0.56737  0.04481  1.0000
  H   H961      1.0  0.56691  0.57621  0.05200  1.0000
  C   C974      1.0  0.62594  0.53474  0.02948  1.0000
  H   H962      1.0  0.79619  0.70406  0.00632  1.0000
  C   C975      1.0  0.60858  0.52053  0.03947  1.0000
  C   C976      1.0  0.63137  0.56521  0.02708  1.0000
  C   C977      1.0  0.69571  0.81559  0.16103  1.0000
  C   C978      1.0  0.95921  0.69335  0.15828  1.0000
  C   C979      1.0  0.73018  0.86492  0.97643  1.0000
  H   H963      1.0  0.62056  0.92031  0.12826  1.0000
  S   S330      1.0  0.94863  0.74107  0.18512  1.0000
  H   H964      1.0  0.78647  0.64797  0.01048  1.0000
  C   C980      1.0  0.62032  0.95642  0.10755  1.0000
  H   H965      1.0  0.66450  0.70742  0.22057  1.0000
  H   H966      1.0  0.84465  0.62345  0.17035  1.0000
  H   H967      1.0  0.84766  0.54610  0.07337  1.0000
  C   C981      1.0  0.94979  0.51151  0.05233  1.0000
  H   H968      1.0  0.86720  0.71128  0.99410  1.0000
  C   C982      1.0  0.87073  0.67195  0.00192  1.0000
  H   H969      1.0  0.95744  0.58850  0.12775  1.0000
  C   C983      1.0  0.90614  0.68578  0.16111  1.0000
  H   H970      1.0  0.86183  0.64909  0.19815  1.0000
  H   H971      1.0  0.89293  0.49974  0.03382  1.0000
  H   H972      1.0  0.79566  0.83563  0.17119  1.0000
  C   C984      1.0  0.87586  0.66762  0.16408  1.0000
  C   C985      1.0  0.94546  0.61953  0.02848  1.0000
  N   N83       1.0  0.91075  0.71886  0.22022  1.0000
  H   H973      1.0  0.75404  0.58265  0.12142  1.0000
  H   H974      1.0  0.74669  0.75417  0.22274  1.0000
  N   N84       1.0  0.62709  0.96203  0.11971  1.0000
  H   H975      1.0  0.92106  0.60996  0.02674  1.0000
  H   H976      1.0  0.69258  0.75822  0.15950  1.0000
  C   C986      1.0  0.80340  0.54548  0.06922  1.0000
  C   C987      1.0  0.71519  0.77542  0.16199  1.0000
  C   C988      1.0  0.77172  0.58923  0.11464  1.0000
  N   N85       1.0  0.93495  0.52103  0.04373  1.0000
  C   C989      1.0  0.81030  0.65499  0.00818  1.0000
  H   H977      1.0  0.80879  0.55202  0.05989  1.0000
  C   C990      1.0  0.76757  0.60188  0.10383  1.0000
  C   C991      1.0  0.85533  0.69043  0.99910  1.0000
  H   H978      1.0  0.80170  0.57458  0.12485  1.0000
  C   C992      1.0  0.61953  0.58114  0.03480  1.0000
  Fe  Fe164     1.0  0.95903  0.59387  0.09688  1.0000
  H   H979      1.0  0.84114  0.58943  0.10908  1.0000
  C   C993      1.0  0.59204  0.58454  0.05312  1.0000
  H   H980      1.0  0.85894  0.67729  0.16406  1.0000
  H   H981      1.0  0.77082  0.80913  0.97690  1.0000
  C   C994      1.0  0.74933  0.82755  0.16616  1.0000
  H   H982      1.0  0.75361  0.85174  0.16724  1.0000
  H   H983      1.0  0.62544  0.93913  0.10266  1.0000
  C   C995      1.0  0.82511  0.63613  0.01128  1.0000
  H   H984      1.0  0.88415  0.60206  0.17082  1.0000
  H   H985      1.0  0.81296  0.61489  0.01601  1.0000
  H   H986      1.0  0.95641  0.63861  0.01056  1.0000
  H   H987      1.0  0.65681  0.93910  0.12080  1.0000
  N   N86       1.0  0.82546  0.68175  0.00219  1.0000
  C   C996      1.0  0.60721  0.97324  0.10118  1.0000
  S   S331      1.0  0.69069  0.68605  0.97663  1.0000
  H   H988      1.0  0.71337  0.74162  0.21322  1.0000
  H   H989      1.0  0.93707  0.49415  0.05877  1.0000
  C   C997      1.0  0.95669  0.61542  0.03987  1.0000
  H   H990      1.0  0.65075  0.95428  0.13500  1.0000
  C   C998      1.0  0.88060  0.71395  0.21995  1.0000
  S   S332      1.0  0.78436  0.91716  0.97538  1.0000
  C   C999      1.0  0.95118  0.54318  0.03575  1.0000
  H   H991      1.0  0.87377  0.73186  0.21703  1.0000
  C   C1000     1.0  0.77660  0.85671  0.97647  1.0000
  H   H992      1.0  0.89373  0.52662  0.04584  1.0000
  S   S333      1.0  0.70468  0.77244  0.97671  1.0000
  H   H993      1.0  0.68838  0.82376  0.97716  1.0000
  C   C1001     1.0  0.93421  0.74904  0.21711  1.0000
  H   H994      1.0  0.80127  0.86586  0.97632  1.0000
  C   C1002     1.0  0.71304  0.83291  0.97701  1.0000
  H   H995      1.0  0.60180  0.96872  0.09154  1.0000
  H   H996      1.0  0.95331  0.74642  0.21234  1.0000
  H   H997      1.0  0.60450  0.49698  0.04156  1.0000
  C   C1003     1.0  0.72209  0.74977  0.22261  1.0000
  H   H998      1.0  0.83397  0.68093  0.22202  1.0000
  H   H999      1.0  0.72490  0.96918  0.12413  1.0000
  C   C1004     1.0  0.96546  0.63578  0.01927  1.0000
  H   H1000     1.0  0.93941  0.55144  0.02920  1.0000
  H   H1001     1.0  0.72613  0.97157  0.14672  1.0000
  Fe  Fe165     1.0  0.71952  0.97873  0.97775  1.0000
  H   H1002     1.0  0.82644  0.96948  0.21962  1.0000
  H   H1003     1.0  0.96593  0.71771  0.16140  1.0000
  S   S334      1.0  0.68645  0.97959  0.99233  1.0000
  C   C1005     1.0  0.85795  0.68522  0.22285  1.0000
  H   H1004     1.0  0.74817  0.50396  0.28161  1.0000
  C   C1006     1.0  0.75396  0.57462  0.27619  1.0000
  Fe  Fe166     1.0  0.66165  0.58004  0.31433  1.0000
  S   S335      1.0  0.64776  0.52905  0.31508  1.0000
  S   S336      1.0  0.66305  0.61138  0.33047  1.0000
  Fe  Fe167     1.0  0.67611  0.58188  0.28666  1.0000
  S   S337      1.0  0.66254  0.53057  0.28564  1.0000
  S   S338      1.0  0.70390  0.61511  0.27210  1.0000
  Fe  Fe168     1.0  0.62285  0.52659  0.29740  1.0000
  H   H1005     1.0  0.68246  0.87981  0.39898  1.0000
  Fe  Fe169     1.0  0.68871  0.53784  0.30339  1.0000
  S   S339      1.0  0.72209  0.51603  0.30670  1.0000
  S   S340      1.0  0.63469  0.57780  0.29720  1.0000
  S   S341      1.0  0.70421  0.58894  0.30391  1.0000
  H   H1006     1.0  0.71426  0.70392  0.25970  1.0000
  S   S342      1.0  0.90662  0.55694  0.28932  1.0000
  H   H1007     1.0  0.71342  0.58540  0.33251  1.0000
  C   C1007     1.0  0.56162  0.56198  0.45932  1.0000
  S   S343      1.0  0.90572  0.53974  0.31838  1.0000
  Fe  Fe170     1.0  0.91548  0.52228  0.30053  1.0000
  H   H1008     1.0  0.94827  0.50440  0.32194  1.0000
  Fe  Fe171     1.0  0.90123  0.57697  0.30738  1.0000
  S   S344      1.0  0.86536  0.59624  0.30981  1.0000
  H   H1009     1.0  0.52092  0.49046  0.40706  1.0000
  C   C1008     1.0  0.65159  0.77046  0.43966  1.0000
  S   S345      1.0  0.59709  0.92726  0.44646  1.0000
  Fe  Fe172     1.0  0.60074  0.59480  0.39959  1.0000
  S   S346      1.0  0.55545  0.59616  0.40380  1.0000
  S   S347      1.0  0.60522  0.56874  0.38244  1.0000
  Fe  Fe173     1.0  0.62437  0.61449  0.42621  1.0000
  S   S348      1.0  0.58118  0.61751  0.43192  1.0000
  S   S349      1.0  0.66191  0.61855  0.43981  1.0000
  Fe  Fe174     1.0  0.55725  0.57321  0.42122  1.0000
  S   S350      1.0  0.52444  0.52970  0.42986  1.0000
  Fe  Fe175     1.0  0.58367  0.64093  0.41408  1.0000
  S   S351      1.0  0.56809  0.68032  0.41426  1.0000
  S   S352      1.0  0.60046  0.56896  0.41649  1.0000
  S   S353      1.0  0.62910  0.64097  0.40891  1.0000
  Fe  Fe176     1.0  0.62672  0.92362  0.40113  1.0000
  S   S354      1.0  0.59986  0.87455  0.39481  1.0000
  C   C1009     1.0  0.94663  0.62174  0.24626  1.0000
  Fe  Fe177     1.0  0.60566  0.91007  0.42782  1.0000
  S   S355      1.0  0.57756  0.85973  0.42315  1.0000
  H   H1010     1.0  0.83950  0.59337  0.28117  1.0000
  Fe  Fe178     1.0  0.61701  0.86139  0.41197  1.0000
  S   S356      1.0  0.63885  0.82671  0.41159  1.0000
  Fe  Fe179     1.0  0.56278  0.87701  0.40654  1.0000
  S   S357      1.0  0.51349  0.85757  0.40010  1.0000
  S   S358      1.0  0.64663  0.91078  0.41776  1.0000
  S   S359      1.0  0.58830  0.92699  0.41165  1.0000
  C   C1010     1.0  0.95187  0.61365  0.25807  1.0000
  C   C1011     1.0  0.56207  0.51195  0.32705  1.0000
  C   C1012     1.0  0.65270  0.94957  0.45943  1.0000
  H   H1011     1.0  0.66185  0.94165  0.45181  1.0000
  C   C1013     1.0  0.65633  0.61386  0.45570  1.0000
  C   C1014     1.0  0.63625  0.62353  0.46179  1.0000
  H   H1012     1.0  0.70015  0.94296  0.37019  1.0000
  H   H1013     1.0  0.62255  0.63262  0.45673  1.0000
  C   C1015     1.0  0.52268  0.90459  0.45676  1.0000
  C   C1016     1.0  0.58810  0.72072  0.41240  1.0000
  C   C1017     1.0  0.57192  0.73946  0.41356  1.0000
  C   C1018     1.0  0.58699  0.77184  0.41306  1.0000
  C   C1019     1.0  0.61851  0.78591  0.41139  1.0000
  C   C1020     1.0  0.63467  0.76718  0.41002  1.0000
  C   C1021     1.0  0.61958  0.73475  0.41052  1.0000
  H   H1014     1.0  0.54757  0.72886  0.41500  1.0000
  H   H1015     1.0  0.57423  0.78589  0.41410  1.0000
  H   H1016     1.0  0.65906  0.77783  0.40869  1.0000
  H   H1017     1.0  0.63231  0.72065  0.40959  1.0000
  H   H1018     1.0  0.76716  0.62380  0.27670  1.0000
  H   H1019     1.0  0.54095  0.90043  0.46169  1.0000
  C   C1022     1.0  0.89719  0.66701  0.22664  1.0000
  H   H1020     1.0  0.76445  0.62039  0.33868  1.0000
  H   H1021     1.0  0.55894  0.49245  0.32102  1.0000
  H   H1022     1.0  0.72993  0.56955  0.27484  1.0000
  H   H1023     1.0  0.57972  0.95741  0.33501  1.0000
  C   C1023     1.0  0.61365  0.70820  0.44049  1.0000
  H   H1024     1.0  0.64104  0.67112  0.44061  1.0000
  H   H1025     1.0  0.84898  0.63893  0.22803  1.0000
  C   C1024     1.0  0.62845  0.94489  0.35343  1.0000
  C   C1025     1.0  0.62999  0.94227  0.36614  1.0000
  H   H1026     1.0  0.91169  0.49675  0.26769  1.0000
  H   H1027     1.0  0.71849  0.51652  0.27930  1.0000
  C   C1026     1.0  0.65259  0.96559  0.37313  1.0000
  H   H1028     1.0  0.61398  0.92201  0.37051  1.0000
  H   H1029     1.0  0.73858  0.51096  0.26629  1.0000
  C   C1027     1.0  0.64879  0.59948  0.34518  1.0000
  C   C1028     1.0  0.63918  0.56890  0.34868  1.0000
  C   C1029     1.0  0.62685  0.56021  0.36028  1.0000
  C   C1030     1.0  0.62377  0.58186  0.36848  1.0000
  C   C1031     1.0  0.63384  0.61254  0.36504  1.0000
  C   C1032     1.0  0.64636  0.62128  0.35346  1.0000
  H   H1030     1.0  0.64088  0.55186  0.34243  1.0000
  H   H1031     1.0  0.61919  0.53643  0.36287  1.0000
  H   H1032     1.0  0.63163  0.62944  0.37123  1.0000
  H   H1033     1.0  0.65388  0.64505  0.35087  1.0000
  C   C1033     1.0  0.76195  0.53850  0.30708  1.0000
  C   C1034     1.0  0.78200  0.52375  0.30712  1.0000
  C   C1035     1.0  0.81386  0.54109  0.30776  1.0000
  C   C1036     1.0  0.82578  0.57330  0.30854  1.0000
  C   C1037     1.0  0.80572  0.58798  0.30851  1.0000
  C   C1038     1.0  0.77399  0.57070  0.30768  1.0000
  C   C1039     1.0  0.49952  0.83689  0.43507  1.0000
  H   H1034     1.0  0.82916  0.52956  0.30783  1.0000
  H   H1035     1.0  0.81482  0.61290  0.30913  1.0000
  H   H1036     1.0  0.75898  0.58240  0.30774  1.0000
  H   H1037     1.0  0.51041  0.82535  0.42951  1.0000
  H   H1038     1.0  0.61110  0.92652  0.34811  1.0000
  H   H1039     1.0  0.70735  0.56167  0.34564  1.0000
  C   C1040     1.0  0.68478  0.63212  0.23228  1.0000
  C   C1041     1.0  0.71431  0.64554  0.23738  1.0000
  C   C1042     1.0  0.71969  0.63967  0.24950  1.0000
  C   C1043     1.0  0.69577  0.62003  0.25666  1.0000
  C   C1044     1.0  0.66633  0.60612  0.25150  1.0000
  C   C1045     1.0  0.66088  0.61228  0.23941  1.0000
  H   H1040     1.0  0.73290  0.66089  0.23205  1.0000
  H   H1041     1.0  0.74255  0.65058  0.25338  1.0000
  H   H1042     1.0  0.64766  0.59100  0.25687  1.0000
  H   H1043     1.0  0.63794  0.60181  0.23557  1.0000
  H   H1044     1.0  0.82248  0.63604  0.27995  1.0000
  H   H1045     1.0  0.57393  0.58193  0.34817  1.0000
  H   H1046     1.0  0.83503  0.58697  0.33819  1.0000
  H   H1047     1.0  0.56749  0.60159  0.32181  1.0000
  Fe  Fe180     1.0  0.95665  0.58679  0.29210  1.0000
  H   H1048     1.0  0.48373  0.55355  0.41849  1.0000
  C   C1046     1.0  0.58327  0.54996  0.45730  1.0000
  Fe  Fe181     1.0  0.95617  0.57002  0.31938  1.0000
  H   H1049     1.0  0.79528  0.53329  0.33635  1.0000
  C   C1047     1.0  0.61076  0.95608  0.46911  1.0000
  H   H1050     1.0  0.74269  0.74174  0.24426  1.0000
  H   H1051     1.0  0.66644  0.79474  0.43890  1.0000
  H   H1052     1.0  0.67815  0.70055  0.44372  1.0000
  H   H1053     1.0  0.66439  0.90171  0.35661  1.0000
  C   C1048     1.0  0.55592  0.50762  0.33940  1.0000
  C   C1049     1.0  0.74114  0.51909  0.27593  1.0000
  C   C1050     1.0  0.66338  0.74803  0.43882  1.0000
  N   N87       1.0  0.74943  0.57158  0.33693  1.0000
  C   C1051     1.0  0.77112  0.60119  0.33824  1.0000
  C   C1052     1.0  0.75780  0.54732  0.33656  1.0000
  C   C1053     1.0  0.80220  0.60717  0.33881  1.0000
  C   C1054     1.0  0.78866  0.55248  0.33713  1.0000
  C   C1055     1.0  0.81096  0.58262  0.33819  1.0000
  C   C1056     1.0  0.71697  0.56566  0.33638  1.0000
  H   H1054     1.0  0.70396  0.54511  0.33043  1.0000
  H   H1055     1.0  0.74064  0.52385  0.33537  1.0000
  H   H1056     1.0  0.50931  0.91084  0.46364  1.0000
  H   H1057     1.0  0.58971  0.54706  0.44808  1.0000
  H   H1058     1.0  0.57700  0.54477  0.31286  1.0000
  H   H1059     1.0  0.90408  0.64878  0.22910  1.0000
  C   C1057     1.0  0.70537  0.97706  0.23909  1.0000
  C   C1058     1.0  0.51205  0.49730  0.39877  1.0000
  S   S360      1.0  0.95122  0.60913  0.30969  1.0000
  H   H1060     1.0  0.70393  0.93777  0.40248  1.0000
  H   H1061     1.0  0.49182  0.92165  0.43075  1.0000
  H   H1062     1.0  0.51219  0.52030  0.40094  1.0000
  H   H1063     1.0  0.69977  0.95872  0.23228  1.0000
  H   H1064     1.0  0.59837  0.68393  0.44031  1.0000
  H   H1065     1.0  0.53395  0.92446  0.45076  1.0000
  H   H1066     1.0  0.50662  0.94035  0.39889  1.0000
  C   C1059     1.0  0.67399  0.60217  0.46250  1.0000
  C   C1060     1.0  0.50177  0.89412  0.41714  1.0000
  C   C1061     1.0  0.60113  0.73001  0.44143  1.0000
  C   C1062     1.0  0.64924  0.97092  0.34754  1.0000
  S   S361      1.0  0.57197  0.49631  0.29482  1.0000
  H   H1067     1.0  0.95781  0.48550  0.29896  1.0000
  H   H1068     1.0  0.61389  0.53318  0.46563  1.0000
  C   C1063     1.0  0.67139  0.96357  0.46977  1.0000
  H   H1069     1.0  0.58728  0.95330  0.46894  1.0000
  C   C1064     1.0  0.69131  0.97108  0.25051  1.0000
  C   C1065     1.0  0.71903  0.72626  0.24243  1.0000
  C   C1066     1.0  0.95726  0.53184  0.26980  1.0000
  H   H1070     1.0  0.64685  0.83773  0.38561  1.0000
  H   H1071     1.0  0.68981  0.59493  0.45789  1.0000
  C   C1067     1.0  0.93560  0.50127  0.26892  1.0000
  H   H1072     1.0  0.95033  0.55080  0.26911  1.0000
  C   C1068     1.0  0.58732  0.59735  0.32508  1.0000
  C   C1069     1.0  0.81555  0.58833  0.27950  1.0000
  H   H1073     1.0  0.69488  0.96629  0.46998  1.0000
  H   H1074     1.0  0.96804  0.65228  0.47066  1.0000
  C   C1070     1.0  0.65731  0.69437  0.43789  1.0000
  C   C1071     1.0  0.48555  0.51249  0.42558  1.0000
  H   H1075     1.0  0.77289  0.49882  0.30672  1.0000
  C   C1072     1.0  0.48399  0.93509  0.39513  1.0000
  H   H1076     1.0  0.80144  0.53929  0.27927  1.0000
  N   N88       1.0  0.76347  0.55126  0.27706  1.0000
  H   H1077     1.0  0.52579  0.90331  0.41953  1.0000
  H   H1078     1.0  0.81944  0.63068  0.33952  1.0000
  C   C1073     1.0  0.67265  0.68512  0.24895  1.0000
  H   H1079     1.0  0.60312  0.60004  0.31745  1.0000
  N   N89       1.0  0.64446  0.71736  0.43932  1.0000
  H   H1080     1.0  0.93286  0.59990  0.26358  1.0000
  H   H1081     1.0  0.55576  0.53001  0.35667  1.0000
  C   C1074     1.0  0.79386  0.55776  0.27850  1.0000
  H   H1082     1.0  0.63730  0.84858  0.36431  1.0000
  N   N90       1.0  0.69334  0.91381  0.38537  1.0000
  C   C1075     1.0  0.68886  0.91980  0.37357  1.0000
  C   C1076     1.0  0.67887  0.88464  0.38963  1.0000
  C   C1077     1.0  0.66864  0.89650  0.36582  1.0000
  C   C1078     1.0  0.65874  0.86070  0.38209  1.0000
  C   C1079     1.0  0.65341  0.86679  0.37015  1.0000
  H   H1083     1.0  0.63545  0.66980  0.23581  1.0000
  C   C1080     1.0  0.70304  0.70523  0.25126  1.0000
  H   H1084     1.0  0.57658  0.72253  0.44188  1.0000
  H   H1085     1.0  0.67492  0.94801  0.25238  1.0000
  C   C1081     1.0  0.59680  0.54215  0.46726  1.0000
  N   N91       1.0  0.70520  0.72696  0.23157  1.0000
  S   S362      1.0  0.65725  0.96227  0.38904  1.0000
  N   N92       1.0  0.57686  0.56644  0.33005  1.0000
  H   H1086     1.0  0.60055  0.61538  0.33204  1.0000
  H   H1087     1.0  0.66032  0.66796  0.25553  1.0000
  C   C1082     1.0  0.57027  0.56231  0.34213  1.0000
  C   C1083     1.0  0.77500  0.60543  0.27718  1.0000
  H   H1088     1.0  0.68768  0.75526  0.43756  1.0000
  C   C1084     1.0  0.62025  0.76132  0.44097  1.0000
  C   C1085     1.0  0.48979  0.87139  0.40795  1.0000
  C   C1086     1.0  0.67533  0.70745  0.22928  1.0000
  C   C1087     1.0  0.51702  0.86184  0.44280  1.0000
  H   H1089     1.0  0.92347  0.61390  0.24277  1.0000
  H   H1090     1.0  0.72005  0.77188  0.22448  1.0000
  C   C1088     1.0  0.48248  0.90447  0.42349  1.0000
  C   C1089     1.0  0.62218  0.94563  0.45906  1.0000
  H   H1091     1.0  0.94331  0.76355  0.22548  1.0000
  H   H1092     1.0  0.66318  0.69266  0.42825  1.0000
  C   C1090     1.0  0.47338  0.91436  0.38519  1.0000
  C   C1091     1.0  0.80596  0.61227  0.27892  1.0000
  C   C1092     1.0  0.86636  0.66157  0.22612  1.0000
  C   C1093     1.0  0.55988  0.53291  0.34700  1.0000
  H   H1093     1.0  0.73616  0.93586  0.39462  1.0000
  H   H1094     1.0  0.55093  0.56803  0.45166  1.0000
  H   H1095     1.0  0.48753  0.90352  0.38146  1.0000
  H   H1096     1.0  0.61070  0.77842  0.44116  1.0000
  H   H1097     1.0  0.54162  0.86932  0.44329  1.0000
  H   H1098     1.0  0.58725  0.96369  0.31908  1.0000
  C   C1094     1.0  0.71437  0.93844  0.39346  1.0000
  C   C1095     1.0  0.57242  0.54168  0.32249  1.0000
  N   N93       1.0  0.50348  0.87730  0.44939  1.0000
  H   H1099     1.0  0.71918  0.96165  0.38989  1.0000
  C   C1096     1.0  0.65863  0.68625  0.23792  1.0000
  C   C1097     1.0  0.57156  0.96377  0.32644  1.0000
  C   C1098     1.0  0.93678  0.48705  0.32888  1.0000
  H   H1100     1.0  0.94316  0.69988  0.22402  1.0000
  H   H1101     1.0  0.93435  0.49950  0.33720  1.0000
  H   H1102     1.0  0.61353  0.96353  0.26898  1.0000
  S   S363      1.0  0.64644  0.97241  0.33144  1.0000
  H   H1103     1.0  0.59041  0.95980  0.25541  1.0000
  H   H1104     1.0  0.96301  0.58344  0.46071  1.0000
  H   H1105     1.0  0.54820  0.48471  0.34306  1.0000
  H   H1106     1.0  0.52794  0.49989  0.39119  1.0000
  H   H1107     1.0  0.54851  0.94580  0.32404  1.0000
  C   C1099     1.0  0.55390  0.56624  0.47119  1.0000
  C   C1100     1.0  0.47676  0.96917  0.41076  1.0000
  C   C1101     1.0  0.47259  0.86866  0.44849  1.0000
  H   H1108     1.0  0.49715  0.96806  0.41521  1.0000
  S   S364      1.0  0.96585  0.55026  0.30192  1.0000
  C   C1102     1.0  0.61094  0.97539  0.26073  1.0000
  H   H1109     1.0  0.53727  0.57580  0.47283  1.0000
  S   S365      1.0  0.96279  0.64911  0.22412  1.0000
  C   C1103     1.0  0.47104  0.52926  0.42010  1.0000
  C   C1104     1.0  0.91924  0.69601  0.22370  1.0000
  H   H1110     1.0  0.63109  0.97974  0.25495  1.0000
  H   H1111     1.0  0.52327  0.97868  0.32566  1.0000
  C   C1105     1.0  0.70394  0.56677  0.57137  1.0000
  S   S366      1.0  0.63331  0.96720  0.55120  1.0000
  Fe  Fe182     1.0  0.61274  0.61930  0.65504  1.0000
  S   S367      1.0  0.57990  0.64168  0.65648  1.0000
  S   S368      1.0  0.64155  0.61390  0.67077  1.0000
  Fe  Fe183     1.0  0.60307  0.60956  0.62695  1.0000
  S   S369      1.0  0.57065  0.63287  0.62660  1.0000
  S   S370      1.0  0.60901  0.58029  0.61119  1.0000
  Fe  Fe184     1.0  0.60318  0.66750  0.64003  1.0000
  S   S371      1.0  0.62145  0.71955  0.64231  1.0000
  Fe  Fe185     1.0  0.55013  0.60491  0.64302  1.0000
  S   S372      1.0  0.49823  0.58226  0.64284  1.0000
  S   S373      1.0  0.63761  0.64656  0.63910  1.0000
  S   S374      1.0  0.58092  0.58012  0.64290  1.0000
  Fe  Fe186     1.0  0.61615  0.90234  0.64898  1.0000
  S   S375      1.0  0.56662  0.86897  0.64809  1.0000
  S   S376      1.0  0.64703  0.90246  0.66503  1.0000
  Fe  Fe187     1.0  0.61429  0.92204  0.62220  1.0000
  S   S377      1.0  0.56490  0.88969  0.61956  1.0000
  S   S378      1.0  0.64452  0.95826  0.60903  1.0000
  Fe  Fe188     1.0  0.55853  0.90595  0.63821  1.0000
  S   S379      1.0  0.52262  0.92449  0.64174  1.0000
  Fe  Fe189     1.0  0.57729  0.85529  0.62962  1.0000
  S   S380      1.0  0.55821  0.80476  0.62357  1.0000
  S   S381      1.0  0.60743  0.94055  0.64046  1.0000
  S   S382      1.0  0.62726  0.88642  0.63089  1.0000
  H   H1112     1.0  0.73017  0.92579  0.64394  1.0000
  S   S383      1.0  0.91951  0.55884  0.50784  1.0000
  H   H1113     1.0  0.62678  0.54167  0.48747  1.0000
  C   C1106     1.0  0.73347  0.59275  0.55424  1.0000
  S   S384      1.0  0.90287  0.53827  0.53635  1.0000
  H   H1114     1.0  0.62015  0.63139  0.47923  1.0000
  Fe  Fe190     1.0  0.92016  0.52180  0.52000  1.0000
  C   C1107     1.0  0.47738  0.49294  0.65135  1.0000
  Fe  Fe191     1.0  0.90582  0.57751  0.52459  1.0000
  S   S385      1.0  0.87045  0.59716  0.52107  1.0000
  C   C1108     1.0  0.93904  0.57602  0.60046  1.0000
  Fe  Fe192     1.0  0.65545  0.58245  0.54075  1.0000
  S   S386      1.0  0.65114  0.53368  0.54091  1.0000
  S   S387      1.0  0.65541  0.61342  0.55695  1.0000
  Fe  Fe193     1.0  0.66009  0.58475  0.51244  1.0000
  S   S388      1.0  0.65725  0.53639  0.51088  1.0000
  S   S389      1.0  0.65141  0.61303  0.49750  1.0000
  Fe  Fe194     1.0  0.61981  0.52453  0.52448  1.0000
  H   H1115     1.0  0.70745  0.64831  0.58253  1.0000
  Fe  Fe195     1.0  0.68940  0.54986  0.52733  1.0000
  S   S390      1.0  0.72737  0.53347  0.53107  1.0000
  S   S391      1.0  0.62155  0.57228  0.52544  1.0000
  S   S392      1.0  0.69502  0.59932  0.52793  1.0000
  H   H1116     1.0  0.95308  0.66811  0.69215  1.0000
  H   H1117     1.0  0.96096  0.58180  0.48327  1.0000
  C   C1109     1.0  0.61601  0.93973  0.57330  1.0000
  H   H1118     1.0  0.52492  0.65038  0.64892  1.0000
  H   H1119     1.0  0.71634  0.76720  0.70187  1.0000
  H   H1120     1.0  0.93204  0.59491  0.60140  1.0000
  C   C1110     1.0  0.60249  0.53682  0.48916  1.0000
  C   C1111     1.0  0.65275  0.61137  0.48139  1.0000
  C   C1112     1.0  0.77479  0.49223  0.51132  1.0000
  C   C1113     1.0  0.61778  0.93721  0.58603  1.0000
  H   H1121     1.0  0.68601  0.59197  0.48041  1.0000
  C   C1114     1.0  0.83108  0.58037  0.52473  1.0000
  C   C1115     1.0  0.81858  0.55421  0.53183  1.0000
  C   C1116     1.0  0.78693  0.54075  0.53397  1.0000
  C   C1117     1.0  0.76738  0.55312  0.52901  1.0000
  C   C1118     1.0  0.77998  0.57969  0.52216  1.0000
  C   C1119     1.0  0.81165  0.59322  0.52005  1.0000
  H   H1122     1.0  0.83323  0.54416  0.53555  1.0000
  H   H1123     1.0  0.77745  0.52028  0.53933  1.0000
  H   H1124     1.0  0.76528  0.58950  0.51828  1.0000
  H   H1125     1.0  0.82107  0.61354  0.51460  1.0000
  C   C1120     1.0  0.92912  0.63275  0.48209  1.0000
  C   C1121     1.0  0.83519  0.50021  0.51004  1.0000
  N   N94       1.0  0.69192  0.73198  0.68870  1.0000
  C   C1122     1.0  0.67660  0.74554  0.68217  1.0000
  H   H1126     1.0  0.91341  0.62139  0.47458  1.0000
  C   C1123     1.0  0.56786  0.55817  0.48093  1.0000
  H   H1127     1.0  0.60195  0.91691  0.59043  1.0000
  H   H1128     1.0  0.71697  0.54387  0.55678  1.0000
  H   H1129     1.0  0.93731  0.52054  0.58013  1.0000
  C   C1124     1.0  0.73407  0.62059  0.55891  1.0000
  S   S393      1.0  0.96953  0.54724  0.52519  1.0000
  H   H1130     1.0  0.69287  0.67945  0.66761  1.0000
  C   C1125     1.0  0.65995  0.97395  0.47983  1.0000
  H   H1131     1.0  0.78857  0.53454  0.50162  1.0000
  H   H1132     1.0  0.91822  0.56140  0.58264  1.0000
  H   H1133     1.0  0.75128  0.48946  0.51219  1.0000
  H   H1134     1.0  0.71318  0.72939  0.70568  1.0000
  C   C1126     1.0  0.47978  0.50624  0.61644  1.0000
  H   H1135     1.0  0.58946  0.51185  0.49075  1.0000
  C   C1127     1.0  0.64019  0.60323  0.57168  1.0000
  C   C1128     1.0  0.62927  0.57294  0.57568  1.0000
  C   C1129     1.0  0.61970  0.56640  0.58777  1.0000
  C   C1130     1.0  0.62061  0.58992  0.59598  1.0000
  C   C1131     1.0  0.63117  0.62014  0.59193  1.0000
  C   C1132     1.0  0.64097  0.62672  0.57986  1.0000
  H   H1136     1.0  0.62860  0.55466  0.56951  1.0000
  H   H1137     1.0  0.61158  0.54294  0.59080  1.0000
  H   H1138     1.0  0.63200  0.63848  0.59811  1.0000
  H   H1139     1.0  0.64931  0.65023  0.57687  1.0000
  C   C1133     1.0  0.60514  0.74332  0.63604  1.0000
  C   C1134     1.0  0.58061  0.73189  0.62770  1.0000
  C   C1135     1.0  0.56732  0.75141  0.62347  1.0000
  C   C1136     1.0  0.57813  0.78223  0.62769  1.0000
  C   C1137     1.0  0.60311  0.79379  0.63580  1.0000
  C   C1138     1.0  0.61664  0.77443  0.63990  1.0000
  H   H1140     1.0  0.57180  0.70805  0.62456  1.0000
  H   H1141     1.0  0.54822  0.74245  0.61708  1.0000
  H   H1142     1.0  0.61162  0.81748  0.63912  1.0000
  H   H1143     1.0  0.63576  0.78351  0.64628  1.0000
  Fe  Fe196     1.0  0.96785  0.58576  0.51417  1.0000
  C   C1139     1.0  0.49354  0.52480  0.64970  1.0000
  H   H1144     1.0  0.48277  0.96689  0.61153  1.0000
  H   H1145     1.0  0.51754  0.53601  0.65216  1.0000
  N   N95       1.0  0.51024  0.52530  0.61650  1.0000
  C   C1140     1.0  0.66012  0.66316  0.70846  1.0000
  C   C1141     1.0  0.63765  0.66488  0.70058  1.0000
  C   C1142     1.0  0.63152  0.64978  0.68906  1.0000
  C   C1143     1.0  0.64767  0.63255  0.68533  1.0000
  C   C1144     1.0  0.66996  0.63061  0.69327  1.0000
  C   C1145     1.0  0.67632  0.64598  0.70475  1.0000
  H   H1146     1.0  0.62497  0.67809  0.70336  1.0000
  H   H1147     1.0  0.61432  0.65148  0.68306  1.0000
  H   H1148     1.0  0.68260  0.61737  0.69046  1.0000
  H   H1149     1.0  0.69372  0.64449  0.71070  1.0000
  C   C1146     1.0  0.52007  0.55662  0.61200  1.0000
  N   N96       1.0  0.58905  0.54635  0.47888  1.0000
  C   C1147     1.0  0.67563  0.91685  0.68752  1.0000
  N   N97       1.0  0.70089  0.94921  0.64368  1.0000
  C   C1148     1.0  0.65793  0.92436  0.67898  1.0000
  C   C1149     1.0  0.65083  0.94959  0.68153  1.0000
  H   H1150     1.0  0.63725  0.95570  0.67507  1.0000
  C   C1150     1.0  0.68595  0.93409  0.69851  1.0000
  C   C1151     1.0  0.49058  0.92542  0.61203  1.0000
  S   S394      1.0  0.95475  0.60779  0.53025  1.0000
  H   H1151     1.0  0.55281  0.70149  0.65915  1.0000
  C   C1152     1.0  0.66707  0.73592  0.67014  1.0000
  H   H1152     1.0  0.70988  0.69767  0.68873  1.0000
  C   C1153     1.0  0.70104  0.74222  0.70136  1.0000
  H   H1153     1.0  0.71165  0.66136  0.56730  1.0000
  C   C1154     1.0  0.70630  0.92141  0.64137  1.0000
  C   C1155     1.0  0.70543  0.59509  0.57589  1.0000
  C   C1156     1.0  0.52193  0.48625  0.62596  1.0000
  C   C1157     1.0  0.49914  0.66654  0.63706  1.0000
  H   H1154     1.0  0.55535  0.53114  0.62161  1.0000
  H   H1155     1.0  0.74424  0.59201  0.54568  1.0000
  H   H1156     1.0  0.68046  0.73804  0.70685  1.0000
  C   C1158     1.0  0.82614  0.52166  0.50473  1.0000
  C   C1159     1.0  0.71817  0.56569  0.56049  1.0000
  S   S395      1.0  0.66727  0.68337  0.72270  1.0000
  H   H1157     1.0  0.85885  0.50349  0.50952  1.0000
  S   S396      1.0  0.57046  0.49233  0.52023  1.0000
  H   H1158     1.0  0.59867  0.92122  0.56803  1.0000
  H   H1159     1.0  0.50451  0.73997  0.63716  1.0000
  C   C1160     1.0  0.47109  0.86918  0.64129  1.0000
  H   H1160     1.0  0.54477  0.56685  0.60986  1.0000
  H   H1161     1.0  0.68134  0.89744  0.68566  1.0000
  H   H1162     1.0  0.96468  0.58716  0.61732  1.0000
  C   C1161     1.0  0.54532  0.75320  0.65546  1.0000
  C   C1162     1.0  0.70459  0.96144  0.65526  1.0000
  H   H1163     1.0  0.93131  0.64200  0.51282  1.0000
  C   C1163     1.0  0.67315  0.71219  0.66485  1.0000
  H   H1164     1.0  0.47703  0.68948  0.62649  1.0000
  H   H1165     1.0  0.74517  0.64138  0.55380  1.0000
  C   C1164     1.0  0.66151  0.96712  0.69247  1.0000
  C   C1165     1.0  0.47687  0.89327  0.61196  1.0000
  C   C1166     1.0  0.91871  0.62982  0.49399  1.0000
  H   H1166     1.0  0.54575  0.77270  0.64992  1.0000
  H   H1167     1.0  0.56192  0.56166  0.49016  1.0000
  H   H1168     1.0  0.69143  0.54578  0.57618  1.0000
  C   C1167     1.0  0.72134  0.65108  0.57426  1.0000
  H   H1169     1.0  0.60238  0.54988  0.49766  1.0000
  C   C1168     1.0  0.63665  0.96568  0.56733  1.0000
  H   H1170     1.0  0.65481  0.74656  0.66495  1.0000
  H   H1171     1.0  0.50732  0.55662  0.60353  1.0000
  H   H1172     1.0  0.67154  0.76381  0.68627  1.0000
  H   H1173     1.0  0.74525  0.66722  0.57650  1.0000
  H   H1174     1.0  0.48728  0.64421  0.63247  1.0000
  C   C1169     1.0  0.68883  0.69855  0.67155  1.0000
  H   H1175     1.0  0.66552  0.70425  0.65559  1.0000
  C   C1170     1.0  0.96006  0.65032  0.47993  1.0000
  H   H1176     1.0  0.48638  0.85765  0.64122  1.0000
  H   H1177     1.0  0.69385  0.59563  0.58425  1.0000
  C   C1171     1.0  0.69825  0.70888  0.68353  1.0000
  N   N98       1.0  0.72023  0.62150  0.56962  1.0000
  C   C1172     1.0  0.67903  0.95941  0.70106  1.0000
  N   N99       1.0  0.52995  0.72354  0.64887  1.0000
  C   C1173     1.0  0.50882  0.72027  0.63988  1.0000
  C   C1174     1.0  0.53585  0.69888  0.65212  1.0000
  C   C1175     1.0  0.49331  0.69182  0.63377  1.0000
  C   C1176     1.0  0.52045  0.67002  0.64631  1.0000
  C   C1177     1.0  0.95751  0.57150  0.60944  1.0000
  C   C1178     1.0  0.64041  0.96063  0.59298  1.0000
  C   C1179     1.0  0.93129  0.55724  0.58995  1.0000
  Fe  Fe197     1.0  0.95290  0.56712  0.54092  1.0000
  H   H1178     1.0  0.63298  0.59389  0.71626  1.0000
  H   H1179     1.0  0.69939  0.92781  0.70498  1.0000
  H   H1180     1.0  0.70227  0.91367  0.63165  1.0000
  H   H1181     1.0  0.56953  0.75784  0.65757  1.0000
  H   H1182     1.0  0.62035  0.97804  0.48707  1.0000
  H   H1183     1.0  0.84280  0.54178  0.50044  1.0000
  H   H1184     1.0  0.71116  0.95049  0.66264  1.0000
  H   H1185     1.0  0.89480  0.61629  0.49586  1.0000
  C   C1180     1.0  0.47235  0.94189  0.61139  1.0000
  H   H1186     1.0  0.47214  0.94104  0.64183  1.0000
  H   H1187     1.0  0.53340  0.75311  0.66404  1.0000
  C   C1181     1.0  0.96036  0.53027  0.59773  1.0000
  H   H1188     1.0  0.96821  0.62097  0.56750  1.0000
  H   H1189     1.0  0.51599  0.57156  0.61901  1.0000
  C   C1182     1.0  0.67186  0.60044  0.47527  1.0000
  C   C1183     1.0  0.53125  0.51578  0.62128  1.0000
  C   C1184     1.0  0.47852  0.54208  0.64507  1.0000
  H   H1190     1.0  0.69041  0.90219  0.64682  1.0000
  H   H1191     1.0  0.51688  0.97164  0.51139  1.0000
  C   C1185     1.0  0.94196  0.53418  0.58855  1.0000
  C   C1186     1.0  0.79572  0.51756  0.50537  1.0000
  H   H1192     1.0  0.49089  0.88035  0.61274  1.0000
  H   H1193     1.0  0.51526  0.93748  0.61290  1.0000
  C   C1187     1.0  0.62949  0.97020  0.47942  1.0000
  C   C1188     1.0  0.93926  0.64425  0.50355  1.0000
  C   C1189     1.0  0.63489  0.62276  0.47457  1.0000
  C   C1190     1.0  0.48304  0.90142  0.64154  1.0000
  H   H1194     1.0  0.48111  0.93760  0.67190  1.0000
  N   N100      1.0  0.96765  0.54865  0.60804  1.0000
  C   C1191     1.0  0.69173  0.96245  0.63443  1.0000
  H   H1195     1.0  0.68859  0.95274  0.62524  1.0000
  H   H1196     1.0  0.96951  0.51308  0.59637  1.0000
  C   C1192     1.0  0.97010  0.66129  0.50109  1.0000
  Fe  Fe198     1.0  0.73917  0.91965  0.73700  1.0000
  S   S397      1.0  0.69457  0.92323  0.73953  1.0000
  H   H1197     1.0  0.48196  0.94437  0.85849  1.0000
  C   C1193     1.0  0.51645  0.87449  0.88408  1.0000
  H   H1198     1.0  0.65203  0.90182  0.89318  1.0000
  Fe  Fe199     1.0  0.62441  0.91643  0.84180  1.0000
  S   S398      1.0  0.59151  0.86643  0.84012  1.0000
  S   S399      1.0  0.65120  0.94982  0.82711  1.0000
  Fe  Fe200     1.0  0.61861  0.91814  0.86985  1.0000
  S   S400      1.0  0.58556  0.86852  0.87010  1.0000
  S   S401      1.0  0.63210  0.95018  0.88669  1.0000
  Fe  Fe201     1.0  0.61625  0.86027  0.85663  1.0000
  S   S402      1.0  0.63536  0.82478  0.85966  1.0000
  Fe  Fe202     1.0  0.56315  0.87899  0.85375  1.0000
  S   S403      1.0  0.51106  0.85663  0.85298  1.0000
  S   S404      1.0  0.65109  0.90940  0.85748  1.0000
  S   S405      1.0  0.59421  0.92945  0.85434  1.0000
  H   H1199     1.0  0.75125  0.60877  0.93569  1.0000
  H   H1200     1.0  0.50205  0.94810  0.88807  1.0000
  S   S406      1.0  0.93233  0.71963  0.76148  1.0000
  Fe  Fe203     1.0  0.74173  0.73230  0.75740  1.0000
  S   S407      1.0  0.69127  0.70551  0.75566  1.0000
  S   S408      1.0  0.76280  0.78202  0.76387  1.0000
  Fe  Fe204     1.0  0.75558  0.67845  0.74969  1.0000
  S   S409      1.0  0.70546  0.64653  0.74739  1.0000
  S   S410      1.0  0.79288  0.66364  0.74356  1.0000
  Fe  Fe205     1.0  0.70052  0.68588  0.73815  1.0000
  Fe  Fe206     1.0  0.69909  0.66793  0.76512  1.0000
  S   S411      1.0  0.66019  0.63990  0.77762  1.0000
  S   S412      1.0  0.75080  0.71637  0.73915  1.0000
  S   S413      1.0  0.74960  0.69639  0.76816  1.0000
  Fe  Fe207     1.0  0.61751  0.62032  0.84965  1.0000
  S   S414      1.0  0.56654  0.60499  0.84720  1.0000
  S   S415      1.0  0.65479  0.62897  0.83555  1.0000
  Fe  Fe208     1.0  0.61723  0.64102  0.87680  1.0000
  S   S416      1.0  0.56663  0.62741  0.87582  1.0000
  S   S417      1.0  0.64593  0.67356  0.89224  1.0000
  Fe  Fe209     1.0  0.56303  0.58423  0.86573  1.0000
  S   S418      1.0  0.52641  0.54038  0.87357  1.0000
  Fe  Fe210     1.0  0.57428  0.64897  0.85761  1.0000
  S   S419      1.0  0.55357  0.68190  0.85200  1.0000
  S   S420      1.0  0.61402  0.59682  0.86769  1.0000
  S   S421      1.0  0.62476  0.66504  0.85901  1.0000
  C   C1194     1.0  0.88829  0.68670  0.97077  1.0000
  H   H1201     1.0  0.70512  0.88159  0.75501  1.0000
  H   H1202     1.0  0.64530  0.73526  0.88602  1.0000
  H   H1203     1.0  0.58947  0.68447  0.89130  1.0000
  C   C1195     1.0  0.71182  0.80706  0.78091  1.0000
  H   H1204     1.0  0.80943  0.77374  0.74734  1.0000
  C   C1196     1.0  0.64358  0.57292  0.73182  1.0000
  C   C1197     1.0  0.74999  0.68428  0.92025  1.0000
  H   H1205     1.0  0.79769  0.68422  0.94864  1.0000
  H   H1206     1.0  0.73574  0.68408  0.91248  1.0000
  S   S422      1.0  0.75906  0.96278  0.72635  1.0000
  C   C1198     1.0  0.75540  0.62801  0.94235  1.0000
  H   H1207     1.0  0.53644  0.66919  0.88355  1.0000
  H   H1208     1.0  0.89242  0.75877  0.96586  1.0000
  Fe  Fe211     1.0  0.71254  0.67855  0.95958  1.0000
  S   S423      1.0  0.68674  0.64435  0.94425  1.0000
  S   S424      1.0  0.74331  0.72849  0.95740  1.0000
  H   H1209     1.0  0.77454  0.62966  0.94851  1.0000
  H   H1210     1.0  0.71991  0.79420  0.78698  1.0000
  C   C1199     1.0  0.82433  0.77037  0.75444  1.0000
  H   H1211     1.0  0.81050  0.74980  0.75971  1.0000
  H   H1212     1.0  0.86450  0.72580  0.72606  1.0000
  H   H1213     1.0  0.50501  0.51926  0.84850  1.0000
  C   C1200     1.0  0.72540  0.96847  0.85452  1.0000
  H   H1214     1.0  0.72647  0.63560  0.92282  1.0000
  H   H1215     1.0  0.72956  0.84886  0.79203  1.0000
  H   H1216     1.0  0.80744  0.73320  0.93876  1.0000
  H   H1217     1.0  0.82210  0.73525  0.73503  1.0000
  C   C1201     1.0  0.65620  0.66470  0.90678  1.0000
  C   C1202     1.0  0.64910  0.63442  0.91018  1.0000
  C   C1203     1.0  0.65823  0.62862  0.92175  1.0000
  C   C1204     1.0  0.67432  0.65293  0.93008  1.0000
  C   C1205     1.0  0.68132  0.68324  0.92670  1.0000
  C   C1206     1.0  0.67241  0.68905  0.91510  1.0000
  H   H1218     1.0  0.63668  0.61545  0.90389  1.0000
  H   H1219     1.0  0.65272  0.60509  0.92426  1.0000
  H   H1220     1.0  0.69381  0.70216  0.93299  1.0000
  H   H1221     1.0  0.67814  0.71257  0.91254  1.0000
  C   C1207     1.0  0.65910  0.63874  0.79380  1.0000
  C   C1208     1.0  0.68545  0.65214  0.80115  1.0000
  C   C1209     1.0  0.68359  0.64913  0.81390  1.0000
  C   C1210     1.0  0.65538  0.63316  0.81948  1.0000
  C   C1211     1.0  0.62894  0.62028  0.81214  1.0000
  C   C1212     1.0  0.63085  0.62297  0.79939  1.0000
  H   H1222     1.0  0.70738  0.66412  0.79702  1.0000
  H   H1223     1.0  0.70424  0.65890  0.81946  1.0000
  H   H1224     1.0  0.60717  0.60732  0.81624  1.0000
  H   H1225     1.0  0.61032  0.61227  0.79380  1.0000
  C   C1213     1.0  0.48756  0.50549  0.85465  1.0000
  C   C1214     1.0  0.89805  0.75556  0.73910  1.0000
  C   C1215     1.0  0.66097  0.96699  0.90919  1.0000
  C   C1216     1.0  0.89306  0.70079  0.75718  1.0000
  C   C1217     1.0  0.87165  0.70807  0.76365  1.0000
  C   C1218     1.0  0.84074  0.69629  0.75980  1.0000
  C   C1219     1.0  0.83088  0.67694  0.74944  1.0000
  C   C1220     1.0  0.85208  0.66888  0.74320  1.0000
  C   C1221     1.0  0.88303  0.68078  0.74701  1.0000
  H   H1226     1.0  0.87914  0.72338  0.77157  1.0000
  H   H1227     1.0  0.82464  0.70237  0.76479  1.0000
  N   N101      1.0  0.62154  0.60886  0.74555  1.0000
  H   H1228     1.0  0.89919  0.67493  0.74195  1.0000
  C   C1222     1.0  0.61179  0.78540  0.85758  1.0000
  C   C1223     1.0  0.62338  0.76398  0.86090  1.0000
  C   C1224     1.0  0.60540  0.73229  0.85945  1.0000
  C   C1225     1.0  0.57593  0.72168  0.85441  1.0000
  C   C1226     1.0  0.56427  0.74313  0.85107  1.0000
  C   C1227     1.0  0.58210  0.77499  0.85273  1.0000
  H   H1229     1.0  0.64630  0.77193  0.86470  1.0000
  H   H1230     1.0  0.61442  0.71622  0.86233  1.0000
  H   H1231     1.0  0.54142  0.73511  0.84718  1.0000
  H   H1232     1.0  0.57301  0.79145  0.85014  1.0000
  C   C1228     1.0  0.48664  0.87242  0.88365  1.0000
  Fe  Fe212     1.0  0.72411  0.96089  0.95060  1.0000
  C   C1229     1.0  0.49530  0.90661  0.85555  1.0000
  H   H1233     1.0  0.92518  0.78391  0.75403  1.0000
  H   H1234     1.0  0.51948  0.92122  0.85545  1.0000
  C   C1230     1.0  0.65187  0.94479  0.89960  1.0000
  S   S425      1.0  0.74778  0.66882  0.97018  1.0000
  H   H1235     1.0  0.75220  0.90026  0.93455  1.0000
  C   C1231     1.0  0.68321  0.93750  0.92054  1.0000
  C   C1232     1.0  0.67423  0.91543  0.91090  1.0000
  C   C1233     1.0  0.65879  0.91907  0.90048  1.0000
  H   H1236     1.0  0.56395  0.90482  0.88645  1.0000
  C   C1234     1.0  0.72362  0.96605  0.86714  1.0000
  C   C1235     1.0  0.74428  0.84879  0.73917  1.0000
  C   C1236     1.0  0.73456  0.81767  0.73560  1.0000
  C   C1237     1.0  0.74045  0.79710  0.74308  1.0000
  C   C1238     1.0  0.75650  0.80771  0.75410  1.0000
  C   C1239     1.0  0.76652  0.83889  0.75763  1.0000
  C   C1240     1.0  0.76025  0.85938  0.75022  1.0000
  H   H1237     1.0  0.88230  0.79345  0.76262  1.0000
  H   H1238     1.0  0.73242  0.77305  0.74033  1.0000
  H   H1239     1.0  0.77888  0.84717  0.76617  1.0000
  H   H1240     1.0  0.76801  0.88338  0.75299  1.0000
  C   C1241     1.0  0.67851  0.93183  0.78841  1.0000
  C   C1242     1.0  0.66149  0.94201  0.81227  1.0000
  C   C1243     1.0  0.65226  0.91198  0.80748  1.0000
  C   C1244     1.0  0.66068  0.90698  0.79563  1.0000
  H   H1241     1.0  0.63836  0.89261  0.81285  1.0000
  H   H1242     1.0  0.65306  0.88366  0.79200  1.0000
  Fe  Fe213     1.0  0.71579  0.94901  0.75709  1.0000
  N   N102      1.0  0.73038  0.86157  0.94559  1.0000
  C   C1245     1.0  0.69947  0.85295  0.94527  1.0000
  C   C1246     1.0  0.74214  0.83999  0.94687  1.0000
  C   C1247     1.0  0.67943  0.82209  0.94672  1.0000
  C   C1248     1.0  0.72275  0.80890  0.94820  1.0000
  C   C1249     1.0  0.69124  0.80002  0.94829  1.0000
  C   C1250     1.0  0.75083  0.89408  0.94426  1.0000
  H   H1243     1.0  0.69024  0.87013  0.94411  1.0000
  H   H1244     1.0  0.76664  0.84689  0.94732  1.0000
  H   H1245     1.0  0.65498  0.81548  0.94688  1.0000
  H   H1246     1.0  0.73209  0.79202  0.94983  1.0000
  H   H1247     1.0  0.67614  0.77619  0.94994  1.0000
  S   S426      1.0  0.70204  0.93104  0.93354  1.0000
  H   H1248     1.0  0.77643  0.73345  0.92045  1.0000
  C   C1251     1.0  0.63320  0.74092  0.89361  1.0000
  N   N103      1.0  0.61610  0.69843  0.82859  1.0000
  C   C1252     1.0  0.60426  0.72000  0.82761  1.0000
  C   C1253     1.0  0.64620  0.70717  0.83174  1.0000
  C   C1254     1.0  0.62251  0.75122  0.83010  1.0000
  C   C1255     1.0  0.66501  0.73813  0.83445  1.0000
  C   C1256     1.0  0.65299  0.76025  0.83367  1.0000
  C   C1257     1.0  0.59664  0.66598  0.82574  1.0000
  H   H1249     1.0  0.58027  0.71297  0.82528  1.0000
  H   H1250     1.0  0.65571  0.69008  0.83238  1.0000
  H   H1251     1.0  0.61278  0.76814  0.82972  1.0000
  H   H1252     1.0  0.68863  0.74478  0.83727  1.0000
  H   H1253     1.0  0.66701  0.78427  0.83605  1.0000
  C   C1258     1.0  0.77264  0.71194  0.92477  1.0000
  H   H1254     1.0  0.57320  0.65966  0.82919  1.0000
  C   C1259     1.0  0.78436  0.68394  0.94059  1.0000
  C   C1260     1.0  0.58169  0.70218  0.88899  1.0000
  C   C1261     1.0  0.55169  0.69340  0.88469  1.0000
  C   C1262     1.0  0.90122  0.71849  0.96901  1.0000
  H   H1255     1.0  0.51907  0.70938  0.87751  1.0000
  S   S427      1.0  0.82739  0.73908  0.96540  1.0000
  H   H1256     1.0  0.74206  0.90893  0.94940  1.0000
  C   C1263     1.0  0.63224  0.58985  0.75124  1.0000
  N   N104      1.0  0.76215  0.65690  0.93609  1.0000
  C   C1264     1.0  0.71751  0.83774  0.78368  1.0000
  C   C1265     1.0  0.85633  0.67083  0.97086  1.0000
  C   C1266     1.0  0.83740  0.68662  0.96938  1.0000
  H   H1257     1.0  0.63443  0.72748  0.90160  1.0000
  C   C1267     1.0  0.67947  0.96687  0.80508  1.0000
  C   C1268     1.0  0.68765  0.81047  0.76201  1.0000
  H   H1258     1.0  0.91648  0.75029  0.73562  1.0000
  N   N105      1.0  0.69394  0.84072  0.76468  1.0000
  H   H1259     1.0  0.64536  0.76581  0.89608  1.0000
  H   H1260     1.0  0.55490  0.76477  0.87947  1.0000
  S   S428      1.0  0.71288  0.93437  0.96792  1.0000
  C   C1269     1.0  0.87851  0.77949  0.75434  1.0000
  N   N106      1.0  0.85007  0.76617  0.74896  1.0000
  C   C1270     1.0  0.84499  0.74725  0.73887  1.0000
  H   H1261     1.0  0.65248  0.55918  0.72645  1.0000
  H   H1262     1.0  0.95167  0.59414  0.79575  1.0000
  C   C1271     1.0  0.50631  0.92747  0.88722  1.0000
  S   S429      1.0  0.75995  0.94363  0.75468  1.0000
  C   C1272     1.0  0.62198  0.61056  0.73315  1.0000
  H   H1263     1.0  0.63272  0.58911  0.76110  1.0000
  H   H1264     1.0  0.47199  0.49806  0.88471  1.0000
  C   C1273     1.0  0.79001  0.71183  0.93500  1.0000
  H   H1265     1.0  0.92579  0.73094  0.96892  1.0000
  C   C1274     1.0  0.59182  0.75503  0.88678  1.0000
  C   C1275     1.0  0.54187  0.71601  0.88134  1.0000
  H   H1266     1.0  0.59551  0.66153  0.81576  1.0000
  H   H1267     1.0  0.77410  0.89951  0.94804  1.0000
  S   S430      1.0  0.73566  0.87350  0.72965  1.0000
  H   H1268     1.0  0.60767  0.77915  0.88704  1.0000
  H   H1269     1.0  0.67680  0.79990  0.75340  1.0000
  S   S431      1.0  0.77491  0.97528  0.95281  1.0000
  H   H1270     1.0  0.67998  0.84789  0.74683  1.0000
  C   C1276     1.0  0.69642  0.79317  0.77010  1.0000
  Fe  Fe214     1.0  0.76329  0.95029  0.97042  1.0000
  H   H1271     1.0  0.84463  0.65375  0.73522  1.0000
  C   C1277     1.0  0.74497  0.65683  0.92608  1.0000
  C   C1278     1.0  0.61129  0.62894  0.75276  1.0000
  C   C1279     1.0  0.68800  0.96186  0.79324  1.0000
  C   C1280     1.0  0.86891  0.74182  0.73374  1.0000
  H   H1272     1.0  0.60569  0.65057  0.83014  1.0000
  S   S432      1.0  0.68789  0.92367  0.77346  1.0000
  H   H1273     1.0  0.96164  0.58708  0.77010  1.0000
  H   H1274     1.0  0.69267  0.76960  0.76773  1.0000
  H   H1275     1.0  0.67920  0.89529  0.91152  1.0000
  N   N107      1.0  0.60132  0.73264  0.88995  1.0000
  H   H1276     1.0  0.63060  0.65182  0.75428  1.0000
  H   H1277     1.0  0.84620  0.64624  0.97226  1.0000
  N   N108      1.0  0.53549  0.92922  0.88775  1.0000
  H   H1278     1.0  0.83195  0.79101  0.76065  1.0000
  H   H1279     1.0  0.57474  0.96524  0.88094  1.0000
  H   H1280     1.0  0.73881  0.95888  0.84941  1.0000
  Fe  Fe215     1.0  0.71575  0.96800  0.73010  1.0000
  H   H1281     1.0  0.73456  0.62231  0.94785  1.0000
  C   C1281     1.0  0.90293  0.77447  0.74947  1.0000
  C   C1282     1.0  0.68553  0.85901  0.75605  1.0000
  C   C1283     1.0  0.56196  0.74706  0.88246  1.0000
  H   H1282     1.0  0.66581  0.86322  0.75942  1.0000
  H   H1283     1.0  0.71286  0.87826  0.77754  1.0000
  H   H1284     1.0  0.59219  0.63207  0.74809  1.0000
  C   C1284     1.0  0.70816  0.85428  0.77543  1.0000
  H   H1285     1.0  0.60323  0.61923  0.76182  1.0000
  C   C1285     1.0  0.67662  0.96344  0.91959  1.0000
  C   C1286     1.0  0.56163  0.95908  0.88947  1.0000
  C   C1287     1.0  0.70546  0.97761  0.87351  1.0000
  H   H1286     1.0  0.52074  0.85409  0.88232  1.0000
  C   C1288     1.0  0.48526  0.87462  0.85414  1.0000
  H   H1287     1.0  0.72217  0.80941  0.72707  1.0000
  C   C1289     1.0  0.85031  0.71839  0.96754  1.0000
  H   H1288     1.0  0.73572  0.95464  0.87195  1.0000
  H   H1289     1.0  0.96934  0.57919  0.81479  1.0000
  C   C1290     1.0  0.49186  0.51179  0.86717  1.0000
  H   H1290     1.0  0.55452  0.97782  0.89203  1.0000
  H   H1291     1.0  0.65231  0.55696  0.74906  1.0000
  H   H1292     1.0  0.81289  0.67413  0.96964  1.0000
  C   C1291     1.0  0.88225  0.73419  0.96731  1.0000
  Fe  Fe216     1.0  0.77683  0.71924  0.96937  1.0000
  H   H1293     1.0  0.57720  0.95783  0.89680  1.0000
  H   H1294     1.0  0.61441  0.62634  0.72864  1.0000
  C   C1292     1.0  0.54075  0.90324  0.88621  1.0000
  C   C1293     1.0  0.48144  0.89901  0.88528  1.0000
  C   C1294     1.0  0.63270  0.59242  0.72610  1.0000
  C   C1295     1.0  0.47397  0.91964  0.85727  1.0000
  H   H1295     1.0  0.70322  0.97516  0.88329  1.0000
  C   C1296     1.0  0.64338  0.57159  0.74448  1.0000
  H   H1296     1.0  0.68333  0.98061  0.92692  1.0000
