data_image0
_chemical_formula_structural       HFeS2FeS2Fe2S3FeCFeS2H2S2FeS2FeS2FeSFeS3FeSFeS2FeSFeS3C6H4SC5H3C6H5C4H2NC2H2C6H2CH2C6H6C3H2CHNCH5CFeC2HCHCHNCNC5H3FeH6C5H3SHCNC6H7CHNH3SC3H4CH3CHSC2H3CH2FeS2FeSCFeSFeS3FeS2FeS2FeSFeS2C3HC7H4C6H4C2H4CH2C3NH2C9H3C2HC3H2CHC3NHNH2CHCHCHNC3SCH3C3H3CH3C3H4SCNCNCH2CHC2H3C3H6C2HCS3HCH2CHCHCH2CHCHNCH3NFeS2FeS2Fe2S3FeS2FeS2Fe2S3FeS2FeH2CS2FeS2FeS2FeSFeS2HC6H4C6H4C3FeH2C3HC4HCH4C6H5NHC6H3C5HFeHCH3CHNSNHCHCH6CSCH2CHSC2H2C2HC3HNC6H7C2H9CH2CH6SCSC2H2C2H2CSH2CH2CNH2FeS2CHFeSFeS3FeSFeS2FeSFeS3HCHSH2C3H2CSH3C6H4C6H4C6H4C2HC2FeH3C3HNH2NC6H2CHCH3C4HC5HCH5C2NC3HSC2HC2HNSCHNC2H6CH2C2HC4HCHC3H2SH4NCHNHC2FeSFeS2FeSFeS3Fe2S2CHS2FeS2FeSFeSFeS3FeS2FeSCFeSFeCS2HC6H4CH2C3H2C6H4C6H4C6H7CHSC4H3FeNC2SCHFeH3CH4NC2HCHSHSHC5NC6H8NC6H5NCH2C3H2CHC2HCH3SH12CH4CH2N2HSFeS2FeSFeS3FeS2FeS2FeSFeS2H2SHC8H2C3HC3H2C6H2CHC6FeH3C5H3C9H4CH2NH2SCHC2H3C3HCHCHCH2CSCH3CH2C3HCHCH2NHCNHCH3CHCH4CH4C2S2C2FeS2FeSFeSFeS3FeS2FeS2Fe2S4HSNFeSFeSFeSFeS2FeSFeHS3CHC4HC7H4C6H4CH2C6H4C6H5C6H2CNC6H7NC3H4CHC2H4CSCH3CH4CH5CHNCH2C3H2C2FeCH3C2HFeH3CNH2CH2CHCHCH4CNSH3SFeS2FeSFeSFeS3FeS2FeS3FeS3CNSCH2C10H2C6H4C2HCHCHC3HCH3C8H4C6H6C2H3NCNC3H2CH2C3H2CH3CHCHNH4CHCH2NHCHC3HNCFeC2H3CHC2HCH7SC3HCHS2FeSFeS2FeSFeS3FeS2FeS2Fe2S3H2CHC3SCHC3HC6H4C4HC5H3C8H4C6H8C2HC2H2CHCHC2HCH6NCHC2HC2H4C2H2NC2NCH4CSNHC5H5CHCN3HC3NC2H6CHCH2CFeS2FeS2FeSCS2FeS2FeS2FeSFeS2FeSFe2S2FeHFeS5FeSHFeCFeS2HC6H2CHC6H4C6H5SC2HCHC5H3C6H4C6H10CHC3H3NCHC2HCH7CSH2CH6CNHFeSH2NHC3HN2C2H2CHCH2SHCH2C2H2CH2CHC2HSC2H3CSCFeS2FeSFeSFeS3FeS2FeS2HFeS3NCSC8H2C2H3CHC6H4C6H4C6H4C6H4C2HCH5C4HNCHNH3C2N2H2CH2CH7C2SCHC3HFeC2H2CHCSCH2CH3C2H2C4HCHCH3C2HC2HNH2SH2FeSFeS2FeSFeS3FeS2FeS2FeSFeS2FeSH2SFeHFeS2FeS2FeSFeSFeS3CH2C6H4C6H4CH2C3H4C6H2NHC6H4C6H3CHCHNC4HFeCHC2H3SCH5C4HCSHC2H4CHC3H5NH3CH3NH6NC6H3CHCHCHNHSC2HCHCH2SC2H4CHCSH2FeS2FeSFeSFeS3FeS2FeS2CFeS3H2C7H4CH2C8H4CHCHC4H2C6H4C6H4CHCH3CHNHCNCHC4H3CHC2HCHCFeCH2C3H2SHNSCH4CH2NC2HCHC2HCHC3HS2CH2CHCH3CNHC2H3CH2CSCHSFeS2FeS2Fe2S3FeSHFeS2FeSFeHS2FeSFeS2FeSFeS3FeS2FeCFeHS2C6H4C6H4C6H3C6H4C4NC6H4C3HC2HSH3C3H2CH2CH2NH3N2CH8CH2SCHCH2C2H2CH3CHCH2C3H2SC3HSHNHCHC3NH6CHNHC2H2CH4FeHC2H3C2HC2H2C3HCSCFeS2FeS2HFeSHSCSFeS2FeSFeS3C2H2C6H4C3HC4HFeCH4C6FeH3C7HCSC6H4CNH2CSH2CHCSHC2HC3H2SHCNC4H11CH2C2H2NC2H2C2HCSFeSFeS2FeSFeS3CSFeS2FeSFeS3FeS2FeC2HSCFeS2FeS2Fe2S3C6H4C2H4CH2NC6H4C2HCHC6H4C6H4CHC4H7CH3CH2CHCSHCHNC5H2CH2CH3C3SHNH2C3H2NH4C2HFeCH3C3FeCNHCFeCHC3H7C2NHCS2H5CHCNC2H3CSCH2NH2C
_chemical_formula_sum              "H1152 Fe192 S384 C1152 N96"
_cell_length_a       57.7417
_cell_length_b       57.7229
_cell_length_c       57.8761
_cell_angle_alpha    88.3725
_cell_angle_beta     88.5888
_cell_angle_gamma    88.0886

_space_group_name_H-M_alt    "P 1"
_space_group_IT_number       1

loop_
  _space_group_symop_operation_xyz
  'x, y, z'

loop_
  _atom_site_type_symbol
  _atom_site_label
  _atom_site_symmetry_multiplicity
  _atom_site_fract_x
  _atom_site_fract_y
  _atom_site_fract_z
  _atom_site_occupancy
  H   H1        1.0  0.18240  0.22190  0.03125  1.0000
  Fe  Fe1       1.0  0.40787  0.40550  0.07706  1.0000
  S   S1        1.0  0.40114  0.44243  0.06546  1.0000
  S   S2        1.0  0.44451  0.39152  0.07074  1.0000
  Fe  Fe2       1.0  0.35673  0.39855  0.09114  1.0000
  S   S3        1.0  0.34636  0.43532  0.08091  1.0000
  S   S4        1.0  0.33080  0.37544  0.11016  1.0000
  Fe  Fe3       1.0  0.36938  0.42925  0.04941  1.0000
  Fe  Fe4       1.0  0.37910  0.44519  0.09791  1.0000
  S   S5        1.0  0.38621  0.47287  0.12360  1.0000
  S   S6        1.0  0.37757  0.39181  0.05861  1.0000
  S   S7        1.0  0.38798  0.40895  0.11057  1.0000
  Fe  Fe5       1.0  0.06769  0.19769  0.26268  1.0000
  C   C1        1.0  0.30133  0.26725  0.09561  1.0000
  Fe  Fe6       1.0  0.09204  0.22986  0.22808  1.0000
  S   S8        1.0  0.11293  0.24622  0.25490  1.0000
  S   S9        1.0  0.09774  0.23592  0.18980  1.0000
  H   H2        1.0  0.23984  0.06603  0.10611  1.0000
  H   H3        1.0  0.12917  0.24557  0.07815  1.0000
  S   S10       1.0  0.09938  0.19314  0.23991  1.0000
  S   S11       1.0  0.05852  0.23329  0.24850  1.0000
  Fe  Fe7       1.0  0.27999  0.08521  0.23431  1.0000
  S   S12       1.0  0.24946  0.06452  0.22411  1.0000
  S   S13       1.0  0.15990  0.26650  0.04214  1.0000
  Fe  Fe8       1.0  0.26445  0.12667  0.20402  1.0000
  S   S14       1.0  0.23343  0.10920  0.19124  1.0000
  S   S15       1.0  0.26798  0.16467  0.19536  1.0000
  Fe  Fe9       1.0  0.22855  0.09776  0.22821  1.0000
  S   S16       1.0  0.19246  0.09984  0.24391  1.0000
  Fe  Fe10      1.0  0.25702  0.07766  0.18797  1.0000
  S   S17       1.0  0.25716  0.05682  0.15517  1.0000
  S   S18       1.0  0.25814  0.11717  0.24151  1.0000
  S   S19       1.0  0.28901  0.09632  0.19762  1.0000
  Fe  Fe11      1.0  0.19065  0.26305  0.06586  1.0000
  S   S20       1.0  0.20024  0.29497  0.08451  1.0000
  Fe  Fe12      1.0  0.22764  0.23338  0.09025  1.0000
  S   S21       1.0  0.24035  0.26280  0.11047  1.0000
  S   S22       1.0  0.24306  0.19716  0.09340  1.0000
  Fe  Fe13      1.0  0.20236  0.27127  0.11599  1.0000
  S   S23       1.0  0.18851  0.28229  0.15102  1.0000
  Fe  Fe14      1.0  0.23732  0.28368  0.07736  1.0000
  S   S24       1.0  0.26549  0.30577  0.06086  1.0000
  S   S25       1.0  0.18989  0.24037  0.09794  1.0000
  S   S26       1.0  0.22749  0.25332  0.05635  1.0000
  C   C2        1.0  0.24819  0.18767  0.12207  1.0000
  C   C3        1.0  0.24632  0.20323  0.14017  1.0000
  C   C4        1.0  0.25253  0.19603  0.16260  1.0000
  C   C5        1.0  0.25984  0.17303  0.16722  1.0000
  C   C6        1.0  0.26087  0.15719  0.14934  1.0000
  C   C7        1.0  0.25538  0.16461  0.12672  1.0000
  H   H4        1.0  0.24045  0.22091  0.13690  1.0000
  H   H5        1.0  0.25163  0.20831  0.17639  1.0000
  H   H6        1.0  0.26654  0.13940  0.15282  1.0000
  H   H7        1.0  0.25686  0.15249  0.11280  1.0000
  S   S27       1.0  0.04034  0.17062  0.26901  1.0000
  C   C8        1.0  0.24267  0.03049  0.15330  1.0000
  C   C9        1.0  0.15845  0.13198  0.25575  1.0000
  C   C10       1.0  0.18216  0.12788  0.25113  1.0000
  C   C11       1.0  0.19748  0.14593  0.25330  1.0000
  C   C12       1.0  0.48945  0.45123  0.15856  1.0000
  H   H8        1.0  0.30039  0.33609  0.04322  1.0000
  H   H9        1.0  0.48226  0.46643  0.16800  1.0000
  H   H10       1.0  0.18841  0.22897  0.23549  1.0000
  C   C13       1.0  0.16537  0.26709  0.16393  1.0000
  C   C14       1.0  0.15791  0.24654  0.15478  1.0000
  C   C15       1.0  0.13781  0.23623  0.16374  1.0000
  C   C16       1.0  0.12515  0.24632  0.18201  1.0000
  C   C17       1.0  0.13329  0.26614  0.19207  1.0000
  C   C18       1.0  0.15338  0.27650  0.18303  1.0000
  H   H11       1.0  0.16730  0.23877  0.14053  1.0000
  H   H12       1.0  0.13164  0.22082  0.15598  1.0000
  H   H13       1.0  0.12354  0.27409  0.20613  1.0000
  H   H14       1.0  0.15916  0.29230  0.19034  1.0000
  H   H15       1.0  0.29463  0.40406  0.13446  1.0000
  C   C19       1.0  0.15008  0.15400  0.26249  1.0000
  C   C20       1.0  0.09957  0.25714  0.12826  1.0000
  C   C21       1.0  0.36463  0.49338  0.13230  1.0000
  C   C22       1.0  0.36915  0.50808  0.15048  1.0000
  H   H16       1.0  0.25742  0.05076  0.27246  1.0000
  H   H17       1.0  0.28857  0.21114  0.10321  1.0000
  N   N1        1.0  0.20558  0.05389  0.10895  1.0000
  C   C23       1.0  0.34286  0.49467  0.12220  1.0000
  C   C24       1.0  0.18923  0.16771  0.26068  1.0000
  H   H18       1.0  0.14650  0.11809  0.25420  1.0000
  H   H19       1.0  0.33924  0.48346  0.10816  1.0000
  C   C25       1.0  0.31241  0.35651  0.09613  1.0000
  C   C26       1.0  0.29611  0.34391  0.10937  1.0000
  C   C27       1.0  0.28130  0.32861  0.09883  1.0000
  C   C28       1.0  0.28277  0.32569  0.07492  1.0000
  C   C29       1.0  0.29908  0.33826  0.06172  1.0000
  C   C30       1.0  0.31378  0.35366  0.07222  1.0000
  H   H20       1.0  0.29491  0.34602  0.12788  1.0000
  H   H21       1.0  0.26881  0.31905  0.10920  1.0000
  C   C31       1.0  0.35188  0.52365  0.15887  1.0000
  H   H22       1.0  0.32623  0.36323  0.06181  1.0000
  H   H23       1.0  0.50869  0.45172  0.15879  1.0000
  C   C32       1.0  0.49606  0.39113  0.12979  1.0000
  C   C33       1.0  0.50358  0.38554  0.10741  1.0000
  C   C34       1.0  0.48748  0.38488  0.08958  1.0000
  C   C35       1.0  0.46384  0.38995  0.09397  1.0000
  C   C36       1.0  0.45628  0.39486  0.11649  1.0000
  C   C37       1.0  0.47232  0.39534  0.13434  1.0000
  H   H24       1.0  0.20124  0.18147  0.26270  1.0000
  H   H25       1.0  0.49345  0.38096  0.07221  1.0000
  H   H26       1.0  0.43812  0.39859  0.12011  1.0000
  H   H27       1.0  0.46634  0.39944  0.15164  1.0000
  H   H28       1.0  0.44603  0.45997  0.14539  1.0000
  H   H29       1.0  0.12914  0.32254  0.11779  1.0000
  C   C38       1.0  0.12375  0.25441  0.09381  1.0000
  C   C39       1.0  0.13899  0.30740  0.12525  1.0000
  C   C40       1.0  0.46387  0.44834  0.09060  1.0000
  H   H30       1.0  0.28283  0.25565  0.05690  1.0000
  H   H31       1.0  0.31021  0.29033  0.12248  1.0000
  C   C41       1.0  0.13432  0.27482  0.09967  1.0000
  H   H32       1.0  0.10556  0.28608  0.14951  1.0000
  N   N2        1.0  0.12793  0.28586  0.11956  1.0000
  C   C42       1.0  0.34664  0.44171  0.15957  1.0000
  H   H33       1.0  0.09822  0.22949  0.10411  1.0000
  H   H34       1.0  0.30673  0.48316  0.17555  1.0000
  H   H35       1.0  0.15719  0.30756  0.11846  1.0000
  H   H36       1.0  0.34797  0.47133  0.18130  1.0000
  H   H37       1.0  0.13178  0.15699  0.26614  1.0000
  C   C43       1.0  0.32565  0.51037  0.13048  1.0000
  Fe  Fe15      1.0  0.11846  0.20949  0.26805  1.0000
  C   C44       1.0  0.30058  0.45479  0.15305  1.0000
  C   C45       1.0  0.33003  0.52474  0.14897  1.0000
  H   H38       1.0  0.45700  0.44618  0.07353  1.0000
  C   C46       1.0  0.29726  0.23353  0.13043  1.0000
  H   H39       1.0  0.30400  0.42117  0.10974  1.0000
  C   C47       1.0  0.49564  0.44537  0.11696  1.0000
  H   H40       1.0  0.36486  0.43688  0.16133  1.0000
  N   N3        1.0  0.29468  0.24550  0.09044  1.0000
  C   C48       1.0  0.48734  0.44383  0.09455  1.0000
  N   N4        1.0  0.30998  0.43573  0.14227  1.0000
  C   C49       1.0  0.33717  0.46103  0.17076  1.0000
  C   C50       1.0  0.29323  0.22856  0.10739  1.0000
  C   C51       1.0  0.28998  0.24009  0.06644  1.0000
  C   C52       1.0  0.45788  0.45582  0.13114  1.0000
  C   C53       1.0  0.10635  0.24548  0.10829  1.0000
  H   H41       1.0  0.22124  0.08237  0.12508  1.0000
  H   H42       1.0  0.29548  0.22014  0.14387  1.0000
  H   H43       1.0  0.30314  0.28050  0.08208  1.0000
  Fe  Fe16      1.0  0.08031  0.24640  0.27702  1.0000
  H   H44       1.0  0.48440  0.43500  0.16791  1.0000
  H   H45       1.0  0.31429  0.11585  0.26795  1.0000
  H   H46       1.0  0.27802  0.42958  0.12547  1.0000
  H   H47       1.0  0.30878  0.51118  0.12271  1.0000
  H   H48       1.0  0.14779  0.28167  0.08828  1.0000
  H   H49       1.0  0.28271  0.46033  0.15035  1.0000
  C   C54       1.0  0.33268  0.42911  0.14541  1.0000
  C   C55       1.0  0.30548  0.27286  0.11847  1.0000
  C   C56       1.0  0.30323  0.25590  0.13599  1.0000
  C   C57       1.0  0.11055  0.27748  0.13362  1.0000
  C   C58       1.0  0.31400  0.46767  0.16752  1.0000
  H   H50       1.0  0.16219  0.23622  0.22069  1.0000
  H   H51       1.0  0.14000  0.30910  0.14429  1.0000
  H   H52       1.0  0.34018  0.41412  0.13676  1.0000
  S   S28       1.0  0.30493  0.06723  0.25960  1.0000
  H   H53       1.0  0.21575  0.14306  0.24967  1.0000
  C   C59       1.0  0.29585  0.42209  0.12732  1.0000
  N   N5        1.0  0.17976  0.20463  0.21072  1.0000
  C   C60       1.0  0.15932  0.19337  0.21006  1.0000
  C   C61       1.0  0.20028  0.19336  0.20512  1.0000
  C   C62       1.0  0.15911  0.17008  0.20401  1.0000
  C   C63       1.0  0.20068  0.17014  0.19881  1.0000
  C   C64       1.0  0.17997  0.15840  0.19846  1.0000
  C   C65       1.0  0.18000  0.22858  0.21845  1.0000
  H   H54       1.0  0.14309  0.20224  0.21468  1.0000
  H   H55       1.0  0.21654  0.20216  0.20586  1.0000
  H   H56       1.0  0.14293  0.16105  0.20426  1.0000
  H   H57       1.0  0.21704  0.16118  0.19476  1.0000
  H   H58       1.0  0.18017  0.14014  0.19442  1.0000
  H   H59       1.0  0.18941  0.23965  0.20556  1.0000
  H   H60       1.0  0.08640  0.25010  0.13997  1.0000
  C   C66       1.0  0.44905  0.45453  0.10895  1.0000
  H   H61       1.0  0.49882  0.43806  0.08061  1.0000
  N   N6        1.0  0.48093  0.45130  0.13490  1.0000
  H   H62       1.0  0.21762  0.08568  0.09437  1.0000
  H   H63       1.0  0.30613  0.26008  0.15383  1.0000
  H   H64       1.0  0.21324  0.04552  0.07384  1.0000
  S   S29       1.0  0.51596  0.39575  0.15175  1.0000
  C   C67       1.0  0.19337  0.04829  0.12880  1.0000
  C   C68       1.0  0.16553  0.17183  0.26524  1.0000
  C   C69       1.0  0.20333  0.04130  0.08948  1.0000
  H   H65       1.0  0.19575  0.05770  0.14450  1.0000
  H   H66       1.0  0.30617  0.23390  0.05756  1.0000
  H   H67       1.0  0.38597  0.50718  0.15835  1.0000
  H   H68       1.0  0.43070  0.45767  0.10614  1.0000
  C   C70       1.0  0.22177  0.07296  0.10854  1.0000
  H   H69       1.0  0.04462  0.17770  0.21900  1.0000
  H   H70       1.0  0.27678  0.22651  0.06572  1.0000
  H   H71       1.0  0.51367  0.44064  0.12010  1.0000
  C   C71       1.0  0.03159  0.16497  0.22273  1.0000
  H   H72       1.0  0.52184  0.38230  0.10373  1.0000
  S   S30       1.0  0.15583  0.19933  0.27454  1.0000
  C   C72       1.0  0.32491  0.08079  0.27724  1.0000
  C   C73       1.0  0.17843  0.02968  0.12945  1.0000
  H   H73       1.0  0.22702  0.03127  0.18742  1.0000
  H   H74       1.0  0.48336  0.14938  0.27556  1.0000
  H   H75       1.0  0.44482  0.16927  0.27853  1.0000
  C   C74       1.0  0.32559  0.10492  0.27856  1.0000
  H   H76       1.0  0.41124  0.13809  0.50902  1.0000
  H   H77       1.0  0.14323  0.30998  0.49819  1.0000
  Fe  Fe17      1.0  0.45358  0.09047  0.35339  1.0000
  S   S31       1.0  0.42912  0.12030  0.36071  1.0000
  S   S32       1.0  0.48944  0.09468  0.33728  1.0000
  Fe  Fe18      1.0  0.42175  0.05552  0.37740  1.0000
  S   S33       1.0  0.39479  0.08317  0.38667  1.0000
  C   C75       1.0  0.50953  0.13335  0.38570  1.0000
  Fe  Fe19      1.0  0.40106  0.09672  0.35017  1.0000
  S   S34       1.0  0.37425  0.11452  0.32683  1.0000
  Fe  Fe20      1.0  0.42500  0.10413  0.39618  1.0000
  S   S35       1.0  0.43221  0.12466  0.42784  1.0000
  S   S36       1.0  0.42604  0.06767  0.34019  1.0000
  S   S37       1.0  0.45141  0.07563  0.38953  1.0000
  Fe  Fe21      1.0  0.09442  0.36308  0.39677  1.0000
  S   S38       1.0  0.08640  0.35228  0.43377  1.0000
  S   S39       1.0  0.11202  0.33834  0.37126  1.0000
  Fe  Fe22      1.0  0.08150  0.41390  0.40530  1.0000
  S   S40       1.0  0.07203  0.40701  0.44256  1.0000
  S   S41       1.0  0.07722  0.45043  0.39033  1.0000
  Fe  Fe23      1.0  0.10447  0.38439  0.44341  1.0000
  S   S42       1.0  0.12929  0.39122  0.47213  1.0000
  Fe  Fe24      1.0  0.05456  0.37579  0.43001  1.0000
  S   S43       1.0  0.11511  0.39358  0.40677  1.0000
  S   S44       1.0  0.06133  0.38427  0.39228  1.0000
  C   C76       1.0  0.12635  0.50144  0.44942  1.0000
  C   C77       1.0  0.09249  0.41550  0.34242  1.0000
  C   C78       1.0  0.05767  0.26763  0.36680  1.0000
  H   H78       1.0  0.48812  0.19731  0.38736  1.0000
  C   C79       1.0  0.51690  0.16707  0.32060  1.0000
  C   C80       1.0  0.10014  0.46985  0.39125  1.0000
  C   C81       1.0  0.12225  0.46244  0.39824  1.0000
  C   C82       1.0  0.14007  0.47842  0.39902  1.0000
  C   C83       1.0  0.13588  0.50193  0.39305  1.0000
  C   C84       1.0  0.11386  0.50925  0.38573  1.0000
  C   C85       1.0  0.09610  0.49322  0.38472  1.0000
  H   H79       1.0  0.12559  0.44448  0.40324  1.0000
  H   H80       1.0  0.15708  0.47266  0.40471  1.0000
  H   H81       1.0  0.40073  0.15417  0.30814  1.0000
  H   H82       1.0  0.07906  0.49907  0.37921  1.0000
  C   C86       1.0  0.07819  0.29452  0.31691  1.0000
  C   C87       1.0  0.10209  0.29283  0.32030  1.0000
  C   C88       1.0  0.11225  0.30684  0.33657  1.0000
  C   C89       1.0  0.09866  0.32264  0.34961  1.0000
  C   C90       1.0  0.07488  0.32485  0.34571  1.0000
  C   C91       1.0  0.06473  0.31088  0.32940  1.0000
  H   H83       1.0  0.11267  0.28046  0.31065  1.0000
  H   H84       1.0  0.13070  0.30512  0.33935  1.0000
  H   H85       1.0  0.06422  0.33697  0.35557  1.0000
  H   H86       1.0  0.04624  0.31238  0.32681  1.0000
  C   C92       1.0  0.35555  0.10098  0.30784  1.0000
  C   C93       1.0  0.35497  0.07687  0.30639  1.0000
  H   H87       1.0  0.16071  0.49048  0.45891  1.0000
  H   H88       1.0  0.36072  0.04832  0.46384  1.0000
  H   H89       1.0  0.36616  0.06592  0.31709  1.0000
  H   H90       1.0  0.14919  0.43610  0.48489  1.0000
  C   C94       1.0  0.14739  0.32789  0.50049  1.0000
  H   H91       1.0  0.04660  0.25955  0.35467  1.0000
  H   H92       1.0  0.34109  0.13360  0.29486  1.0000
  C   C95       1.0  0.13690  0.34541  0.48648  1.0000
  C   C96       1.0  0.14217  0.36861  0.48930  1.0000
  C   C97       1.0  0.15798  0.37411  0.50626  1.0000
  N   N7        1.0  0.42694  0.13828  0.28718  1.0000
  H   H93       1.0  0.17194  0.45293  0.47184  1.0000
  H   H94       1.0  0.12477  0.34094  0.47352  1.0000
  C   C98       1.0  0.42892  0.11494  0.29190  1.0000
  C   C99       1.0  0.10549  0.43554  0.34233  1.0000
  C   C100      1.0  0.38269  0.12449  0.49104  1.0000
  C   C101      1.0  0.40515  0.13255  0.49259  1.0000
  C   C102      1.0  0.41992  0.13313  0.47289  1.0000
  C   C103      1.0  0.41247  0.12536  0.45162  1.0000
  C   C104      1.0  0.38989  0.11763  0.44996  1.0000
  C   C105      1.0  0.37498  0.11746  0.46957  1.0000
  C   C106      1.0  0.14260  0.45511  0.34346  1.0000
  H   H95       1.0  0.43731  0.13929  0.47425  1.0000
  H   H96       1.0  0.38392  0.11179  0.43361  1.0000
  H   H97       1.0  0.35756  0.11136  0.46822  1.0000
  C   C107      1.0  0.49991  0.12273  0.33161  1.0000
  C   C108      1.0  0.48505  0.14232  0.33235  1.0000
  H   H98       1.0  0.46141  0.16601  0.39936  1.0000
  C   C109      1.0  0.09065  0.24427  0.35172  1.0000
  C   C110      1.0  0.22783  0.08636  0.29194  1.0000
  C   C111      1.0  0.46803  0.13949  0.27961  1.0000
  H   H99       1.0  0.46693  0.14050  0.33666  1.0000
  H   H100      1.0  0.09397  0.37810  0.34395  1.0000
  C   C112      1.0  0.06230  0.29549  0.39657  1.0000
  H   H101      1.0  0.41731  0.08139  0.49460  1.0000
  C   C113      1.0  0.44852  0.07417  0.46051  1.0000
  C   C114      1.0  0.34081  0.11493  0.29383  1.0000
  C   C115      1.0  0.37874  0.05310  0.46342  1.0000
  N   N8        1.0  0.25005  0.07821  0.29526  1.0000
  H   H102      1.0  0.48170  0.17932  0.32671  1.0000
  N   N9        1.0  0.42443  0.06691  0.46153  1.0000
  H   H103      1.0  0.15907  0.41151  0.34652  1.0000
  H   H104      1.0  0.07372  0.41685  0.34195  1.0000
  C   C116      1.0  0.22174  0.10966  0.29552  1.0000
  H   H105      1.0  0.27299  0.04841  0.29881  1.0000
  C   C117      1.0  0.41602  0.05471  0.44380  1.0000
  H   H106      1.0  0.45048  0.09035  0.47017  1.0000
  C   C118      1.0  0.48680  0.13870  0.39292  1.0000
  H   H107      1.0  0.46008  0.06021  0.46779  1.0000
  N   N10       1.0  0.13742  0.46241  0.46116  1.0000
  C   C119      1.0  0.11533  0.45552  0.45785  1.0000
  C   C120      1.0  0.14309  0.48503  0.45696  1.0000
  C   C121      1.0  0.09821  0.47144  0.45012  1.0000
  S   S45       1.0  0.52607  0.19505  0.31266  1.0000
  C   C122      1.0  0.52426  0.15131  0.37917  1.0000
  H   H108      1.0  0.15780  0.43181  0.45520  1.0000
  H   H109      1.0  0.11100  0.43750  0.46079  1.0000
  H   H110      1.0  0.23424  0.14308  0.30384  1.0000
  C   C123      1.0  0.38768  0.06485  0.48178  1.0000
  C   C124      1.0  0.10383  0.39381  0.34374  1.0000
  C   C125      1.0  0.14036  0.41278  0.34527  1.0000
  H   H111      1.0  0.24261  0.04238  0.29919  1.0000
  H   H112      1.0  0.13679  0.37552  0.34651  1.0000
  H   H113      1.0  0.02971  0.28915  0.38090  1.0000
  C   C126      1.0  0.52342  0.12545  0.32565  1.0000
  H   H114      1.0  0.15074  0.45785  0.32607  1.0000
  H   H115      1.0  0.42699  0.05044  0.42895  1.0000
  H   H116      1.0  0.48708  0.10691  0.28362  1.0000
  C   C127      1.0  0.15505  0.44511  0.46863  1.0000
  C   C128      1.0  0.08592  0.28959  0.39683  1.0000
  C   C129      1.0  0.41074  0.07159  0.48058  1.0000
  H   H117      1.0  0.45413  0.07829  0.44239  1.0000
  H   H118      1.0  0.27490  0.12812  0.30904  1.0000
  H   H119      1.0  0.09050  0.22704  0.36072  1.0000
  H   H120      1.0  0.47510  0.12495  0.39776  1.0000
  S   S46       1.0  0.15821  0.52168  0.39609  1.0000
  C   C130      1.0  0.47909  0.16182  0.39366  1.0000
  N   N11       1.0  0.08091  0.26217  0.36698  1.0000
  C   C131      1.0  0.47013  0.11566  0.28411  1.0000
  N   N12       1.0  0.12909  0.43401  0.34399  1.0000
  C   C132      1.0  0.26680  0.09294  0.30141  1.0000
  H   H121      1.0  0.09095  0.50690  0.43911  1.0000
  H   H122      1.0  0.20404  0.11596  0.29298  1.0000
  C   C133      1.0  0.49425  0.17936  0.38689  1.0000
  H   H123      1.0  0.09644  0.45232  0.34159  1.0000
  C   C134      1.0  0.25599  0.05372  0.29132  1.0000
  C   C135      1.0  0.12792  0.39239  0.34516  1.0000
  H   H124      1.0  0.15633  0.45382  0.35662  1.0000
  H   H125      1.0  0.51547  0.11537  0.38450  1.0000
  H   H126      1.0  0.09730  0.29861  0.40795  1.0000
  C   C136      1.0  0.26142  0.11647  0.30461  1.0000
  C   C137      1.0  0.39302  0.04780  0.44438  1.0000
  C   C138      1.0  0.23869  0.12483  0.30168  1.0000
  H   H127      1.0  0.13159  0.47072  0.34760  1.0000
  H   H128      1.0  0.10871  0.24813  0.34612  1.0000
  H   H129      1.0  0.11344  0.26863  0.38189  1.0000
  H   H130      1.0  0.05518  0.30894  0.40770  1.0000
  H   H131      1.0  0.16215  0.39201  0.50859  1.0000
  H   H132      1.0  0.33915  0.04818  0.29042  1.0000
  C   C139      1.0  0.49345  0.16432  0.32660  1.0000
  C   C140      1.0  0.04802  0.28440  0.38153  1.0000
  H   H133      1.0  0.37660  0.06967  0.49644  1.0000
  C   C141      1.0  0.09497  0.27271  0.38192  1.0000
  S   S47       1.0  0.08755  0.21078  0.29255  1.0000
  S   S48       1.0  0.06405  0.27552  0.29871  1.0000
  S   S49       1.0  0.36456  0.12116  0.51584  1.0000
  H   H134      1.0  0.08058  0.24351  0.33562  1.0000
  C   C142      1.0  0.16330  0.33335  0.51734  1.0000
  H   H135      1.0  0.39022  0.13919  0.28384  1.0000
  H   H136      1.0  0.28451  0.08661  0.30363  1.0000
  C   C143      1.0  0.33964  0.06686  0.29124  1.0000
  H   H137      1.0  0.38636  0.03858  0.42997  1.0000
  C   C144      1.0  0.10381  0.49453  0.44589  1.0000
  H   H138      1.0  0.08096  0.46571  0.44663  1.0000
  C   C145      1.0  0.44619  0.15064  0.28147  1.0000
  H   H139      1.0  0.41376  0.10524  0.29707  1.0000
  H   H140      1.0  0.11045  0.52734  0.38114  1.0000
  C   C146      1.0  0.40427  0.15026  0.28966  1.0000
  H   H141      1.0  0.21468  0.07494  0.28620  1.0000
  C   C147      1.0  0.45052  0.10329  0.29042  1.0000
  H   H142      1.0  0.52271  0.20695  0.36338  1.0000
  N   N13       1.0  0.51643  0.17395  0.37952  1.0000
  C   C148      1.0  0.16853  0.35657  0.52023  1.0000
  H   H143      1.0  0.13111  0.51918  0.44531  1.0000
  H   H144      1.0  0.45218  0.08489  0.29469  1.0000
  H   H145      1.0  0.40335  0.16665  0.27916  1.0000
  N   N14       1.0  0.13999  0.29697  0.61082  1.0000
  Fe  Fe25      1.0  0.36353  0.16674  0.58986  1.0000
  S   S50       1.0  0.35281  0.13078  0.58160  1.0000
  S   S51       1.0  0.33984  0.19222  0.60919  1.0000
  Fe  Fe26      1.0  0.41424  0.15636  0.57658  1.0000
  S   S52       1.0  0.40764  0.11974  0.56717  1.0000
  S   S53       1.0  0.44979  0.17128  0.57075  1.0000
  Fe  Fe27      1.0  0.37606  0.13483  0.54990  1.0000
  Fe  Fe28      1.0  0.38514  0.11848  0.59938  1.0000
  S   S54       1.0  0.38895  0.08740  0.62393  1.0000
  S   S55       1.0  0.38409  0.17186  0.55673  1.0000
  S   S56       1.0  0.39439  0.15399  0.61025  1.0000
  Fe  Fe29      1.0  0.28346  0.48819  0.73024  1.0000
  S   S57       1.0  0.25141  0.50930  0.72066  1.0000
  S   S58       1.0  0.30987  0.50860  0.74912  1.0000
  Fe  Fe30      1.0  0.26766  0.44635  0.70429  1.0000
  S   S59       1.0  0.23505  0.46443  0.69243  1.0000
  S   S60       1.0  0.27262  0.40856  0.69597  1.0000
  Fe  Fe31      1.0  0.25710  0.49516  0.68527  1.0000
  Fe  Fe32      1.0  0.23228  0.47670  0.72867  1.0000
  S   S61       1.0  0.19724  0.47686  0.74654  1.0000
  S   S62       1.0  0.29042  0.47595  0.69403  1.0000
  S   S63       1.0  0.26364  0.45675  0.74146  1.0000
  Fe  Fe33      1.0  0.10416  0.35384  0.72338  1.0000
  S   S64       1.0  0.12656  0.33449  0.74873  1.0000
  S   S65       1.0  0.11390  0.35593  0.68556  1.0000
  Fe  Fe34      1.0  0.07333  0.37547  0.76075  1.0000
  H   H146      1.0  0.29568  0.38448  0.60498  1.0000
  H   H147      1.0  0.45169  0.22575  0.57813  1.0000
  C   C149      1.0  0.14811  0.27340  0.61732  1.0000
  S   S66       1.0  0.10464  0.38793  0.74095  1.0000
  S   S67       1.0  0.07097  0.34289  0.74083  1.0000
  Fe  Fe35      1.0  0.21093  0.30445  0.61315  1.0000
  S   S68       1.0  0.19621  0.33566  0.59400  1.0000
  S   S69       1.0  0.19489  0.29122  0.64677  1.0000
  Fe  Fe36      1.0  0.25044  0.29642  0.57785  1.0000
  S   S70       1.0  0.23887  0.32769  0.55630  1.0000
  S   S71       1.0  0.28248  0.27715  0.56337  1.0000
  Fe  Fe37      1.0  0.23340  0.34531  0.59026  1.0000
  S   S72       1.0  0.24327  0.38226  0.59548  1.0000
  Fe  Fe38      1.0  0.20271  0.31528  0.56198  1.0000
  S   S73       1.0  0.24792  0.31527  0.61130  1.0000
  S   S74       1.0  0.21448  0.28278  0.58147  1.0000
  H   H148      1.0  0.45406  0.22420  0.62071  1.0000
  C   C150      1.0  0.13855  0.33904  0.67783  1.0000
  C   C151      1.0  0.14182  0.31640  0.68671  1.0000
  C   C152      1.0  0.15991  0.30208  0.67785  1.0000
  C   C153      1.0  0.17483  0.31043  0.66026  1.0000
  C   C154      1.0  0.17246  0.33356  0.65264  1.0000
  C   C155      1.0  0.15420  0.34774  0.66117  1.0000
  H   H149      1.0  0.12979  0.30958  0.69962  1.0000
  H   H150      1.0  0.16183  0.28427  0.68405  1.0000
  H   H151      1.0  0.18450  0.34052  0.63996  1.0000
  H   H152      1.0  0.15195  0.36536  0.65450  1.0000
  C   C156      1.0  0.26324  0.40167  0.66835  1.0000
  C   C157      1.0  0.25814  0.37871  0.66377  1.0000
  C   C158      1.0  0.25089  0.37281  0.64177  1.0000
  C   C159      1.0  0.24934  0.38972  0.62402  1.0000
  C   C160      1.0  0.25427  0.41272  0.62867  1.0000
  C   C161      1.0  0.26095  0.41875  0.65085  1.0000
  H   H153      1.0  0.25975  0.36545  0.67728  1.0000
  H   H154      1.0  0.24686  0.35512  0.63851  1.0000
  H   H155      1.0  0.25306  0.42593  0.61506  1.0000
  H   H156      1.0  0.26482  0.43654  0.65424  1.0000
  C   C162      1.0  0.18697  0.44906  0.75348  1.0000
  C   C163      1.0  0.36061  0.04476  0.58791  1.0000
  C   C164      1.0  0.14487  0.30562  0.58907  1.0000
  Fe  Fe39      1.0  0.09364  0.32659  0.76847  1.0000
  H   H157      1.0  0.52437  0.14554  0.65058  1.0000
  H   H158      1.0  0.18072  0.36099  0.53317  1.0000
  C   C165      1.0  0.13734  0.32806  0.58242  1.0000
  C   C166      1.0  0.12688  0.30983  0.62610  1.0000
  C   C167      1.0  0.17044  0.40538  0.76743  1.0000
  H   H159      1.0  0.05204  0.40265  0.71998  1.0000
  C   C168      1.0  0.36508  0.07366  0.63711  1.0000
  C   C169      1.0  0.34232  0.08155  0.63322  1.0000
  C   C170      1.0  0.32378  0.07071  0.64486  1.0000
  C   C171      1.0  0.32790  0.05190  0.66029  1.0000
  H   H160      1.0  0.31246  0.14595  0.64250  1.0000
  C   C172      1.0  0.36915  0.05456  0.65219  1.0000
  H   H161      1.0  0.33902  0.09618  0.62156  1.0000
  H   H162      1.0  0.30618  0.07704  0.64209  1.0000
  H   H163      1.0  0.20369  0.33817  0.71490  1.0000
  H   H164      1.0  0.31213  0.46394  0.77437  1.0000
  C   C173      1.0  0.32320  0.21502  0.59584  1.0000
  C   C174      1.0  0.32643  0.22125  0.57249  1.0000
  C   C175      1.0  0.31364  0.24018  0.56280  1.0000
  C   C176      1.0  0.29722  0.25279  0.57618  1.0000
  C   C177      1.0  0.29379  0.24639  0.59947  1.0000
  C   C178      1.0  0.30687  0.22770  0.60928  1.0000
  H   H165      1.0  0.33877  0.21156  0.56188  1.0000
  H   H166      1.0  0.31635  0.24500  0.54475  1.0000
  H   H167      1.0  0.28123  0.25595  0.60997  1.0000
  H   H168      1.0  0.30424  0.22301  0.62736  1.0000
  H   H169      1.0  0.05854  0.45518  0.74559  1.0000
  N   N15       1.0  0.33699  0.12858  0.66488  1.0000
  H   H170      1.0  0.37326  0.13103  0.65750  1.0000
  C   C179      1.0  0.49807  0.18519  0.63023  1.0000
  C   C180      1.0  0.47580  0.17691  0.63497  1.0000
  C   C181      1.0  0.46117  0.17167  0.61689  1.0000
  C   C182      1.0  0.46855  0.17512  0.59390  1.0000
  C   C183      1.0  0.49092  0.18317  0.58916  1.0000
  C   C184      1.0  0.50573  0.18798  0.60726  1.0000
  H   H171      1.0  0.46979  0.17466  0.65273  1.0000
  H   H172      1.0  0.44401  0.16548  0.62075  1.0000
  H   H173      1.0  0.49676  0.18588  0.57141  1.0000
  C   C185      1.0  0.39587  0.21960  0.61547  1.0000
  C   C186      1.0  0.29114  0.36984  0.56177  1.0000
  C   C187      1.0  0.39504  0.22081  0.59133  1.0000
  C   C188      1.0  0.30763  0.32864  0.62146  1.0000
  C   C189      1.0  0.04220  0.46495  0.74700  1.0000
  H   H174      1.0  0.30197  0.12235  0.67534  1.0000
  Fe  Fe40      1.0  0.12533  0.36797  0.76747  1.0000
  H   H175      1.0  0.22789  0.50194  0.77655  1.0000
  C   C190      1.0  0.32013  0.11769  0.67772  1.0000
  H   H176      1.0  0.33291  0.16433  0.65551  1.0000
  H   H177      1.0  0.38675  0.04837  0.65522  1.0000
  H   H178      1.0  0.35396  0.07883  0.70792  1.0000
  C   C191      1.0  0.29895  0.36597  0.60335  1.0000
  H   H179      1.0  0.14896  0.27095  0.63642  1.0000
  N   N16       1.0  0.29706  0.35579  0.58243  1.0000
  S   S75       1.0  0.51535  0.19250  0.65352  1.0000
  N   N17       1.0  0.41490  0.22333  0.57820  1.0000
  H   H180      1.0  0.15117  0.46076  0.75548  1.0000
  C   C192      1.0  0.43584  0.22469  0.58855  1.0000
  H   H181      1.0  0.37812  0.04631  0.59526  1.0000
  C   C193      1.0  0.43730  0.22368  0.61264  1.0000
  H   H182      1.0  0.30851  0.29982  0.59844  1.0000
  H   H183      1.0  0.38007  0.21729  0.62573  1.0000
  H   H184      1.0  0.29894  0.32423  0.56401  1.0000
  H   H185      1.0  0.31479  0.04805  0.59565  1.0000
  H   H186      1.0  0.35280  0.06264  0.58717  1.0000
  H   H187      1.0  0.27549  0.36306  0.55383  1.0000
  C   C194      1.0  0.12462  0.34158  0.59814  1.0000
  S   S76       1.0  0.16090  0.37823  0.77758  1.0000
  C   C195      1.0  0.41412  0.22396  0.55288  1.0000
  H   H188      1.0  0.28676  0.38817  0.56601  1.0000
  H   H189      1.0  0.37839  0.21943  0.58324  1.0000
  C   C196      1.0  0.35062  0.04368  0.66375  1.0000
  H   H190      1.0  0.20629  0.39383  0.76596  1.0000
  S   S77       1.0  0.25495  0.51547  0.65134  1.0000
  C   C197      1.0  0.35988  0.12264  0.66790  1.0000
  C   C198      1.0  0.36636  0.10488  0.68363  1.0000
  H   H191      1.0  0.16606  0.27004  0.61049  1.0000
  H   H192      1.0  0.36249  0.03827  0.57008  1.0000
  C   C199      1.0  0.33068  0.14704  0.64805  1.0000
  C   C200      1.0  0.30071  0.33237  0.58054  1.0000
  H   H193      1.0  0.05706  0.49235  0.70473  1.0000
  C   C201      1.0  0.32599  0.09975  0.69351  1.0000
  C   C202      1.0  0.34926  0.09327  0.69636  1.0000
  C   C203      1.0  0.20242  0.43003  0.75605  1.0000
  H   H194      1.0  0.34177  0.14578  0.63214  1.0000
  N   N18       1.0  0.18703  0.37180  0.71336  1.0000
  C   C204      1.0  0.16606  0.38351  0.71271  1.0000
  C   C205      1.0  0.20700  0.38293  0.70752  1.0000
  C   C206      1.0  0.16466  0.40696  0.70594  1.0000
  C   C207      1.0  0.20621  0.40632  0.70053  1.0000
  C   C208      1.0  0.18492  0.41843  0.69988  1.0000
  C   C209      1.0  0.18814  0.34767  0.72193  1.0000
  H   H195      1.0  0.15032  0.37478  0.71773  1.0000
  H   H196      1.0  0.22373  0.37388  0.70841  1.0000
  H   H197      1.0  0.14801  0.41621  0.70583  1.0000
  H   H198      1.0  0.22208  0.41505  0.69601  1.0000
  H   H199      1.0  0.18420  0.43674  0.69504  1.0000
  H   H200      1.0  0.17278  0.33827  0.71654  1.0000
  H   H201      1.0  0.18847  0.34726  0.74115  1.0000
  C   C210      1.0  0.30618  0.31847  0.59997  1.0000
  C   C211      1.0  0.41717  0.22100  0.62615  1.0000
  H   H202      1.0  0.31112  0.31795  0.63677  1.0000
  H   H203      1.0  0.30460  0.36067  0.63987  1.0000
  H   H204      1.0  0.13645  0.26053  0.61038  1.0000
  H   H205      1.0  0.11909  0.35918  0.59336  1.0000
  H   H206      1.0  0.03182  0.42458  0.68851  1.0000
  H   H207      1.0  0.12278  0.30293  0.64328  1.0000
  H   H208      1.0  0.41816  0.21972  0.64484  1.0000
  H   H209      1.0  0.38447  0.09953  0.68516  1.0000
  H   H210      1.0  0.13653  0.42205  0.76731  1.0000
  C   C212      1.0  0.11917  0.33238  0.62009  1.0000
  H   H211      1.0  0.46161  0.45128  0.76958  1.0000
  H   H212      1.0  0.29296  0.52664  0.68291  1.0000
  C   C213      1.0  0.30405  0.35255  0.62319  1.0000
  H   H213      1.0  0.31254  0.09032  0.70282  1.0000
  H   H214      1.0  0.15496  0.29528  0.57684  1.0000
  H   H215      1.0  0.42315  0.20818  0.54599  1.0000
  H   H216      1.0  0.42284  0.23952  0.54567  1.0000
  H   H217      1.0  0.14172  0.33498  0.56527  1.0000
  H   H218      1.0  0.10948  0.34278  0.63263  1.0000
  S   S78       1.0  0.17564  0.31066  0.53475  1.0000
  C   C214      1.0  0.04624  0.47682  0.70608  1.0000
  S   S79       1.0  0.30438  0.03945  0.67535  1.0000
  C   C215      1.0  0.15487  0.42418  0.76403  1.0000
  C   C216      1.0  0.03521  0.41085  0.72334  1.0000
  H   H219      1.0  0.30578  0.36946  0.54900  1.0000
  H   H220      1.0  0.39605  0.22449  0.54662  1.0000
  C   C217      1.0  0.16318  0.44608  0.75740  1.0000
  C   C218      1.0  0.32294  0.03296  0.60406  1.0000
  H   H221      1.0  0.26077  0.52894  0.76754  1.0000
  H   H222      1.0  0.52286  0.19436  0.60342  1.0000
  C   C219      1.0  0.19420  0.40835  0.76340  1.0000
  S   S80       1.0  0.04070  0.39702  0.76898  1.0000
  H   H223      1.0  0.22076  0.43207  0.75295  1.0000
  H   H224      1.0  0.05753  0.46094  0.70439  1.0000
  C   C220      1.0  0.03000  0.46460  0.76818  1.0000
  H   H225      1.0  0.35394  0.02919  0.67562  1.0000
  H   H226      1.0  0.14470  0.03186  0.77378  1.0000
  C   C221      1.0  0.32610  0.49806  0.77306  1.0000
  N   N19       1.0  0.03317  0.47650  0.72813  1.0000
  H   H227      1.0  0.03428  0.47703  0.69127  1.0000
  H   H228      1.0  0.42163  0.46817  0.77546  1.0000
  Fe  Fe41      1.0  0.44198  0.46976  0.87029  1.0000
  S   S81       1.0  0.40659  0.46614  0.88643  1.0000
  S   S82       1.0  0.46327  0.43618  0.87130  1.0000
  C   C222      1.0  0.43683  0.44029  0.98194  1.0000
  H   H229      1.0  0.41905  0.41864  0.85602  1.0000
  Fe  Fe42      1.0  0.41332  0.49837  0.90535  1.0000
  S   S83       1.0  0.41176  0.50472  0.94379  1.0000
  Fe  Fe43      1.0  0.39429  0.48964  0.85709  1.0000
  S   S84       1.0  0.36384  0.47410  0.83914  1.0000
  S   S85       1.0  0.44974  0.50018  0.89140  1.0000
  S   S86       1.0  0.42967  0.49151  0.83998  1.0000
  Fe  Fe44      1.0  0.05287  0.20212  0.94228  1.0000
  S   S87       1.0  0.05420  0.20039  0.90363  1.0000
  Fe  Fe45      1.0  0.10580  0.19614  0.94621  1.0000
  S   S88       1.0  0.11110  0.19293  0.90778  1.0000
  S   S89       1.0  0.13702  0.19111  0.96912  1.0000
  Fe  Fe46      1.0  0.08525  0.22304  0.90503  1.0000
  S   S90       1.0  0.09335  0.25783  0.88759  1.0000
  Fe  Fe47      1.0  0.07984  0.17052  0.90976  1.0000
  S   S91       1.0  0.07271  0.13512  0.89600  1.0000
  S   S92       1.0  0.08172  0.22717  0.94361  1.0000
  S   S93       1.0  0.07682  0.17131  0.94837  1.0000
  H   H230      1.0  0.49573  0.39794  0.86681  1.0000
  C   C223      1.0  0.42826  0.45455  0.78706  1.0000
  H   H231      1.0  0.44244  0.44722  0.99801  1.0000
  S   S94       1.0  0.15198  0.05768  0.88183  1.0000
  H   H232      1.0  0.12098  0.26172  0.01323  1.0000
  H   H233      1.0  0.45533  0.46539  0.96075  1.0000
  C   C224      1.0  0.14179  0.21082  0.99122  1.0000
  C   C225      1.0  0.16153  0.20770  0.00484  1.0000
  C   C226      1.0  0.52499  0.42318  0.82145  1.0000
  H   H234      1.0  0.17301  0.19273  0.00239  1.0000
  H   H235      1.0  0.03466  0.26473  0.82145  1.0000
  C   C227      1.0  0.12698  0.23013  0.99467  1.0000
  S   S95       1.0  0.35881  0.43572  0.01232  1.0000
  H   H236      1.0  0.24762  0.43983  0.81452  1.0000
  H   H237      1.0  0.22791  0.04622  0.82612  1.0000
  H   H238      1.0  0.11164  0.23264  0.98445  1.0000
  C   C228      1.0  0.09495  0.11419  0.89030  1.0000
  C   C229      1.0  0.11833  0.11966  0.89074  1.0000
  C   C230      1.0  0.13561  0.10223  0.88751  1.0000
  C   C231      1.0  0.12967  0.07922  0.88390  1.0000
  C   C232      1.0  0.10630  0.07382  0.88298  1.0000
  C   C233      1.0  0.08900  0.09130  0.88608  1.0000
  H   H239      1.0  0.12307  0.13731  0.89355  1.0000
  H   H240      1.0  0.15368  0.10653  0.88806  1.0000
  H   H241      1.0  0.10153  0.05617  0.88015  1.0000
  H   H242      1.0  0.07093  0.08700  0.88557  1.0000
  C   C234      1.0  0.09206  0.26597  0.85790  1.0000
  C   C235      1.0  0.08559  0.25061  0.84116  1.0000
  C   C236      1.0  0.08440  0.25809  0.81781  1.0000
  C   C237      1.0  0.08945  0.28100  0.81103  1.0000
  C   C238      1.0  0.09619  0.29627  0.82774  1.0000
  C   C239      1.0  0.09746  0.28877  0.85106  1.0000
  H   H243      1.0  0.08152  0.23298  0.84619  1.0000
  H   H244      1.0  0.07936  0.24609  0.80496  1.0000
  H   H245      1.0  0.10020  0.31391  0.82276  1.0000
  H   H246      1.0  0.10260  0.30075  0.86388  1.0000
  C   C240      1.0  0.39671  0.48563  0.96264  1.0000
  C   C241      1.0  0.39982  0.48675  0.98657  1.0000
  C   C242      1.0  0.38841  0.47145  0.00203  1.0000
  C   C243      1.0  0.37348  0.45524  0.99362  1.0000
  C   C244      1.0  0.37028  0.45424  0.96971  1.0000
  C   C245      1.0  0.38201  0.46924  0.95423  1.0000
  H   H247      1.0  0.41111  0.49947  0.99318  1.0000
  H   H248      1.0  0.28364  0.45858  0.82636  1.0000
  H   H249      1.0  0.35866  0.44180  0.96314  1.0000
  H   H250      1.0  0.37939  0.46836  0.93584  1.0000
  C   C246      1.0  0.35035  0.48358  0.81319  1.0000
  C   C247      1.0  0.32357  0.47565  0.78239  1.0000
  H   H251      1.0  0.47626  0.42020  0.79662  1.0000
  C   C248      1.0  0.35338  0.50575  0.80348  1.0000
  C   C249      1.0  0.04324  0.33222  0.82902  1.0000
  Fe  Fe48      1.0  0.43412  0.52216  0.86291  1.0000
  H   H252      1.0  0.40289  0.39944  0.96217  1.0000
  H   H253      1.0  0.39717  0.45404  0.80813  1.0000
  H   H254      1.0  0.04970  0.33913  0.84477  1.0000
  C   C250      1.0  0.50041  0.41103  0.85394  1.0000
  C   C251      1.0  0.48773  0.43218  0.85275  1.0000
  C   C252      1.0  0.49391  0.44900  0.83606  1.0000
  H   H255      1.0  0.33308  0.45133  0.80984  1.0000
  N   N20       1.0  0.42209  0.42220  0.98223  1.0000
  H   H256      1.0  0.48421  0.46534  0.83498  1.0000
  H   H257      1.0  0.09121  0.11397  0.94647  1.0000
  N   N21       1.0  0.16483  0.25980  0.96209  1.0000
  C   C253      1.0  0.15767  0.24657  0.94452  1.0000
  C   C254      1.0  0.15200  0.27897  0.96867  1.0000
  C   C255      1.0  0.13713  0.25238  0.93309  1.0000
  C   C256      1.0  0.13121  0.28511  0.95778  1.0000
  C   C257      1.0  0.12383  0.27175  0.93982  1.0000
  C   C258      1.0  0.18699  0.25409  0.97308  1.0000
  H   H258      1.0  0.16763  0.23119  0.93947  1.0000
  H   H259      1.0  0.15754  0.28931  0.98279  1.0000
  C   C259      1.0  0.13230  0.24658  0.01103  1.0000
  H   H260      1.0  0.12083  0.30005  0.96329  1.0000
  C   C260      1.0  0.41494  0.41142  0.00442  1.0000
  H   H261      1.0  0.20136  0.26201  0.96289  1.0000
  H   H262      1.0  0.18710  0.26051  0.99104  1.0000
  H   H263      1.0  0.19013  0.23499  0.97437  1.0000
  C   C261      1.0  0.04006  0.30839  0.82738  1.0000
  C   C262      1.0  0.10614  0.10204  0.94573  1.0000
  C   C263      1.0  0.41451  0.44656  0.80568  1.0000
  C   C264      1.0  0.44471  0.42022  0.81746  1.0000
  H   H264      1.0  0.21952  0.46200  0.78988  1.0000
  C   C265      1.0  0.51906  0.40657  0.83844  1.0000
  C   C266      1.0  0.02935  0.27452  0.80552  1.0000
  C   C267      1.0  0.44431  0.45053  0.96096  1.0000
  C   C268      1.0  0.21113  0.04304  0.81903  1.0000
  C   C269      1.0  0.27119  0.46802  0.81560  1.0000
  H   H265      1.0  0.03432  0.14776  0.95444  1.0000
  C   C270      1.0  0.25105  0.45753  0.80897  1.0000
  H   H266      1.0  0.16432  0.10166  0.94639  1.0000
  H   H267      1.0  0.39844  0.40220  0.00303  1.0000
  H   H268      1.0  0.51694  0.45737  0.80729  1.0000
  H   H269      1.0  0.42863  0.39900  0.01074  1.0000
  H   H270      1.0  0.39465  0.43472  0.84493  1.0000
  C   C271      1.0  0.51242  0.44444  0.82038  1.0000
  C   C272      1.0  0.41472  0.41365  0.96195  1.0000
  N   N22       1.0  0.42301  0.42995  0.82086  1.0000
  C   C273      1.0  0.43689  0.44195  0.94021  1.0000
  C   C274      1.0  0.23530  0.46993  0.79508  1.0000
  C   C275      1.0  0.19086  0.04812  0.83177  1.0000
  H   H271      1.0  0.15919  0.06022  0.93858  1.0000
  S   S96       1.0  0.39776  0.52202  0.87782  1.0000
  C   C276      1.0  0.45883  0.42761  0.79888  1.0000
  C   C277      1.0  0.14694  0.09526  0.94548  1.0000
  H   H272      1.0  0.11964  0.14077  0.96620  1.0000
  C   C278      1.0  0.13098  0.13474  0.95162  1.0000
  C   C279      1.0  0.14419  0.07177  0.94123  1.0000
  H   H273      1.0  0.13142  0.24187  0.91919  1.0000
  N   N23       1.0  0.12802  0.11001  0.94785  1.0000
  S   S97       1.0  0.09416  0.35859  0.78958  1.0000
  C   C280      1.0  0.12195  0.06344  0.93931  1.0000
  H   H274      1.0  0.10774  0.27625  0.93116  1.0000
  N   N24       1.0  0.26009  0.50259  0.79391  1.0000
  C   C281      1.0  0.10276  0.07864  0.94158  1.0000
  C   C282      1.0  0.15246  0.24391  0.02404  1.0000
  H   H275      1.0  0.14905  0.13862  0.95601  1.0000
  H   H276      1.0  0.19167  0.05542  0.84881  1.0000
  H   H277      1.0  0.11967  0.04543  0.93519  1.0000
  H   H278      1.0  0.12641  0.14509  0.93581  1.0000
  H   H279      1.0  0.15378  0.04714  0.83278  1.0000
  H   H280      1.0  0.44248  0.44984  0.92383  1.0000
  C   C283      1.0  0.34118  0.51299  0.78359  1.0000
  H   H281      1.0  0.45146  0.40704  0.82949  1.0000
  H   H282      1.0  0.08545  0.07253  0.93916  1.0000
  C   C284      1.0  0.16686  0.22418  0.02123  1.0000
  C   C285      1.0  0.33547  0.46856  0.80249  1.0000
  H   H283      1.0  0.41590  0.41687  0.92457  1.0000
  C   C286      1.0  0.42197  0.42342  0.94065  1.0000
  C   C287      1.0  0.16941  0.04328  0.82263  1.0000
  C   C288      1.0  0.03848  0.34693  0.81006  1.0000
  C   C289      1.0  0.45061  0.44507  0.78376  1.0000
  H   H284      1.0  0.29104  0.49881  0.81334  1.0000
  C   C290      1.0  0.24014  0.49256  0.78760  1.0000
  H   H285      1.0  0.36472  0.51752  0.81157  1.0000
  C   C291      1.0  0.40850  0.42170  0.84034  1.0000
  C   C292      1.0  0.20973  0.03329  0.79735  1.0000
  C   C293      1.0  0.27532  0.49080  0.80809  1.0000
  H   H286      1.0  0.04106  0.36544  0.81094  1.0000
  H   H287      1.0  0.40027  0.40537  0.83587  1.0000
  S   S98       1.0  0.08526  0.29033  0.78196  1.0000
  H   H288      1.0  0.41155  0.42481  0.01760  1.0000
  H   H289      1.0  0.39080  0.47249  0.02044  1.0000
  H   H290      1.0  0.13109  0.03646  0.80157  1.0000
  H   H291      1.0  0.03679  0.45452  0.78278  1.0000
  N   N25       1.0  0.16820  0.03350  0.80143  1.0000
  C   C294      1.0  0.26456  0.52646  0.78619  1.0000
  H   H292      1.0  0.04420  0.29702  0.84207  1.0000
  N   N26       1.0  0.03266  0.29948  0.80727  1.0000
  H   H293      1.0  0.04022  0.26763  0.79096  1.0000
  C   C295      1.0  0.03094  0.33769  0.78967  1.0000
  C   C296      1.0  0.02827  0.31377  0.78851  1.0000
  Fe  Fe49      1.0  0.18519  0.95787  0.05891  1.0000
  S   S99       1.0  0.18607  0.92010  0.05184  1.0000
  Fe  Fe50      1.0  0.19603  0.94937  0.10954  1.0000
  S   S100      1.0  0.19770  0.91041  0.10659  1.0000
  S   S101      1.0  0.19990  0.96585  0.14427  1.0000
  Fe  Fe51      1.0  0.21766  0.91747  0.07352  1.0000
  S   S102      1.0  0.25006  0.89851  0.06004  1.0000
  Fe  Fe52      1.0  0.16578  0.91585  0.08522  1.0000
  S   S103      1.0  0.13644  0.89077  0.08391  1.0000
  S   S104      1.0  0.21856  0.95608  0.07813  1.0000
  S   S105      1.0  0.16245  0.95410  0.09078  1.0000
  Fe  Fe53      1.0  0.50212  0.68983  0.24931  1.0000
  Fe  Fe54      1.0  0.47781  0.72083  0.21338  1.0000
  S   S106      1.0  0.45518  0.73887  0.23969  1.0000
  S   S107      1.0  0.47390  0.72481  0.17479  1.0000
  C   C297      1.0  0.27879  0.90609  0.10843  1.0000
  H   H294      1.0  0.42980  0.69605  0.18482  1.0000
  S   S108      1.0  0.51043  0.72439  0.23321  1.0000
  S   S109      1.0  0.47142  0.68494  0.22729  1.0000
  Fe  Fe55      1.0  0.34218  0.73180  0.09112  1.0000
  S   S110      1.0  0.33174  0.75745  0.11804  1.0000
  S   S111      1.0  0.33915  0.69302  0.09356  1.0000
  Fe  Fe56      1.0  0.36269  0.76806  0.05871  1.0000
  S   S112      1.0  0.35372  0.79735  0.08273  1.0000
  Fe  Fe57      1.0  0.36647  0.77243  0.11061  1.0000
  S   S113      1.0  0.38713  0.78471  0.14024  1.0000
  Fe  Fe58      1.0  0.31944  0.78040  0.08833  1.0000
  S   S114      1.0  0.28369  0.79738  0.09413  1.0000
  S   S115      1.0  0.37817  0.74480  0.08617  1.0000
  S   S116      1.0  0.32721  0.75315  0.06183  1.0000
  Fe  Fe59      1.0  0.34259  0.59236  0.22307  1.0000
  S   S117      1.0  0.31263  0.61372  0.23712  1.0000
  S   S118      1.0  0.37893  0.59502  0.23597  1.0000
  Fe  Fe60      1.0  0.31291  0.56771  0.18888  1.0000
  S   S119      1.0  0.28062  0.58759  0.20029  1.0000
  C   C298      1.0  0.04151  0.85232  0.17865  1.0000
  Fe  Fe61      1.0  0.30342  0.61839  0.19969  1.0000
  S   S120      1.0  0.29169  0.65362  0.18559  1.0000
  Fe  Fe62      1.0  0.29280  0.58093  0.23650  1.0000
  C   C299      1.0  0.03959  0.80593  0.22519  1.0000
  S   S121      1.0  0.33479  0.59913  0.18570  1.0000
  S   S122      1.0  0.32371  0.55888  0.22510  1.0000
  H   H295      1.0  0.24998  0.61107  0.26242  1.0000
  C   C300      1.0  0.30576  0.66467  0.16049  1.0000
  C   C301      1.0  0.32165  0.65103  0.14780  1.0000
  C   C302      1.0  0.33210  0.65998  0.12746  1.0000
  C   C303      1.0  0.32688  0.68273  0.11980  1.0000
  C   C304      1.0  0.31113  0.69651  0.13256  1.0000
  C   C305      1.0  0.30050  0.68744  0.15279  1.0000
  H   H296      1.0  0.32559  0.63342  0.15327  1.0000
  H   H297      1.0  0.34418  0.64922  0.11759  1.0000
  H   H298      1.0  0.30665  0.71395  0.12652  1.0000
  H   H299      1.0  0.28806  0.69805  0.16242  1.0000
  C   C306      1.0  0.21583  0.00197  0.16853  1.0000
  H   H300      1.0  0.42056  0.67636  0.20773  1.0000
  H   H301      1.0  0.35482  0.63971  0.24115  1.0000
  C   C307      1.0  0.38863  0.62284  0.24191  1.0000
  C   C308      1.0  0.41225  0.62586  0.24556  1.0000
  C   C309      1.0  0.42024  0.64760  0.25153  1.0000
  H   H302      1.0  0.42441  0.61128  0.24395  1.0000
  H   H303      1.0  0.27375  0.94257  0.10050  1.0000
  C   C310      1.0  0.44911  0.74082  0.16603  1.0000
  C   C311      1.0  0.43746  0.73427  0.14640  1.0000
  C   C312      1.0  0.41806  0.74731  0.13864  1.0000
  C   C313      1.0  0.41051  0.76721  0.15023  1.0000
  C   C314      1.0  0.42226  0.77382  0.16977  1.0000
  C   C315      1.0  0.44135  0.76051  0.17783  1.0000
  H   H304      1.0  0.44343  0.71905  0.13721  1.0000
  H   H305      1.0  0.40918  0.74206  0.12358  1.0000
  H   H306      1.0  0.41655  0.78927  0.17876  1.0000
  H   H307      1.0  0.45042  0.76582  0.19285  1.0000
  C   C316      1.0  0.11060  0.89531  0.10050  1.0000
  C   C317      1.0  0.09118  0.88218  0.09614  1.0000
  C   C318      1.0  0.07053  0.88497  0.10940  1.0000
  C   C319      1.0  0.06931  0.90067  0.12740  1.0000
  C   C320      1.0  0.08872  0.91378  0.13176  1.0000
  C   C321      1.0  0.10923  0.91127  0.11826  1.0000
  H   H308      1.0  0.09211  0.86979  0.08246  1.0000
  H   H309      1.0  0.05571  0.87478  0.10587  1.0000
  H   H310      1.0  0.08795  0.92592  0.14568  1.0000
  H   H311      1.0  0.12408  0.92141  0.12182  1.0000
  C   C322      1.0  0.25892  0.87023  0.06940  1.0000
  C   C323      1.0  0.24483  0.85663  0.08391  1.0000
  C   C324      1.0  0.25269  0.83434  0.09128  1.0000
  C   C325      1.0  0.27473  0.82554  0.08442  1.0000
  C   C326      1.0  0.28887  0.83923  0.07005  1.0000
  C   C327      1.0  0.28092  0.86143  0.06249  1.0000
  H   H312      1.0  0.22790  0.86324  0.08943  1.0000
  H   H313      1.0  0.24166  0.82382  0.10239  1.0000
  H   H314      1.0  0.30583  0.83261  0.06461  1.0000
  H   H315      1.0  0.29193  0.87186  0.05126  1.0000
  H   H316      1.0  0.42354  0.70634  0.21358  1.0000
  H   H317      1.0  0.12789  0.88102  0.03493  1.0000
  H   H318      1.0  0.33115  0.71418  0.17625  1.0000
  C   C328      1.0  0.46901  0.77375  0.11382  1.0000
  H   H319      1.0  0.40576  0.80349  0.05317  1.0000
  S   S123      1.0  0.30746  0.54308  0.15974  1.0000
  C   C329      1.0  0.21704  0.99030  0.14755  1.0000
  C   C330      1.0  0.23147  0.99852  0.12959  1.0000
  C   C331      1.0  0.25651  0.89166  0.14125  1.0000
  C   C332      1.0  0.26940  0.92827  0.11221  1.0000
  H   H320      1.0  0.16940  0.02477  0.14542  1.0000
  H   H321      1.0  0.23256  0.98973  0.11336  1.0000
  H   H322      1.0  0.07195  0.65748  0.27015  1.0000
  Fe  Fe63      1.0  0.45072  0.70297  0.25498  1.0000
  N   N27       1.0  0.45158  0.78205  0.09725  1.0000
  C   C333      1.0  0.45380  0.77570  0.07468  1.0000
  C   C334      1.0  0.43357  0.79645  0.10417  1.0000
  S   S124      1.0  0.04421  0.90383  0.14535  1.0000
  C   C335      1.0  0.17607  0.01674  0.10970  1.0000
  H   H323      1.0  0.46815  0.76443  0.06910  1.0000
  Fe  Fe64      1.0  0.48703  0.73946  0.26130  1.0000
  H   H324      1.0  0.50670  0.62211  0.18656  1.0000
  H   H325      1.0  0.27898  0.87017  0.11963  1.0000
  H   H326      1.0  0.43181  0.80173  0.12199  1.0000
  C   C336      1.0  0.41676  0.80423  0.08851  1.0000
  H   H327      1.0  0.46383  0.77792  0.13191  1.0000
  H   H328      1.0  0.36868  0.67777  0.25288  1.0000
  H   H329      1.0  0.20474  0.99569  0.18253  1.0000
  H   H330      1.0  0.48587  0.78179  0.10971  1.0000
  N   N28       1.0  0.03782  0.82995  0.19059  1.0000
  C   C337      1.0  0.02915  0.78817  0.21384  1.0000
  C   C338      1.0  0.18852  0.02258  0.08952  1.0000
  H   H331      1.0  0.52071  0.60589  0.23659  1.0000
  C   C339      1.0  0.22847  0.02210  0.17137  1.0000
  H   H332      1.0  0.47129  0.75455  0.11331  1.0000
  S   S125      1.0  0.27244  0.56499  0.26669  1.0000
  H   H333      1.0  0.36347  0.72408  0.03655  1.0000
  S   S126      1.0  0.17606  0.98544  0.03187  1.0000
  H   H334      1.0  0.40213  0.81503  0.09435  1.0000
  C   C340      1.0  0.52111  0.62931  0.19614  1.0000
  C   C341      1.0  0.36738  0.70514  0.03570  1.0000
  C   C342      1.0  0.04374  0.82688  0.21326  1.0000
  C   C343      1.0  0.43757  0.78361  0.05844  1.0000
  C   C344      1.0  0.16455  0.87280  0.03150  1.0000
  N   N29       1.0  0.28064  0.61632  0.12673  1.0000
  C   C345      1.0  0.28932  0.62691  0.10707  1.0000
  C   C346      1.0  0.26530  0.62801  0.14095  1.0000
  C   C347      1.0  0.28233  0.64967  0.10097  1.0000
  C   C348      1.0  0.25782  0.65073  0.13530  1.0000
  C   C349      1.0  0.26644  0.66160  0.11519  1.0000
  C   C350      1.0  0.28920  0.59298  0.13346  1.0000
  H   H335      1.0  0.30225  0.61800  0.09635  1.0000
  H   H336      1.0  0.25942  0.62014  0.15721  1.0000
  H   H337      1.0  0.28992  0.65836  0.08586  1.0000
  H   H338      1.0  0.24637  0.66020  0.14710  1.0000
  H   H339      1.0  0.26155  0.67955  0.11112  1.0000
  H   H340      1.0  0.27654  0.58382  0.14494  1.0000
  H   H341      1.0  0.29241  0.58201  0.11816  1.0000
  H   H342      1.0  0.30566  0.59399  0.14285  1.0000
  N   N30       1.0  0.39409  0.69947  0.19409  1.0000
  C   C351      1.0  0.38775  0.72171  0.18767  1.0000
  C   C352      1.0  0.37827  0.68233  0.19424  1.0000
  C   C353      1.0  0.36514  0.72730  0.18086  1.0000
  C   C354      1.0  0.35534  0.68739  0.18809  1.0000
  C   C355      1.0  0.34882  0.71001  0.18122  1.0000
  C   C356      1.0  0.41817  0.69421  0.20029  1.0000
  H   H343      1.0  0.40025  0.73525  0.18786  1.0000
  H   H344      1.0  0.38327  0.66465  0.19931  1.0000
  H   H345      1.0  0.36038  0.74496  0.17537  1.0000
  H   H346      1.0  0.34274  0.67384  0.18866  1.0000
  H   H347      1.0  0.04434  0.85027  0.15972  1.0000
  N   N31       1.0  0.24787  0.91359  0.14523  1.0000
  C   C357      1.0  0.41877  0.79771  0.06551  1.0000
  H   H348      1.0  0.21312  0.91621  0.15776  1.0000
  H   H349      1.0  0.51370  0.63880  0.21124  1.0000
  C   C358      1.0  0.38089  0.66331  0.25075  1.0000
  C   C359      1.0  0.27230  0.88762  0.12297  1.0000
  C   C360      1.0  0.37302  0.64176  0.24410  1.0000
  H   H350      1.0  0.25112  0.87709  0.15209  1.0000
  H   H351      1.0  0.23364  0.90472  0.17869  1.0000
  C   C361      1.0  0.25389  0.93174  0.13083  1.0000
  H   H352      1.0  0.23258  0.93508  0.17129  1.0000
  C   C362      1.0  0.40450  0.66629  0.25449  1.0000
  C   C363      1.0  0.23101  0.91749  0.16420  1.0000
  H   H353      1.0  0.20652  0.86433  0.04648  1.0000
  C   C364      1.0  0.41517  0.73953  0.03020  1.0000
  H   H354      1.0  0.24655  0.94900  0.13358  1.0000
  H   H355      1.0  0.43845  0.64972  0.25454  1.0000
  H   H356      1.0  0.05710  0.86076  0.18493  1.0000
  S   S127      1.0  0.41369  0.69347  0.26306  1.0000
  H   H357      1.0  0.29040  0.90306  0.09370  1.0000
  H   H358      1.0  0.40930  0.73842  0.04801  1.0000
  H   H359      1.0  0.03307  0.98612  0.18830  1.0000
  H   H360      1.0  0.05138  0.84079  0.22236  1.0000
  H   H361      1.0  0.37736  0.70016  0.05137  1.0000
  H   H362      1.0  0.35057  0.56788  0.27245  1.0000
  H   H363      1.0  0.16475  0.86262  0.04757  1.0000
  H   H364      1.0  0.11384  0.65355  0.27816  1.0000
  H   H365      1.0  0.25540  0.02475  0.11854  1.0000
  H   H366      1.0  0.35083  0.69584  0.03654  1.0000
  H   H367      1.0  0.40264  0.67426  0.03061  1.0000
  H   H368      1.0  0.44245  0.71347  0.03481  1.0000
  C   C365      1.0  0.24179  0.60164  0.27664  1.0000
  H   H369      1.0  0.43942  0.77870  0.04051  1.0000
  H   H370      1.0  0.16496  0.00193  0.11021  1.0000
  H   H371      1.0  0.04363  0.80369  0.24337  1.0000
  H   H372      1.0  0.35542  0.53467  0.17310  1.0000
  C   C366      1.0  0.24435  0.01843  0.13255  1.0000
  H   H373      1.0  0.18691  0.01247  0.07410  1.0000
  H   H374      1.0  0.03725  0.94984  0.16594  1.0000
  N   N32       1.0  0.11084  0.62150  0.29709  1.0000
  N   N33       1.0  0.46197  0.91318  0.32972  1.0000
  H   H375      1.0  0.36156  0.60634  0.28231  1.0000
  S   S128      1.0  0.50756  0.87177  0.37684  1.0000
  Fe  Fe65      1.0  0.47777  0.86955  0.43771  1.0000
  S   S129      1.0  0.45769  0.87744  0.40541  1.0000
  S   S130      1.0  0.46429  0.87156  0.47488  1.0000
  Fe  Fe66      1.0  0.47967  0.84833  0.38988  1.0000
  S   S131      1.0  0.46190  0.82122  0.36925  1.0000
  Fe  Fe67      1.0  0.48718  0.90024  0.39479  1.0000
  S   S132      1.0  0.48705  0.93510  0.37569  1.0000
  S   S133      1.0  0.49762  0.83890  0.42313  1.0000
  S   S134      1.0  0.50562  0.89481  0.42823  1.0000
  Fe  Fe68      1.0  0.15792  0.60840  0.40548  1.0000
  S   S135      1.0  0.12868  0.58357  0.40743  1.0000
  S   S136      1.0  0.16822  0.63346  0.43287  1.0000
  Fe  Fe69      1.0  0.16889  0.59897  0.35415  1.0000
  S   S137      1.0  0.14037  0.57346  0.35214  1.0000
  S   S138      1.0  0.18893  0.61378  0.32295  1.0000
  Fe  Fe70      1.0  0.11863  0.59900  0.37273  1.0000
  S   S139      1.0  0.08065  0.60581  0.36471  1.0000
  Fe  Fe71      1.0  0.15255  0.56001  0.38679  1.0000
  S   S140      1.0  0.14599  0.62548  0.37222  1.0000
  S   S141      1.0  0.18290  0.58380  0.38738  1.0000
  H   H376      1.0  0.17319  0.65559  0.51355  1.0000
  H   H377      1.0  0.21805  0.61380  0.45799  1.0000
  S   S142      1.0  0.38542  0.80910  0.51924  1.0000
  H   H378      1.0  0.45823  0.01537  0.36477  1.0000
  C   C367      1.0  0.45845  0.87183  0.33263  1.0000
  C   C368      1.0  0.22909  0.66072  0.48851  1.0000
  C   C369      1.0  0.07030  0.63201  0.35140  1.0000
  C   C370      1.0  0.08546  0.64869  0.34265  1.0000
  C   C371      1.0  0.07695  0.66757  0.32905  1.0000
  C   C372      1.0  0.44312  0.91610  0.34429  1.0000
  C   C373      1.0  0.43925  0.87462  0.34750  1.0000
  C   C374      1.0  0.30721  0.59550  0.30057  1.0000
  H   H379      1.0  0.10381  0.64661  0.34565  1.0000
  H   H380      1.0  0.08890  0.67988  0.32156  1.0000
  C   C375      1.0  0.29894  0.61805  0.30488  1.0000
  C   C376      1.0  0.09619  0.60514  0.30589  1.0000
  C   C377      1.0  0.21238  0.59999  0.30785  1.0000
  H   H381      1.0  0.22268  0.59468  0.49645  1.0000
  C   C378      1.0  0.06377  0.62554  0.28819  1.0000
  C   C379      1.0  0.22014  0.57739  0.31354  1.0000
  C   C380      1.0  0.24933  0.57894  0.28215  1.0000
  H   H382      1.0  0.34663  0.85221  0.51164  1.0000
  H   H383      1.0  0.21186  0.56793  0.32769  1.0000
  C   C381      1.0  0.47363  0.80671  0.34472  1.0000
  C   C382      1.0  0.46103  0.78905  0.33510  1.0000
  C   C383      1.0  0.46927  0.77771  0.31509  1.0000
  C   C384      1.0  0.49009  0.78418  0.30430  1.0000
  C   C385      1.0  0.50276  0.80177  0.31397  1.0000
  C   C386      1.0  0.49466  0.81291  0.33413  1.0000
  H   H384      1.0  0.44472  0.78415  0.34313  1.0000
  H   H385      1.0  0.45931  0.76424  0.30786  1.0000
  C   C387      1.0  0.42000  0.84113  0.52102  1.0000
  H   H386      1.0  0.50456  0.82644  0.34133  1.0000
  C   C388      1.0  0.43569  0.99623  0.38788  1.0000
  C   C389      1.0  0.45525  0.99885  0.37346  1.0000
  C   C390      1.0  0.47094  0.98000  0.37014  1.0000
  C   C391      1.0  0.46737  0.95847  0.38137  1.0000
  C   C392      1.0  0.44786  0.95583  0.39588  1.0000
  C   C393      1.0  0.43203  0.97465  0.39904  1.0000
  Fe  Fe72      1.0  0.52393  0.86484  0.41131  1.0000
  H   H387      1.0  0.48599  0.98216  0.35886  1.0000
  H   H388      1.0  0.44489  0.93931  0.40454  1.0000
  H   H389      1.0  0.41690  0.97251  0.41019  1.0000
  C   C394      1.0  0.33724  0.56789  0.28669  1.0000
  C   C395      1.0  0.41675  0.82145  0.48499  1.0000
  C   C396      1.0  0.43401  0.83530  0.47469  1.0000
  C   C397      1.0  0.44421  0.85222  0.48753  1.0000
  C   C398      1.0  0.43747  0.85476  0.51083  1.0000
  H   H390      1.0  0.50620  0.86683  0.50555  1.0000
  H   H391      1.0  0.40872  0.80856  0.47489  1.0000
  H   H392      1.0  0.43917  0.83308  0.45676  1.0000
  C   C399      1.0  0.31362  0.63656  0.30100  1.0000
  C   C400      1.0  0.23181  0.65032  0.51046  1.0000
  C   C401      1.0  0.17071  0.61865  0.51097  1.0000
  C   C402      1.0  0.17096  0.64141  0.50208  1.0000
  C   C403      1.0  0.16874  0.64578  0.47818  1.0000
  C   C404      1.0  0.16657  0.62746  0.46297  1.0000
  C   C405      1.0  0.16555  0.60477  0.47195  1.0000
  C   C406      1.0  0.16753  0.60041  0.49590  1.0000
  C   C407      1.0  0.46971  0.89140  0.32390  1.0000
  H   H393      1.0  0.16917  0.66341  0.47141  1.0000
  H   H394      1.0  0.16391  0.59054  0.46038  1.0000
  H   H395      1.0  0.16724  0.58277  0.50271  1.0000
  H   H396      1.0  0.23018  0.67940  0.48658  1.0000
  C   C408      1.0  0.43153  0.89688  0.35344  1.0000
  H   H397      1.0  0.48482  0.88906  0.31260  1.0000
  H   H398      1.0  0.32269  0.55751  0.28079  1.0000
  N   N34       1.0  0.37351  0.86571  0.48978  1.0000
  H   H399      1.0  0.30739  0.65417  0.30412  1.0000
  H   H400      1.0  0.51111  0.73203  0.31214  1.0000
  S   S143      1.0  0.04395  0.69100  0.30333  1.0000
  C   C409      1.0  0.39103  0.88107  0.48746  1.0000
  H   H401      1.0  0.20448  0.66963  0.44774  1.0000
  C   C410      1.0  0.36822  0.85076  0.47067  1.0000
  C   C411      1.0  0.03789  0.65417  0.33424  1.0000
  H   H402      1.0  0.24431  0.54938  0.30515  1.0000
  H   H403      1.0  0.29578  0.58119  0.30391  1.0000
  H   H404      1.0  0.46470  0.85454  0.32819  1.0000
  C   C412      1.0  0.47400  0.93334  0.31998  1.0000
  C   C413      1.0  0.34393  0.60952  0.28867  1.0000
  C   C414      1.0  0.05321  0.67014  0.32441  1.0000
  H   H405      1.0  0.10259  0.59126  0.31732  1.0000
  C   C415      1.0  0.33637  0.63229  0.29311  1.0000
  H   H406      1.0  0.43068  0.85948  0.35471  1.0000
  C   C416      1.0  0.10243  0.63998  0.28416  1.0000
  H   H407      1.0  0.28117  0.62105  0.31098  1.0000
  C   C417      1.0  0.40931  0.82464  0.50803  1.0000
  H   H408      1.0  0.38304  0.84917  0.45812  1.0000
  H   H409      1.0  0.36484  0.83287  0.47737  1.0000
  C   C418      1.0  0.22265  0.62410  0.47250  1.0000
  S   S144      1.0  0.41534  0.01938  0.39219  1.0000
  C   C419      1.0  0.22526  0.61314  0.49420  1.0000
  H   H410      1.0  0.51890  0.80689  0.30576  1.0000
  H   H411      1.0  0.35273  0.85778  0.46154  1.0000
  H   H412      1.0  0.23556  0.67046  0.44256  1.0000
  C   C420      1.0  0.22095  0.65910  0.44728  1.0000
  H   H413      1.0  0.14184  0.60200  0.30528  1.0000
  H   H414      1.0  0.14652  0.62862  0.28975  1.0000
  C   C421      1.0  0.13532  0.62026  0.30323  1.0000
  C   C422      1.0  0.39616  0.89534  0.50569  1.0000
  C   C423      1.0  0.22336  0.61208  0.28942  1.0000
  H   H415      1.0  0.43728  0.93332  0.34936  1.0000
  C   C424      1.0  0.52207  0.85871  0.49869  1.0000
  H   H416      1.0  0.41065  0.90681  0.50406  1.0000
  C   C425      1.0  0.23854  0.56694  0.30073  1.0000
  H   H417      1.0  0.40174  0.88178  0.47179  1.0000
  H   H418      1.0  0.13764  0.62908  0.31980  1.0000
  N   N35       1.0  0.22462  0.64760  0.46989  1.0000
  H   H419      1.0  0.34475  0.55933  0.30233  1.0000
  C   C426      1.0  0.07248  0.60682  0.30146  1.0000
  N   N36       1.0  0.32918  0.59158  0.29184  1.0000
  H   H420      1.0  0.41692  0.89922  0.36538  1.0000
  C   C427      1.0  0.22978  0.62638  0.51326  1.0000
  H   H421      1.0  0.04525  0.62781  0.28571  1.0000
  H   H422      1.0  0.03460  0.62230  0.35431  1.0000
  H   H423      1.0  0.21747  0.62958  0.28492  1.0000
  C   C428      1.0  0.36037  0.86455  0.50974  1.0000
  H   H424      1.0  0.21936  0.64640  0.43334  1.0000
  C   C429      1.0  0.04644  0.63510  0.34755  1.0000
  H   H425      1.0  0.23500  0.66081  0.52529  1.0000
  H   H426      1.0  0.44537  0.86773  0.52092  1.0000
  H   H427      1.0  0.47188  0.93464  0.30098  1.0000
  H   H428      1.0  0.06082  0.59445  0.30949  1.0000
  C   C430      1.0  0.52112  0.84380  0.48025  1.0000
  H   H429      1.0  0.49273  0.93177  0.32400  1.0000
  H   H430      1.0  0.50451  0.84016  0.47303  1.0000
  H   H431      1.0  0.46733  0.94978  0.32766  1.0000
  H   H432      1.0  0.34803  0.64651  0.29016  1.0000
  C   C431      1.0  0.36491  0.87868  0.52823  1.0000
  C   C432      1.0  0.38303  0.89401  0.52624  1.0000
  S   S145      1.0  0.50108  0.77091  0.27877  1.0000
  S   S146      1.0  0.48086  0.70484  0.27887  1.0000
  C   C433      1.0  0.07880  0.64222  0.27940  1.0000
  C   C434      1.0  0.04649  0.75783  0.64512  1.0000
  Fe  Fe73      1.0  0.20863  0.63887  0.61352  1.0000
  S   S147      1.0  0.20904  0.67776  0.61331  1.0000
  S   S148      1.0  0.22017  0.62023  0.64646  1.0000
  Fe  Fe74      1.0  0.18735  0.63870  0.56559  1.0000
  S   S149      1.0  0.18568  0.67765  0.56181  1.0000
  Fe  Fe75      1.0  0.22165  0.67570  0.57648  1.0000
  S   S150      1.0  0.25324  0.69297  0.56011  1.0000
  Fe  Fe76      1.0  0.17316  0.67646  0.59912  1.0000
  S   S151      1.0  0.14542  0.69759  0.61832  1.0000
  S   S152      1.0  0.22410  0.63663  0.57775  1.0000
  S   S153      1.0  0.17203  0.63772  0.60174  1.0000
  Fe  Fe77      1.0  0.37476  0.80779  0.60739  1.0000
  S   S154      1.0  0.38634  0.83569  0.58234  1.0000
  S   S155      1.0  0.39288  0.79326  0.63907  1.0000
  Fe  Fe78      1.0  0.32734  0.80400  0.58563  1.0000
  S   S156      1.0  0.33479  0.83209  0.55896  1.0000
  S   S157      1.0  0.29203  0.78856  0.59300  1.0000
  Fe  Fe79      1.0  0.37018  0.81473  0.55533  1.0000
  Fe  Fe80      1.0  0.35046  0.85105  0.58778  1.0000
  S   S158      1.0  0.34807  0.88987  0.59152  1.0000
  S   S159      1.0  0.36148  0.78502  0.57997  1.0000
  S   S160      1.0  0.34010  0.82476  0.61485  1.0000
  S   S161      1.0  0.50941  0.83020  0.73508  1.0000
  H   H433      1.0  0.31758  0.54208  0.69238  1.0000
  S   S162      1.0  0.48198  0.88142  0.73562  1.0000
  N   N37       1.0  0.29275  0.56256  0.67366  1.0000
  Fe  Fe81      1.0  0.47862  0.84747  0.71824  1.0000
  S   S163      1.0  0.47371  0.85043  0.67974  1.0000
  Fe  Fe82      1.0  0.51129  0.86333  0.75439  1.0000
  S   S164      1.0  0.45355  0.83324  0.74458  1.0000
  Fe  Fe83      1.0  0.31108  0.00730  0.69790  1.0000
  S   S165      1.0  0.28107  0.98529  0.70906  1.0000
  Fe  Fe84      1.0  0.34624  0.97542  0.72263  1.0000
  S   S166      1.0  0.31927  0.95108  0.73574  1.0000
  S   S167      1.0  0.38471  0.97094  0.72790  1.0000
  Fe  Fe85      1.0  0.30525  0.95532  0.69992  1.0000
  S   S168      1.0  0.29407  0.92358  0.68179  1.0000
  Fe  Fe86      1.0  0.29764  0.98312  0.74383  1.0000
  H   H434      1.0  0.30042  0.54260  0.64381  1.0000
  S   S169      1.0  0.33385  0.97749  0.68626  1.0000
  S   S170      1.0  0.32605  0.00745  0.73329  1.0000
  S   S171      1.0  0.03836  0.70025  0.59731  1.0000
  C   C435      1.0  0.11565  0.75431  0.61843  1.0000
  H   H435      1.0  0.38346  0.91753  0.70285  1.0000
  C   C436      1.0  0.38118  0.92837  0.75050  1.0000
  C   C437      1.0  0.39582  0.94509  0.74087  1.0000
  C   C438      1.0  0.41989  0.94162  0.74226  1.0000
  C   C439      1.0  0.42930  0.92167  0.75341  1.0000
  H   H436      1.0  0.43132  0.95452  0.73490  1.0000
  C   C440      1.0  0.39059  0.90861  0.76201  1.0000
  C   C441      1.0  0.33235  0.89948  0.61607  1.0000
  C   C442      1.0  0.33689  0.92114  0.62501  1.0000
  C   C443      1.0  0.32497  0.92888  0.64494  1.0000
  C   C444      1.0  0.30819  0.91517  0.65585  1.0000
  C   C445      1.0  0.30319  0.89380  0.64650  1.0000
  C   C446      1.0  0.31539  0.88586  0.62680  1.0000
  H   H437      1.0  0.34991  0.93176  0.61669  1.0000
  H   H438      1.0  0.32882  0.94536  0.65185  1.0000
  H   H439      1.0  0.29009  0.88319  0.65474  1.0000
  H   H440      1.0  0.31144  0.86934  0.61975  1.0000
  C   C447      1.0  0.41588  0.80883  0.64984  1.0000
  C   C448      1.0  0.42533  0.82740  0.63722  1.0000
  C   C449      1.0  0.44354  0.83962  0.64627  1.0000
  C   C450      1.0  0.45214  0.83362  0.66817  1.0000
  C   C451      1.0  0.44266  0.81509  0.68086  1.0000
  C   C452      1.0  0.42467  0.80265  0.67163  1.0000
  H   H441      1.0  0.41880  0.83224  0.62038  1.0000
  H   H442      1.0  0.45079  0.85394  0.63639  1.0000
  H   H443      1.0  0.44931  0.81020  0.69767  1.0000
  H   H444      1.0  0.41753  0.78822  0.68145  1.0000
  C   C453      1.0  0.06504  0.75841  0.66002  1.0000
  H   H445      1.0  0.10636  0.61796  0.59733  1.0000
  H   H446      1.0  0.28328  0.58603  0.70037  1.0000
  C   C454      1.0  0.11585  0.69561  0.61242  1.0000
  C   C455      1.0  0.09952  0.69820  0.63058  1.0000
  C   C456      1.0  0.07569  0.69905  0.62622  1.0000
  C   C457      1.0  0.06805  0.69776  0.60358  1.0000
  C   C458      1.0  0.08438  0.69498  0.58543  1.0000
  C   C459      1.0  0.10824  0.69380  0.58982  1.0000
  H   H447      1.0  0.10534  0.69987  0.64807  1.0000
  H   H448      1.0  0.06333  0.70136  0.64032  1.0000
  H   H449      1.0  0.07857  0.69406  0.56784  1.0000
  H   H450      1.0  0.12076  0.69218  0.57567  1.0000
  C   C460      1.0  0.26382  0.71961  0.56938  1.0000
  C   C461      1.0  0.28528  0.72723  0.56058  1.0000
  C   C462      1.0  0.29414  0.74840  0.56741  1.0000
  C   C463      1.0  0.28143  0.76228  0.58293  1.0000
  C   C464      1.0  0.25997  0.75467  0.59170  1.0000
  C   C465      1.0  0.25128  0.73337  0.58511  1.0000
  H   H451      1.0  0.44790  0.91932  0.75473  1.0000
  H   H452      1.0  0.31069  0.75403  0.56057  1.0000
  H   H453      1.0  0.25001  0.76528  0.60371  1.0000
  H   H454      1.0  0.23471  0.72777  0.59195  1.0000
  H   H455      1.0  0.34330  0.53034  0.77647  1.0000
  C   C466      1.0  0.23793  0.55443  0.62856  1.0000
  C   C467      1.0  0.22999  0.57772  0.62712  1.0000
  C   C468      1.0  0.22562  0.59000  0.64733  1.0000
  C   C469      1.0  0.22806  0.57855  0.66890  1.0000
  C   C470      1.0  0.23575  0.55522  0.67033  1.0000
  C   C471      1.0  0.23682  0.97575  0.77261  1.0000
  H   H456      1.0  0.22814  0.58641  0.61043  1.0000
  H   H457      1.0  0.22461  0.58798  0.68457  1.0000
  C   C472      1.0  0.28538  0.58360  0.68193  1.0000
  N   N38       1.0  0.31776  0.75524  0.63547  1.0000
  C   C473      1.0  0.34092  0.75942  0.63595  1.0000
  C   C474      1.0  0.31012  0.73665  0.62398  1.0000
  C   C475      1.0  0.35705  0.74521  0.62414  1.0000
  C   C476      1.0  0.32571  0.72237  0.61160  1.0000
  C   C477      1.0  0.34933  0.72677  0.61164  1.0000
  C   C478      1.0  0.30122  0.77049  0.64788  1.0000
  H   H458      1.0  0.34703  0.77406  0.64516  1.0000
  H   H459      1.0  0.29177  0.73323  0.62364  1.0000
  H   H460      1.0  0.31937  0.70833  0.60165  1.0000
  H   H461      1.0  0.36161  0.71608  0.60183  1.0000
  H   H462      1.0  0.28332  0.76891  0.64152  1.0000
  H   H463      1.0  0.30141  0.76629  0.66669  1.0000
  H   H464      1.0  0.30560  0.78895  0.64467  1.0000
  N   N39       1.0  0.39910  0.88524  0.69267  1.0000
  C   C479      1.0  0.39591  0.86447  0.68259  1.0000
  C   C480      1.0  0.41466  0.90527  0.76355  1.0000
  C   C481      1.0  0.42170  0.88985  0.70226  1.0000
  H   H465      1.0  0.40999  0.85173  0.68147  1.0000
  H   H466      1.0  0.42411  0.90873  0.70406  1.0000
  H   H467      1.0  0.42332  0.88112  0.71953  1.0000
  H   H468      1.0  0.43602  0.88327  0.69075  1.0000
  C   C482      1.0  0.35604  0.87545  0.67558  1.0000
  H   H469      1.0  0.38697  0.90459  0.54076  1.0000
  C   C483      1.0  0.06247  0.64155  0.61512  1.0000
  C   C484      1.0  0.08773  0.75703  0.65094  1.0000
  H   H470      1.0  0.52268  0.91904  0.74426  1.0000
  H   H471      1.0  0.35151  0.97964  0.63489  1.0000
  H   H472      1.0  0.18712  0.01962  0.77260  1.0000
  H   H473      1.0  0.09546  0.64441  0.58335  1.0000
  C   C485      1.0  0.35924  0.89640  0.68635  1.0000
  S   S172      1.0  0.17582  0.61211  0.54046  1.0000
  C   C486      1.0  0.04643  0.64341  0.63357  1.0000
  H   H474      1.0  0.07673  0.75244  0.59451  1.0000
  H   H475      1.0  0.12748  0.74469  0.63051  1.0000
  H   H476      1.0  0.28964  0.54529  0.70684  1.0000
  C   C487      1.0  0.07809  0.64158  0.66003  1.0000
  H   H477      1.0  0.37229  0.84304  0.66511  1.0000
  H   H478      1.0  0.12178  0.77219  0.61551  1.0000
  H   H479      1.0  0.27571  0.61260  0.63097  1.0000
  H   H480      1.0  0.37537  0.74894  0.62423  1.0000
  C   C488      1.0  0.05073  0.75570  0.62143  1.0000
  H   H481      1.0  0.23815  0.54678  0.68701  1.0000
  H   H482      1.0  0.02886  0.75900  0.65202  1.0000
  H   H483      1.0  0.11878  0.64549  0.60291  1.0000
  H   H484      1.0  0.24200  0.97340  0.75471  1.0000
  H   H485      1.0  0.27228  0.61825  0.67317  1.0000
  C   C489      1.0  0.31945  0.99865  0.62854  1.0000
  H   H486      1.0  0.06170  0.75986  0.67850  1.0000
  N   N40       1.0  0.09176  0.75495  0.62766  1.0000
  C   C490      1.0  0.30915  0.01795  0.61741  1.0000
  H   H487      1.0  0.29025  0.57461  0.61621  1.0000
  H   H488      1.0  0.33926  0.87163  0.66888  1.0000
  C   C491      1.0  0.38107  0.90111  0.69474  1.0000
  C   C492      1.0  0.37449  0.85938  0.67357  1.0000
  C   C493      1.0  0.24127  0.54326  0.65016  1.0000
  H   H489      1.0  0.41453  0.84370  0.53877  1.0000
  H   H490      1.0  0.10210  0.75751  0.66262  1.0000
  C   C494      1.0  0.28142  0.59884  0.64292  1.0000
  C   C495      1.0  0.07361  0.75444  0.61292  1.0000
  Fe  Fe87      1.0  0.48467  0.81895  0.76357  1.0000
  C   C496      1.0  0.05432  0.64332  0.65615  1.0000
  H   H491      1.0  0.05615  0.64193  0.59761  1.0000
  H   H492      1.0  0.36263  0.93089  0.74959  1.0000
  H   H493      1.0  0.43153  0.79154  0.77541  1.0000
  C   C497      1.0  0.10234  0.63670  0.59972  1.0000
  C   C498      1.0  0.09366  0.63972  0.64119  1.0000
  H   H494      1.0  0.34490  0.90892  0.68817  1.0000
  Fe  Fe88      1.0  0.45918  0.86580  0.76349  1.0000
  H   H495      1.0  0.04199  0.64467  0.67058  1.0000
  H   H496      1.0  0.03639  0.75461  0.60976  1.0000
  H   H497      1.0  0.30893  0.98704  0.63916  1.0000
  C   C499      1.0  0.28948  0.57751  0.63465  1.0000
  N   N41       1.0  0.08575  0.63980  0.61909  1.0000
  H   H498      1.0  0.20121  0.96722  0.76751  1.0000
  H   H499      1.0  0.11707  0.74499  0.60186  1.0000
  C   C500      1.0  0.29516  0.55946  0.65036  1.0000
  H   H500      1.0  0.35465  0.87753  0.54415  1.0000
  H   H501      1.0  0.11213  0.63840  0.64431  1.0000
  C   C501      1.0  0.29859  0.54328  0.68976  1.0000
  H   H502      1.0  0.08439  0.64166  0.67753  1.0000
  C   C502      1.0  0.27944  0.60200  0.66669  1.0000
  H   H503      1.0  0.37013  0.99874  0.77372  1.0000
  C   C503      1.0  0.34334  0.99457  0.62623  1.0000
  H   H504      1.0  0.29066  0.02153  0.61962  1.0000
  H   H505      1.0  0.37919  0.89592  0.76979  1.0000
  H   H506      1.0  0.29507  0.71673  0.54834  1.0000
  H   H507      1.0  0.24210  0.54521  0.61290  1.0000
  C   C504      1.0  0.35665  0.01008  0.61297  1.0000
  N   N42       1.0  0.34642  0.02910  0.60227  1.0000
  S   S173      1.0  0.48289  0.78201  0.77815  1.0000
  H   H508      1.0  0.23095  0.61813  0.53029  1.0000
  H   H509      1.0  0.52776  0.88339  0.70786  1.0000
  H   H510      1.0  0.37524  0.00695  0.61151  1.0000
  S   S174      1.0  0.45406  0.55423  0.85265  1.0000
  Fe  Fe89      1.0  0.47508  0.70277  0.95303  1.0000
  S   S175      1.0  0.45205  0.71013  0.92296  1.0000
  S   S176      1.0  0.46452  0.70717  0.99072  1.0000
  Fe  Fe90      1.0  0.51380  0.68096  0.92263  1.0000
  S   S177      1.0  0.49347  0.68642  0.89000  1.0000
  Fe  Fe91      1.0  0.48442  0.72170  0.90395  1.0000
  S   S178      1.0  0.48759  0.75695  0.88564  1.0000
  Fe  Fe92      1.0  0.46305  0.67425  0.91167  1.0000
  S   S179      1.0  0.43514  0.64866  0.90510  1.0000
  S   S180      1.0  0.50688  0.71694  0.93522  1.0000
  S   S181      1.0  0.48402  0.66618  0.94304  1.0000
  Fe  Fe93      1.0  0.16058  0.97254  0.89917  1.0000
  S   S182      1.0  0.12880  0.99537  0.90427  1.0000
  S   S183      1.0  0.17889  0.95228  0.92792  1.0000
  Fe  Fe94      1.0  0.16135  0.98021  0.84650  1.0000
  S   S184      1.0  0.12920  0.00347  0.84770  1.0000
  S   S185      1.0  0.17694  0.97259  0.81090  1.0000
  S   S186      1.0  0.48872  0.85070  0.78434  1.0000
  Fe  Fe95      1.0  0.11521  0.97725  0.87348  1.0000
  S   S187      1.0  0.07830  0.96461  0.87597  1.0000
  S   S188      1.0  0.17860  0.99779  0.87513  1.0000
  S   S189      1.0  0.14601  0.95278  0.87012  1.0000
  C   C505      1.0  0.24603  0.98532  0.81166  1.0000
  N   N43       1.0  0.34241  0.95475  0.80119  1.0000
  S   S190      1.0  0.03924  0.88936  0.81031  1.0000
  C   C506      1.0  0.44000  0.83560  0.82614  1.0000
  H   H511      1.0  0.30838  0.96090  0.81502  1.0000
  H   H512      1.0  0.44227  0.85405  0.82303  1.0000
  C   C507      1.0  0.44335  0.82553  0.84807  1.0000
  C   C508      1.0  0.40418  0.75505  0.01470  1.0000
  C   C509      1.0  0.06660  0.94569  0.85606  1.0000
  C   C510      1.0  0.04462  0.93661  0.86078  1.0000
  C   C511      1.0  0.03553  0.92006  0.84637  1.0000
  C   C512      1.0  0.04838  0.91243  0.82708  1.0000
  C   C513      1.0  0.06999  0.92211  0.82191  1.0000
  C   C514      1.0  0.07910  0.93864  0.83634  1.0000
  C   C515      1.0  0.38698  0.96933  0.79074  1.0000
  C   C516      1.0  0.36117  0.94124  0.80783  1.0000
  H   H513      1.0  0.07997  0.91641  0.80694  1.0000
  H   H514      1.0  0.09596  0.94561  0.83243  1.0000
  C   C517      1.0  0.17840  0.96245  0.95646  1.0000
  C   C518      1.0  0.16544  0.98230  0.96277  1.0000
  C   C519      1.0  0.16496  0.98936  0.98589  1.0000
  C   C520      1.0  0.17716  0.97647  0.00288  1.0000
  C   C521      1.0  0.19027  0.95676  0.99648  1.0000
  C   C522      1.0  0.19105  0.94994  0.97334  1.0000
  H   H515      1.0  0.15574  0.99214  0.94988  1.0000
  H   H516      1.0  0.15489  0.00469  0.99069  1.0000
  H   H517      1.0  0.20021  0.94705  0.00927  1.0000
  H   H518      1.0  0.20153  0.93491  0.96845  1.0000
  C   C523      1.0  0.20659  0.97540  0.80306  1.0000
  C   C524      1.0  0.22291  0.98182  0.81896  1.0000
  H   H519      1.0  0.48122  0.55755  0.90836  1.0000
  C   C525      1.0  0.43622  0.58945  0.94742  1.0000
  H   H520      1.0  0.21766  0.98431  0.83682  1.0000
  C   C526      1.0  0.49342  0.60051  0.91791  1.0000
  H   H521      1.0  0.45879  0.61823  0.94389  1.0000
  C   C527      1.0  0.44183  0.72641  0.99954  1.0000
  C   C528      1.0  0.43099  0.74203  0.98402  1.0000
  C   C529      1.0  0.41233  0.75643  0.99165  1.0000
  H   H522      1.0  0.44343  0.79364  0.86850  1.0000
  C   C530      1.0  0.25306  0.98241  0.78845  1.0000
  H   H523      1.0  0.21018  0.84922  0.01959  1.0000
  H   H524      1.0  0.43696  0.74300  0.96616  1.0000
  H   H525      1.0  0.40402  0.76850  0.97956  1.0000
  C   C531      1.0  0.18429  0.88975  0.99906  1.0000
  C   C532      1.0  0.38372  0.94840  0.80285  1.0000
  C   C533      1.0  0.48831  0.76272  0.85546  1.0000
  C   C534      1.0  0.49372  0.78510  0.84728  1.0000
  C   C535      1.0  0.49266  0.79111  0.82358  1.0000
  C   C536      1.0  0.48637  0.77469  0.80780  1.0000
  C   C537      1.0  0.48165  0.75208  0.81589  1.0000
  C   C538      1.0  0.48256  0.74610  0.83964  1.0000
  H   H526      1.0  0.49830  0.79803  0.85939  1.0000
  H   H527      1.0  0.49650  0.80850  0.81757  1.0000
  H   H528      1.0  0.47688  0.73924  0.80375  1.0000
  H   H529      1.0  0.47835  0.72881  0.84572  1.0000
  C   C539      1.0  0.44808  0.58082  0.86642  1.0000
  C   C540      1.0  0.42800  0.58438  0.88004  1.0000
  C   C541      1.0  0.42397  0.60554  0.89118  1.0000
  C   C542      1.0  0.44017  0.62315  0.88922  1.0000
  C   C543      1.0  0.46015  0.61973  0.87543  1.0000
  C   C544      1.0  0.46400  0.59868  0.86396  1.0000
  H   H530      1.0  0.41552  0.57087  0.88192  1.0000
  H   H531      1.0  0.40838  0.60811  0.90167  1.0000
  H   H532      1.0  0.47262  0.63327  0.87357  1.0000
  H   H533      1.0  0.47946  0.59613  0.85328  1.0000
  H   H534      1.0  0.49986  0.59400  0.90095  1.0000
  H   H535      1.0  0.42525  0.66582  0.99472  1.0000
  C   C545      1.0  0.34548  0.97530  0.78935  1.0000
  C   C546      1.0  0.39792  0.68317  0.01458  1.0000
  H   H536      1.0  0.44623  0.53747  0.92262  1.0000
  H   H537      1.0  0.41512  0.68640  0.95797  1.0000
  H   H538      1.0  0.06968  0.89772  0.89472  1.0000
  N   N44       1.0  0.18466  0.87659  0.01912  1.0000
  C   C547      1.0  0.42545  0.78392  0.79228  1.0000
  N   N45       1.0  0.07278  0.87680  0.86489  1.0000
  C   C548      1.0  0.10774  0.88055  0.84185  1.0000
  C   C549      1.0  0.44908  0.55509  0.92752  1.0000
  C   C550      1.0  0.46888  0.56654  0.91968  1.0000
  H   H539      1.0  0.49013  0.61952  0.91543  1.0000
  H   H540      1.0  0.10746  0.91588  0.88786  1.0000
  C   C551      1.0  0.38688  0.70639  0.97352  1.0000
  H   H541      1.0  0.39859  0.93737  0.80752  1.0000
  H   H542      1.0  0.38278  0.71596  0.95766  1.0000
  C   C552      1.0  0.16353  0.90019  0.99136  1.0000
  C   C553      1.0  0.40502  0.68980  0.97368  1.0000
  C   C554      1.0  0.10192  0.90267  0.87637  1.0000
  H   H543      1.0  0.41706  0.55789  0.94716  1.0000
  H   H544      1.0  0.22134  0.87790  0.02280  1.0000
  C   C555      1.0  0.43397  0.82167  0.80800  1.0000
  H   H545      1.0  0.11793  0.87626  0.82648  1.0000
  H   H546      1.0  0.36110  0.72466  0.99405  1.0000
  H   H547      1.0  0.40433  0.97462  0.78587  1.0000
  C   C556      1.0  0.41061  0.67810  0.99432  1.0000
  H   H548      1.0  0.44851  0.83603  0.86219  1.0000
  C   C557      1.0  0.14312  0.89709  0.00432  1.0000
  H   H549      1.0  0.28311  0.53059  0.78800  1.0000
  N   N46       1.0  0.47223  0.58896  0.92561  1.0000
  H   H550      1.0  0.16334  0.91104  0.97570  1.0000
  H   H551      1.0  0.35884  0.92467  0.81672  1.0000
  H   H552      1.0  0.50713  0.59757  0.93089  1.0000
  H   H553      1.0  0.20018  0.89276  0.98920  1.0000
  C   C558      1.0  0.37469  0.71120  0.99413  1.0000
  H   H554      1.0  0.42333  0.59879  0.95779  1.0000
  C   C559      1.0  0.43446  0.78836  0.83305  1.0000
  H   H555      1.0  0.13197  0.90499  0.85369  1.0000
  H   H556      1.0  0.52729  0.72817  0.87081  1.0000
  N   N47       1.0  0.43173  0.79829  0.81150  1.0000
  H   H557      1.0  0.25846  0.99046  0.82405  1.0000
  C   C560      1.0  0.08047  0.89242  0.88008  1.0000
  H   H558      1.0  0.03477  0.94214  0.87590  1.0000
  C   C561      1.0  0.44034  0.80180  0.85165  1.0000
  C   C562      1.0  0.11560  0.89668  0.85711  1.0000
  C   C563      1.0  0.14356  0.88319  0.02442  1.0000
  H   H559      1.0  0.03764  0.87848  0.87719  1.0000
  N   N48       1.0  0.38043  0.69977  0.01434  1.0000
  C   C564      1.0  0.36776  0.98286  0.78389  1.0000
  Fe  Fe96      1.0  0.14552  0.01939  0.87806  1.0000
  C   C565      1.0  0.43405  0.72546  0.02270  1.0000
  C   C566      1.0  0.05037  0.86603  0.86923  1.0000
  H   H560      1.0  0.12707  0.90569  0.99894  1.0000
  H   H561      1.0  0.07982  0.85873  0.83371  1.0000
  H   H562      1.0  0.43136  0.82968  0.79106  1.0000
  C   C567      1.0  0.08618  0.87066  0.84607  1.0000
  H   H563      1.0  0.43288  0.76981  0.83583  1.0000
  C   C568      1.0  0.31879  0.94708  0.80612  1.0000
  C   C569      1.0  0.45634  0.60035  0.93950  1.0000
  H   H564      1.0  0.31013  0.94350  0.78970  1.0000
  C   C570      1.0  0.43264  0.56664  0.94138  1.0000
  H   H565      1.0  0.31845  0.93117  0.81734  1.0000
  H   H566      1.0  0.04270  0.86075  0.85281  1.0000
  H   H567      1.0  0.14355  0.00829  0.79497  1.0000
  H   H568      1.0  0.25364  0.53882  0.79641  1.0000
  H   H569      1.0  0.05253  0.85049  0.88081  1.0000
  H   H570      1.0  0.33064  0.98584  0.78378  1.0000
  H   H571      1.0  0.40640  0.78213  0.79210  1.0000
  S   S191      1.0  0.38020  0.77281  0.02344  1.0000
  C   C571      1.0  0.14575  0.02729  0.79250  1.0000
  C   C572      1.0  0.18800  0.02835  0.78889  1.0000
  C   C573      1.0  0.20670  0.86640  0.02731  1.0000
  H   H572      1.0  0.43416  0.76646  0.79370  1.0000
  C   C574      1.0  0.21370  0.97224  0.77992  1.0000
  H   H573      1.0  0.22541  0.02863  0.78757  1.0000
  S   S192      1.0  0.42607  0.88103  0.77899  1.0000
  S   S193      1.0  0.28209  0.98799  0.78000  1.0000
  Fe  Fe97      1.0  0.55363  0.38463  0.14619  1.0000
  S   S194      1.0  0.57813  0.38309  0.17616  1.0000
  Fe  Fe98      1.0  0.59093  0.36886  0.11160  1.0000
  S   S195      1.0  0.61799  0.36579  0.13852  1.0000
  S   S196      1.0  0.59756  0.36257  0.07356  1.0000
  Fe  Fe99      1.0  0.59076  0.34917  0.16135  1.0000
  S   S197      1.0  0.60005  0.31427  0.17869  1.0000
  Fe  Fe100     1.0  0.60314  0.39992  0.15083  1.0000
  S   S198      1.0  0.63030  0.42675  0.15581  1.0000
  S   S199      1.0  0.56458  0.34964  0.13310  1.0000
  S   S200      1.0  0.57771  0.40408  0.12220  1.0000
  Fe  Fe101     1.0  0.91153  0.09434  0.22021  1.0000
  S   S201      1.0  0.94904  0.08279  0.22172  1.0000
  S   S202      1.0  0.89467  0.10466  0.25442  1.0000
  Fe  Fe102     1.0  0.91135  0.09135  0.16769  1.0000
  S   S203      1.0  0.94879  0.07949  0.16504  1.0000
  S   S204      1.0  0.88673  0.09684  0.13792  1.0000
  Fe  Fe103     1.0  0.94020  0.05640  0.19575  1.0000
  Fe  Fe104     1.0  0.95472  0.10676  0.19123  1.0000
  S   S205      1.0  0.98454  0.13123  0.18627  1.0000
  S   S206      1.0  0.90214  0.06600  0.19670  1.0000
  S   S207      1.0  0.91781  0.12047  0.19144  1.0000
  H   H574      1.0  0.69272  0.38090  0.09362  1.0000
  H   H575      1.0  0.98651  0.22653  0.23854  1.0000
  C   C575      1.0  0.59171  0.30276  0.05945  1.0000
  H   H576      1.0  0.66407  0.39906  0.12095  1.0000
  C   C576      1.0  0.71367  0.51717  0.22742  1.0000
  C   C577      1.0  0.00161  0.13998  0.20926  1.0000
  C   C578      1.0  0.71605  0.51897  0.16273  1.0000
  S   S208      1.0  0.92094  0.12815  0.03743  1.0000
  C   C579      1.0  0.66060  0.39864  0.10260  1.0000
  H   H577      1.0  0.61888  0.41447  0.06440  1.0000
  C   C580      1.0  0.99745  0.13226  0.23207  1.0000
  C   C581      1.0  0.58927  0.30444  0.08346  1.0000
  C   C582      1.0  0.95241  0.16507  0.25874  1.0000
  H   H578      1.0  0.98422  0.11980  0.23582  1.0000
  C   C583      1.0  0.89685  0.10890  0.11133  1.0000
  C   C584      1.0  0.88074  0.11764  0.09521  1.0000
  C   C585      1.0  0.88796  0.12432  0.07267  1.0000
  C   C586      1.0  0.91141  0.12238  0.06616  1.0000
  C   C587      1.0  0.92761  0.11438  0.08249  1.0000
  C   C588      1.0  0.92039  0.10772  0.10503  1.0000
  H   H579      1.0  0.86251  0.11869  0.10002  1.0000
  H   H580      1.0  0.87537  0.13063  0.06027  1.0000
  H   H581      1.0  0.94580  0.11299  0.07760  1.0000
  H   H582      1.0  0.93295  0.10106  0.11729  1.0000
  C   C589      1.0  0.86598  0.09739  0.26246  1.0000
  C   C590      1.0  0.89106  0.06298  0.08011  1.0000
  C   C591      1.0  0.82128  0.08390  0.27747  1.0000
  C   C592      1.0  0.67664  0.38844  0.08708  1.0000
  H   H583      1.0  0.81925  0.06936  0.24370  1.0000
  C   C593      1.0  0.62382  0.34899  0.06440  1.0000
  C   C594      1.0  0.63982  0.34001  0.08031  1.0000
  C   C595      1.0  0.66010  0.32827  0.07253  1.0000
  C   C596      1.0  0.66464  0.32562  0.04881  1.0000
  C   C597      1.0  0.85253  0.07169  0.06646  1.0000
  H   H584      1.0  0.86059  0.06436  0.10226  1.0000
  H   H585      1.0  0.63640  0.34170  0.09860  1.0000
  H   H586      1.0  0.67226  0.32103  0.08494  1.0000
  C   C598      1.0  0.94218  0.15909  0.23823  1.0000
  C   C599      1.0  0.96982  0.18143  0.25804  1.0000
  C   C600      1.0  0.62239  0.45527  0.16414  1.0000
  C   C601      1.0  0.63961  0.47186  0.16489  1.0000
  C   C602      1.0  0.63403  0.49465  0.17164  1.0000
  C   C603      1.0  0.61117  0.50102  0.17788  1.0000
  C   C604      1.0  0.59395  0.48444  0.17707  1.0000
  C   C605      1.0  0.59950  0.46167  0.17014  1.0000
  H   H587      1.0  0.65733  0.46704  0.16023  1.0000
  H   H588      1.0  0.64741  0.50724  0.17210  1.0000
  H   H589      1.0  0.57625  0.48919  0.18190  1.0000
  H   H590      1.0  0.58612  0.44901  0.16970  1.0000
  C   C606      1.0  0.58502  0.29537  0.25513  1.0000
  C   C607      1.0  0.59077  0.27811  0.23931  1.0000
  C   C608      1.0  0.59445  0.28406  0.21575  1.0000
  C   C609      1.0  0.59235  0.30727  0.20781  1.0000
  C   C610      1.0  0.58586  0.32442  0.22350  1.0000
  C   C611      1.0  0.58221  0.31846  0.24705  1.0000
  H   H591      1.0  0.59294  0.26027  0.24530  1.0000
  H   H592      1.0  0.59936  0.27067  0.20372  1.0000
  H   H593      1.0  0.58410  0.34233  0.21759  1.0000
  H   H594      1.0  0.57759  0.33190  0.25915  1.0000
  H   H595      1.0  0.64185  0.31748  0.22829  1.0000
  H   H596      1.0  0.58498  0.29858  0.12863  1.0000
  H   H597      1.0  0.71067  0.50855  0.14862  1.0000
  H   H598      1.0  0.61382  0.29067  0.03142  1.0000
  C   C612      1.0  0.85207  0.08546  0.24768  1.0000
  C   C613      1.0  0.64933  0.28082  0.22819  1.0000
  H   H599      1.0  0.94211  0.16457  0.20120  1.0000
  C   C614      1.0  0.72425  0.13360  0.26221  1.0000
  C   C615      1.0  0.99474  0.20897  0.23709  1.0000
  H   H600      1.0  0.83410  0.07438  0.06986  1.0000
  H   H601      1.0  0.61154  0.31410  0.12740  1.0000
  C   C616      1.0  0.64380  0.30178  0.23893  1.0000
  H   H602      1.0  0.65458  0.24385  0.23348  1.0000
  C   C617      1.0  0.01011  0.14113  0.25015  1.0000
  H   H603      1.0  0.00548  0.20828  0.22089  1.0000
  C   C618      1.0  0.88232  0.04279  0.27308  1.0000
  C   C619      1.0  0.71274  0.51134  0.18572  1.0000
  H   H604      1.0  0.71815  0.49844  0.23005  1.0000
  C   C620      1.0  0.64890  0.33504  0.03285  1.0000
  H   H605      1.0  0.74837  0.05779  0.27607  1.0000
  H   H606      1.0  0.97275  0.19331  0.20088  1.0000
  H   H607      1.0  0.68151  0.37228  0.03178  1.0000
  H   H608      1.0  0.85848  0.08128  0.23053  1.0000
  H   H609      1.0  0.92895  0.14611  0.23846  1.0000
  H   H610      1.0  0.61193  0.28314  0.13258  1.0000
  N   N49       1.0  0.60569  0.29469  0.09770  1.0000
  C   C621      1.0  0.62503  0.28362  0.08861  1.0000
  H   H611      1.0  0.70467  0.49486  0.18925  1.0000
  C   C622      1.0  0.62807  0.28170  0.06466  1.0000
  C   C623      1.0  0.65178  0.39746  0.05577  1.0000
  H   H612      1.0  0.62722  0.41609  0.10625  1.0000
  C   C624      1.0  0.60346  0.29774  0.12271  1.0000
  C   C625      1.0  0.65088  0.26034  0.24157  1.0000
  H   H613      1.0  0.94715  0.15677  0.27498  1.0000
  H   H614      1.0  0.62614  0.33718  0.26101  1.0000
  H   H615      1.0  0.63853  0.27675  0.09982  1.0000
  H   H616      1.0  0.75522  0.09864  0.26477  1.0000
  C   C626      1.0  0.62850  0.34663  0.04065  1.0000
  C   C627      1.0  0.68946  0.37783  0.04796  1.0000
  H   H617      1.0  0.64382  0.27366  0.05744  1.0000
  H   H618      1.0  0.02231  0.16211  0.18704  1.0000
  N   N50       1.0  0.97694  0.19140  0.23745  1.0000
  C   C628      1.0  0.82985  0.07869  0.25521  1.0000
  C   C629      1.0  0.01892  0.15614  0.20466  1.0000
  N   N51       1.0  0.67204  0.38783  0.06401  1.0000
  C   C630      1.0  0.64716  0.26107  0.26543  1.0000
  H   H619      1.0  0.65157  0.28043  0.20954  1.0000
  H   H620      1.0  0.57903  0.31124  0.04824  1.0000
  H   H621      1.0  0.69492  0.52033  0.23153  1.0000
  H   H622      1.0  0.00651  0.13541  0.26780  1.0000
  C   C631      1.0  0.89976  0.06629  0.05753  1.0000
  S   S209      1.0  0.68987  0.31002  0.03996  1.0000
  N   N52       1.0  0.90551  0.04435  0.26802  1.0000
  H   H623      1.0  0.70801  0.14429  0.26008  1.0000
  C   C632      1.0  0.94939  0.16955  0.21737  1.0000
  C   C633      1.0  0.61126  0.29132  0.05003  1.0000
  C   C634      1.0  0.73763  0.09336  0.26860  1.0000
  C   C635      1.0  0.96684  0.18580  0.21729  1.0000
  C   C636      1.0  0.63531  0.40763  0.07083  1.0000
  H   H624      1.0  0.73464  0.13500  0.24585  1.0000
  H   H625      1.0  0.90272  0.05933  0.09429  1.0000
  H   H626      1.0  0.57456  0.31431  0.09057  1.0000
  H   H627      1.0  0.91833  0.06490  0.05433  1.0000
  H   H628      1.0  0.93390  0.03335  0.24620  1.0000
  C   C637      1.0  0.63984  0.40827  0.09435  1.0000
  H   H629      1.0  0.00693  0.20593  0.25154  1.0000
  C   C638      1.0  0.86731  0.06582  0.08459  1.0000
  N   N53       1.0  0.71874  0.52488  0.20353  1.0000
  N   N54       1.0  0.63979  0.30227  0.26232  1.0000
  N   N55       1.0  0.71954  0.10926  0.26785  1.0000
  H   H630      1.0  0.93242  0.06821  0.27127  1.0000
  C   C639      1.0  0.63407  0.32434  0.27340  1.0000
  C   C640      1.0  0.73386  0.07021  0.27496  1.0000
  C   C641      1.0  0.86178  0.07458  0.04401  1.0000
  N   N56       1.0  0.88516  0.07205  0.03986  1.0000
  C   C642      1.0  0.91547  0.03232  0.25011  1.0000
  C   C643      1.0  0.69745  0.10267  0.27319  1.0000
  H   H631      1.0  0.97809  0.18561  0.27397  1.0000
  H   H632      1.0  0.68312  0.11532  0.27330  1.0000
  H   H633      1.0  0.64797  0.39683  0.03754  1.0000
  H   H634      1.0  0.69807  0.36203  0.05574  1.0000
  H   H635      1.0  0.72357  0.52692  0.24001  1.0000
  H   H636      1.0  0.70274  0.39074  0.04332  1.0000
  C   C644      1.0  0.86831  0.02957  0.25954  1.0000
  H   H637      1.0  0.85020  0.07918  0.02998  1.0000
  C   C645      1.0  0.64172  0.28234  0.27560  1.0000
  H   H638      1.0  0.73410  0.14100  0.27637  1.0000
  H   H639      1.0  0.64807  0.24516  0.27591  1.0000
  C   C646      1.0  0.02695  0.15778  0.24560  1.0000
  Fe  Fe105     1.0  0.89780  0.42193  0.46104  1.0000
  S   S210      1.0  0.90109  0.45231  0.48363  1.0000
  S   S211      1.0  0.92582  0.42146  0.43293  1.0000
  Fe  Fe106     1.0  0.85078  0.40975  0.48340  1.0000
  S   S212      1.0  0.85150  0.43967  0.50783  1.0000
  S   S213      1.0  0.81555  0.39291  0.48181  1.0000
  Fe  Fe107     1.0  0.86380  0.46035  0.47673  1.0000
  S   S214      1.0  0.85295  0.49790  0.46976  1.0000
  C   C647      1.0  0.53212  0.19259  0.37280  1.0000
  S   S215      1.0  0.86096  0.43159  0.45207  1.0000
  S   S216      1.0  0.88777  0.39745  0.49040  1.0000
  Fe  Fe108     1.0  0.70249  0.27255  0.45464  1.0000
  S   S217      1.0  0.69019  0.24293  0.47705  1.0000
  S   S218      1.0  0.68223  0.28762  0.42458  1.0000
  Fe  Fe109     1.0  0.74983  0.27333  0.47695  1.0000
  S   S219      1.0  0.74139  0.24287  0.50063  1.0000
  S   S220      1.0  0.78629  0.28721  0.47947  1.0000
  Fe  Fe110     1.0  0.72569  0.22742  0.46980  1.0000
  S   S221      1.0  0.72662  0.18944  0.46156  1.0000
  Fe  Fe111     1.0  0.70664  0.26079  0.50605  1.0000
  S   S222      1.0  0.73710  0.25588  0.44552  1.0000
  S   S223      1.0  0.71600  0.29238  0.48433  1.0000
  Fe  Fe112     1.0  0.77549  0.08388  0.32037  1.0000
  S   S224      1.0  0.74692  0.06097  0.33384  1.0000
  Fe  Fe113     1.0  0.88885  0.42895  0.51266  1.0000
  Fe  Fe114     1.0  0.76672  0.11821  0.35903  1.0000
  S   S225      1.0  0.73815  0.09781  0.37566  1.0000
  S   S226      1.0  0.77839  0.15228  0.37222  1.0000
  Fe  Fe115     1.0  0.76101  0.06654  0.36896  1.0000
  H   H640      1.0  0.82103  0.11546  0.42581  1.0000
  Fe  Fe116     1.0  0.72641  0.09425  0.33938  1.0000
  S   S227      1.0  0.68806  0.09823  0.33294  1.0000
  S   S228      1.0  0.79111  0.08722  0.35523  1.0000
  S   S229      1.0  0.75358  0.11664  0.32298  1.0000
  S   S230      1.0  0.76765  0.03909  0.39704  1.0000
  S   S231      1.0  0.56364  0.24211  0.33101  1.0000
  Fe  Fe117     1.0  0.61477  0.20740  0.30386  1.0000
  S   S232      1.0  0.59318  0.19243  0.33313  1.0000
  H   H641      1.0  0.01176  0.40865  0.47907  1.0000
  Fe  Fe118     1.0  0.56281  0.20780  0.31370  1.0000
  C   C648      1.0  0.85736  0.10273  0.28467  1.0000
  Fe  Fe119     1.0  0.59555  0.22770  0.34817  1.0000
  S   S233      1.0  0.60125  0.22846  0.38662  1.0000
  S   S234      1.0  0.61912  0.24159  0.32031  1.0000
  H   H642      1.0  0.74464  0.13511  0.46763  1.0000
  C   C649      1.0  0.67736  0.12559  0.32306  1.0000
  C   C650      1.0  0.65336  0.12995  0.32221  1.0000
  C   C651      1.0  0.64444  0.15099  0.31272  1.0000
  C   C652      1.0  0.65953  0.16744  0.30338  1.0000
  C   C653      1.0  0.68351  0.16310  0.30425  1.0000
  C   C654      1.0  0.69239  0.14246  0.31451  1.0000
  H   H643      1.0  0.64162  0.11694  0.32875  1.0000
  H   H644      1.0  0.66231  0.23251  0.52121  1.0000
  C   C655      1.0  0.89783  0.47688  0.41824  1.0000
  H   H645      1.0  0.71085  0.13939  0.31527  1.0000
  C   C656      1.0  0.65967  0.27117  0.41418  1.0000
  C   C657      1.0  0.64659  0.25697  0.42909  1.0000
  C   C658      1.0  0.62835  0.24442  0.42051  1.0000
  C   C659      1.0  0.62326  0.24572  0.39692  1.0000
  C   C660      1.0  0.63633  0.25992  0.38200  1.0000
  C   C661      1.0  0.65433  0.27276  0.39065  1.0000
  H   H646      1.0  0.65019  0.25605  0.44733  1.0000
  H   H647      1.0  0.61821  0.23361  0.43219  1.0000
  H   H648      1.0  0.63245  0.26123  0.36386  1.0000
  H   H649      1.0  0.66423  0.28391  0.37908  1.0000
  C   C662      1.0  0.73913  0.18184  0.43478  1.0000
  C   C663      1.0  0.73020  0.16331  0.42312  1.0000
  C   C664      1.0  0.74142  0.15503  0.40311  1.0000
  C   C665      1.0  0.76196  0.16482  0.39495  1.0000
  C   C666      1.0  0.77034  0.18405  0.40602  1.0000
  C   C667      1.0  0.75884  0.19268  0.42584  1.0000
  H   H650      1.0  0.71490  0.15490  0.42989  1.0000
  H   H651      1.0  0.73440  0.14074  0.39439  1.0000
  H   H652      1.0  0.78612  0.19188  0.39966  1.0000
  H   H653      1.0  0.76581  0.20703  0.43476  1.0000
  H   H654      1.0  0.53503  0.11036  0.32496  1.0000
  S   S235      1.0  0.58426  0.21968  0.28265  1.0000
  C   C668      1.0  0.69950  0.20651  0.38790  1.0000
  C   C669      1.0  0.67890  0.20255  0.35251  1.0000
  H   H655      1.0  0.71568  0.20895  0.39658  1.0000
  C   C670      1.0  0.84201  0.50685  0.44268  1.0000
  H   H656      1.0  0.98909  0.43842  0.46019  1.0000
  C   C671      1.0  0.78350  0.45638  0.42835  1.0000
  C   C672      1.0  0.99701  0.40499  0.49042  1.0000
  C   C673      1.0  0.82925  0.49853  0.40423  1.0000
  C   C674      1.0  0.83845  0.49093  0.42547  1.0000
  C   C675      1.0  0.97876  0.37956  0.51870  1.0000
  H   H657      1.0  0.98067  0.45530  0.48514  1.0000
  H   H658      1.0  0.83052  0.30796  0.48268  1.0000
  H   H659      1.0  0.84245  0.47273  0.42860  1.0000
  C   C676      1.0  0.95174  0.40463  0.43607  1.0000
  C   C677      1.0  0.97157  0.41079  0.42306  1.0000
  C   C678      1.0  0.99278  0.39840  0.42590  1.0000
  C   C679      1.0  0.99410  0.37932  0.44129  1.0000
  C   C680      1.0  0.97408  0.37273  0.45377  1.0000
  C   C681      1.0  0.95306  0.38557  0.45149  1.0000
  H   H660      1.0  0.97064  0.42543  0.41099  1.0000
  H   H661      1.0  0.00807  0.40357  0.41614  1.0000
  H   H662      1.0  0.97494  0.35790  0.46561  1.0000
  H   H663      1.0  0.93785  0.38054  0.46144  1.0000
  C   C682      1.0  0.79423  0.31672  0.47853  1.0000
  C   C683      1.0  0.77778  0.33496  0.47657  1.0000
  C   C684      1.0  0.78470  0.35813  0.47744  1.0000
  C   C685      1.0  0.80811  0.36336  0.48012  1.0000
  C   C686      1.0  0.82458  0.34512  0.48192  1.0000
  C   C687      1.0  0.81765  0.32195  0.48116  1.0000
  H   H664      1.0  0.75971  0.33121  0.47458  1.0000
  H   H665      1.0  0.77179  0.37208  0.47602  1.0000
  H   H666      1.0  0.84264  0.34885  0.48399  1.0000
  H   H667      1.0  0.77904  0.48846  0.39427  1.0000
  H   H668      1.0  0.78580  0.50894  0.45160  1.0000
  H   H669      1.0  0.89002  0.46090  0.41204  1.0000
  H   H670      1.0  0.63827  0.28276  0.29410  1.0000
  H   H671      1.0  0.86799  0.11199  0.29621  1.0000
  H   H672      1.0  0.62590  0.15413  0.31194  1.0000
  H   H673      1.0  0.75226  0.49228  0.41096  1.0000
  C   C688      1.0  0.88392  0.49530  0.38214  1.0000
  H   H674      1.0  0.89213  0.47856  0.43663  1.0000
  C   C689      1.0  0.77376  0.12984  0.44401  1.0000
  C   C690      1.0  0.79911  0.45298  0.46663  1.0000
  C   C691      1.0  0.67959  0.20518  0.42571  1.0000
  H   H675      1.0  0.79062  0.25676  0.52017  1.0000
  H   H676      1.0  0.74790  0.07082  0.43148  1.0000
  H   H677      1.0  0.69175  0.21838  0.43126  1.0000
  N   N57       1.0  0.89061  0.49749  0.40448  1.0000
  C   C692      1.0  0.65842  0.20003  0.36548  1.0000
  H   H678      1.0  0.64218  0.19766  0.35693  1.0000
  C   C693      1.0  0.95913  0.39434  0.51866  1.0000
  C   C694      1.0  0.99787  0.38490  0.50452  1.0000
  H   H679      1.0  0.78402  0.08299  0.41165  1.0000
  C   C695      1.0  0.89121  0.51893  0.41393  1.0000
  H   H680      1.0  0.82868  0.10020  0.30933  1.0000
  H   H681      1.0  0.80668  0.14174  0.41463  1.0000
  H   H682      1.0  0.69526  0.17582  0.29715  1.0000
  H   H683      1.0  0.80629  0.44245  0.48072  1.0000
  H   H684      1.0  0.95911  0.44260  0.46758  1.0000
  H   H685      1.0  0.67573  0.07482  0.28508  1.0000
  H   H686      1.0  0.71883  0.03725  0.38564  1.0000
  C   C696      1.0  0.79653  0.47696  0.46851  1.0000
  S   S236      1.0  0.64898  0.19320  0.28988  1.0000
  H   H687      1.0  0.87435  0.05231  0.28726  1.0000
  H   H688      1.0  0.62100  0.32183  0.28765  1.0000
  C   C697      1.0  0.82376  0.52209  0.39996  1.0000
  H   H689      1.0  0.79463  0.42386  0.44495  1.0000
  H   H690      1.0  0.71578  0.20718  0.35390  1.0000
  H   H691      1.0  0.01305  0.37329  0.50390  1.0000
  H   H692      1.0  0.88350  0.47833  0.37461  1.0000
  H   H693      1.0  0.64293  0.19877  0.39951  1.0000
  H   H694      1.0  0.80220  0.48526  0.48390  1.0000
  C   C698      1.0  0.97661  0.43995  0.47506  1.0000
  N   N58       1.0  0.67924  0.20448  0.40044  1.0000
  H   H695      1.0  0.82635  0.48609  0.39104  1.0000
  Fe  Fe120     1.0  0.58704  0.25295  0.30129  1.0000
  S   S237      1.0  0.02067  0.36420  0.44659  1.0000
  H   H696      1.0  0.70844  0.04573  0.28664  1.0000
  H   H697      1.0  0.54021  0.19949  0.38830  1.0000
  N   N59       1.0  0.78431  0.11561  0.42812  1.0000
  H   H698      1.0  0.72784  0.09698  0.45962  1.0000
  C   C699      1.0  0.74389  0.10207  0.45106  1.0000
  C   C700      1.0  0.83509  0.09605  0.29216  1.0000
  C   C701      1.0  0.75336  0.12334  0.45565  1.0000
  H   H699      1.0  0.66229  0.20993  0.43325  1.0000
  N   N60       1.0  0.97744  0.41904  0.49003  1.0000
  N   N61       1.0  0.78116  0.47993  0.43027  1.0000
  C   C702      1.0  0.79256  0.44256  0.44646  1.0000
  C   C703      1.0  0.75507  0.08744  0.43524  1.0000
  H   H700      1.0  0.68517  0.18799  0.43304  1.0000
  H   H701      1.0  0.77848  0.44814  0.41270  1.0000
  C   C704      1.0  0.69966  0.20556  0.36376  1.0000
  H   H702      1.0  0.91699  0.47435  0.41736  1.0000
  C   C705      1.0  0.65896  0.20077  0.38959  1.0000
  H   H703      1.0  0.80668  0.11616  0.39828  1.0000
  H   H704      1.0  0.54610  0.18639  0.36070  1.0000
  S   S238      1.0  0.58351  0.28930  0.28530  1.0000
  H   H705      1.0  0.67863  0.20214  0.33379  1.0000
  C   C706      1.0  0.78731  0.49025  0.45013  1.0000
  H   H706      1.0  0.55007  0.14956  0.31561  1.0000
  H   H707      1.0  0.77523  0.51265  0.41248  1.0000
  C   C707      1.0  0.77135  0.49398  0.41114  1.0000
  C   C708      1.0  0.77547  0.09447  0.42397  1.0000
  H   H708      1.0  0.89626  0.52063  0.43173  1.0000
  H   H709      1.0  0.78067  0.14667  0.44727  1.0000
  C   C709      1.0  0.80582  0.12253  0.41626  1.0000
  H   H710      1.0  0.94340  0.42541  0.50410  1.0000
  H   H711      1.0  0.90949  0.07128  0.29212  1.0000
  C   C710      1.0  0.95879  0.41412  0.50414  1.0000
  H   H712      1.0  0.64989  0.33153  0.28052  1.0000
  C   C711      1.0  0.92005  0.05821  0.28234  1.0000
  C   C712      1.0  0.87691  0.51486  0.36888  1.0000
  H   H713      1.0  0.92982  0.04678  0.29466  1.0000
  S   S239      1.0  0.79354  0.07432  0.28634  1.0000
  C   C713      1.0  0.71146  0.06341  0.28076  1.0000
  C   C714      1.0  0.53199  0.14761  0.32040  1.0000
  H   H714      1.0  0.87081  0.51306  0.35146  1.0000
  H   H715      1.0  0.54178  0.14697  0.37320  1.0000
  H   H716      1.0  0.78469  0.34149  0.52862  1.0000
  C   C715      1.0  0.69309  0.07967  0.27970  1.0000
  S   S240      1.0  0.91218  0.43082  0.54355  1.0000
  C   C716      1.0  0.65906  0.23162  0.53967  1.0000
  Fe  Fe121     1.0  0.59887  0.20158  0.62066  1.0000
  S   S241      1.0  0.62128  0.20298  0.65172  1.0000
  S   S242      1.0  0.61102  0.20287  0.58305  1.0000
  Fe  Fe122     1.0  0.55414  0.19757  0.64962  1.0000
  S   S243      1.0  0.57320  0.19936  0.68295  1.0000
  Fe  Fe123     1.0  0.59346  0.22766  0.66556  1.0000
  S   S244      1.0  0.60402  0.26255  0.67873  1.0000
  Fe  Fe124     1.0  0.59914  0.17446  0.66656  1.0000
  S   S245      1.0  0.60983  0.14355  0.68961  1.0000
  S   S246      1.0  0.57229  0.22792  0.63335  1.0000
  S   S247      1.0  0.57881  0.17098  0.63438  1.0000
  Fe  Fe125     1.0  0.90731  0.47305  0.66919  1.0000
  S   S248      1.0  0.94140  0.48702  0.65756  1.0000
  S   S249      1.0  0.88100  0.45806  0.64577  1.0000
  Fe  Fe126     1.0  0.91312  0.48836  0.71870  1.0000
  S   S250      1.0  0.94791  0.50401  0.71065  1.0000
  S   S251      1.0  0.89894  0.48586  0.75560  1.0000
  H   H717      1.0  0.94517  0.52210  0.58595  1.0000
  Fe  Fe127     1.0  0.95519  0.47152  0.69078  1.0000
  S   S252      1.0  0.99043  0.45313  0.68785  1.0000
  S   S253      1.0  0.89601  0.50524  0.68788  1.0000
  S   S254      1.0  0.92169  0.45487  0.70086  1.0000
  N   N62       1.0  0.54843  0.12837  0.67319  1.0000
  C   C717      1.0  0.01231  0.48838  0.72987  1.0000
  S   S255      1.0  0.64557  0.04641  0.65098  1.0000
  C   C718      1.0  0.00223  0.43469  0.70978  1.0000
  C   C719      1.0  0.62115  0.27740  0.54836  1.0000
  C   C720      1.0  0.75116  0.32712  0.53578  1.0000
  C   C721      1.0  0.90483  0.50155  0.58105  1.0000
  C   C722      1.0  0.87482  0.51177  0.61775  1.0000
  C   C723      1.0  0.99179  0.43273  0.73179  1.0000
  C   C724      1.0  0.82959  0.50139  0.75383  1.0000
  C   C725      1.0  0.62517  0.43521  0.76733  1.0000
  H   H718      1.0  0.79938  0.44813  0.76016  1.0000
  H   H719      1.0  0.97521  0.44140  0.73523  1.0000
  C   C726      1.0  0.86955  0.49176  0.76356  1.0000
  C   C727      1.0  0.85315  0.49885  0.74721  1.0000
  H   H720      1.0  0.87478  0.48965  0.56396  1.0000
  H   H721      1.0  0.94192  0.52606  0.61641  1.0000
  H   H722      1.0  0.85858  0.50217  0.72946  1.0000
  C   C728      1.0  0.89851  0.51575  0.61887  1.0000
  H   H723      1.0  0.59387  0.27582  0.62701  1.0000
  C   C729      1.0  0.62056  0.11694  0.67859  1.0000
  C   C730      1.0  0.62604  0.11445  0.65511  1.0000
  C   C731      1.0  0.63383  0.09275  0.64691  1.0000
  C   C732      1.0  0.63578  0.07333  0.66201  1.0000
  C   C733      1.0  0.63000  0.07574  0.68543  1.0000
  C   C734      1.0  0.62268  0.09753  0.69371  1.0000
  H   H724      1.0  0.62441  0.12928  0.64331  1.0000
  H   H725      1.0  0.63829  0.09103  0.62875  1.0000
  H   H726      1.0  0.63119  0.06085  0.69716  1.0000
  H   H727      1.0  0.61831  0.09933  0.71188  1.0000
  C   C735      1.0  0.59641  0.27347  0.70639  1.0000
  C   C736      1.0  0.60472  0.29502  0.71262  1.0000
  C   C737      1.0  0.59891  0.30441  0.73433  1.0000
  C   C738      1.0  0.58462  0.29234  0.75002  1.0000
  C   C739      1.0  0.57635  0.27077  0.74381  1.0000
  C   C740      1.0  0.58221  0.26136  0.72214  1.0000
  H   H728      1.0  0.61572  0.30452  0.70058  1.0000
  H   H729      1.0  0.60540  0.32101  0.73886  1.0000
  H   H730      1.0  0.56527  0.26130  0.75580  1.0000
  H   H731      1.0  0.57568  0.24479  0.71759  1.0000
  C   C741      1.0  0.67229  0.24447  0.55429  1.0000
  C   C742      1.0  0.66778  0.24310  0.57827  1.0000
  C   C743      1.0  0.64970  0.22959  0.58750  1.0000
  C   C744      1.0  0.63587  0.21749  0.57275  1.0000
  C   C745      1.0  0.64090  0.21826  0.54888  1.0000
  C   C746      1.0  0.75145  0.28557  0.54169  1.0000
  H   H732      1.0  0.67804  0.25285  0.58973  1.0000
  H   H733      1.0  0.64619  0.22887  0.60593  1.0000
  H   H734      1.0  0.84252  0.44757  0.69005  1.0000
  H   H735      1.0  0.86188  0.46824  0.70115  1.0000
  C   C747      1.0  0.90290  0.43813  0.57185  1.0000
  C   C748      1.0  0.87950  0.43861  0.57876  1.0000
  C   C749      1.0  0.87301  0.44430  0.60161  1.0000
  C   C750      1.0  0.88979  0.44996  0.61754  1.0000
  C   C751      1.0  0.91315  0.44952  0.61056  1.0000
  C   C752      1.0  0.91966  0.44348  0.58788  1.0000
  H   H736      1.0  0.86646  0.43429  0.56663  1.0000
  H   H737      1.0  0.85491  0.44446  0.60692  1.0000
  H   H738      1.0  0.92625  0.45348  0.62273  1.0000
  H   H739      1.0  0.93781  0.44289  0.58276  1.0000
  C   C753      1.0  0.54292  0.14350  0.69262  1.0000
  C   C754      1.0  0.68372  0.05650  0.72216  1.0000
  H   H740      1.0  0.98278  0.49726  0.75191  1.0000
  C   C755      1.0  0.86614  0.50261  0.59779  1.0000
  H   H741      1.0  0.87116  0.43835  0.69776  1.0000
  H   H742      1.0  0.81695  0.50656  0.74103  1.0000
  H   H743      1.0  0.74180  0.34366  0.53405  1.0000
  H   H744      1.0  0.99543  0.41935  0.76678  1.0000
  H   H745      1.0  0.74192  0.26987  0.54484  1.0000
  C   C756      1.0  0.61237  0.27386  0.62142  1.0000
  C   C757      1.0  0.02524  0.40968  0.74558  1.0000
  C   C758      1.0  0.83331  0.43788  0.77216  1.0000
  C   C759      1.0  0.99963  0.48840  0.75079  1.0000
  H   H746      1.0  0.57277  0.10756  0.69237  1.0000
  N   N63       1.0  0.61491  0.27592  0.59618  1.0000
  C   C760      1.0  0.53736  0.13175  0.65267  1.0000
  H   H747      1.0  0.62724  0.42334  0.75316  1.0000
  N   N64       1.0  0.77503  0.28453  0.53859  1.0000
  H   H748      1.0  0.90510  0.52249  0.63462  1.0000
  H   H749      1.0  0.56462  0.08918  0.62181  1.0000
  H   H750      1.0  0.55903  0.14774  0.70159  1.0000
  C   C761      1.0  0.73917  0.30684  0.54032  1.0000
  C   C762      1.0  0.81742  0.44459  0.75528  1.0000
  N   N65       1.0  0.84819  0.44500  0.72652  1.0000
  N   N66       1.0  0.91315  0.51081  0.60058  1.0000
  H   H751      1.0  0.88232  0.43760  0.73867  1.0000
  H   H752      1.0  0.66745  0.06649  0.72250  1.0000
  C   C763      1.0  0.82522  0.44820  0.73242  1.0000
  H   H753      1.0  0.69384  0.06681  0.75589  1.0000
  H   H754      1.0  0.80448  0.26293  0.54687  1.0000
  C   C764      1.0  0.63226  0.28868  0.58626  1.0000
  H   H755      1.0  0.59127  0.42365  0.77762  1.0000
  H   H756      1.0  0.00499  0.49725  0.71481  1.0000
  H   H757      1.0  0.63035  0.20888  0.53736  1.0000
  H   H758      1.0  0.97911  0.36395  0.52959  1.0000
  H   H759      1.0  0.53483  0.16032  0.68671  1.0000
  H   H760      1.0  0.58326  0.08215  0.65978  1.0000
  H   H761      1.0  0.64413  0.29754  0.59694  1.0000
  C   C765      1.0  0.85628  0.45004  0.70275  1.0000
  C   C766      1.0  0.77522  0.32594  0.53289  1.0000
  S   S256      1.0  0.59357  0.37228  0.77677  1.0000
  C   C767      1.0  0.60070  0.26379  0.58271  1.0000
  H   H762      1.0  0.81289  0.45429  0.71961  1.0000
  C   C768      1.0  0.02373  0.42330  0.70554  1.0000
  C   C769      1.0  0.54303  0.11779  0.63386  1.0000
  C   C770      1.0  0.57019  0.09595  0.65762  1.0000
  H   H763      1.0  0.61913  0.25658  0.62762  1.0000
  Fe  Fe128     1.0  0.93136  0.51828  0.67818  1.0000
  C   C771      1.0  0.71953  0.04389  0.73997  1.0000
  C   C772      1.0  0.69855  0.05676  0.74083  1.0000
  H   H764      1.0  0.94719  0.49724  0.60575  1.0000
  H   H765      1.0  0.62190  0.28728  0.63035  1.0000
  C   C773      1.0  0.86394  0.43876  0.74304  1.0000
  H   H766      1.0  0.84794  0.49874  0.59701  1.0000
  C   C774      1.0  0.00329  0.42026  0.74963  1.0000
  S   S257      1.0  0.69292  0.26412  0.54305  1.0000
  C   C775      1.0  0.63558  0.28969  0.56222  1.0000
  H   H767      1.0  0.91654  0.49665  0.56695  1.0000
  H   H768      1.0  0.72040  0.30739  0.54224  1.0000
  C   C776      1.0  0.56421  0.11038  0.67600  1.0000
  H   H769      1.0  0.53471  0.12111  0.61742  1.0000
  H   H770      1.0  0.62423  0.27719  0.52979  1.0000
  H   H771      1.0  0.73093  0.04410  0.75461  1.0000
  C   C777      1.0  0.82219  0.49680  0.77679  1.0000
  C   C778      1.0  0.85673  0.43494  0.76605  1.0000
  H   H772      1.0  0.58769  0.25276  0.59056  1.0000
  H   H773      1.0  0.65854  0.45025  0.76153  1.0000
  C   C779      1.0  0.64272  0.45031  0.77203  1.0000
  C   C780      1.0  0.88119  0.49754  0.57925  1.0000
  C   C781      1.0  0.55972  0.09990  0.63634  1.0000
  C   C782      1.0  0.00854  0.47635  0.77002  1.0000
  H   H774      1.0  0.86347  0.51506  0.63259  1.0000
  C   C783      1.0  0.78693  0.30434  0.53419  1.0000
  H   H775      1.0  0.67843  0.04292  0.68848  1.0000
  C   C784      1.0  0.78752  0.26200  0.53837  1.0000
  H   H776      1.0  0.94416  0.39054  0.52970  1.0000
  H   H777      1.0  0.77749  0.24830  0.54759  1.0000
  H   H778      1.0  0.53087  0.13487  0.70508  1.0000
  C   C785      1.0  0.93809  0.51420  0.60224  1.0000
  C   C786      1.0  0.68987  0.04325  0.70305  1.0000
  H   H779      1.0  0.02308  0.30662  0.77238  1.0000
  C   C787      1.0  0.60355  0.26439  0.55863  1.0000
  C   C788      1.0  0.71080  0.03032  0.70291  1.0000
  H   H780      1.0  0.67632  0.03152  0.61275  1.0000
  N   N67       1.0  0.72534  0.03082  0.72120  1.0000
  H   H781      1.0  0.64998  0.29896  0.55442  1.0000
  H   H782      1.0  0.59291  0.25388  0.54815  1.0000
  S   S258      1.0  0.57656  0.30333  0.77753  1.0000
  H   H783      1.0  0.80546  0.30342  0.53060  1.0000
  H   H784      1.0  0.02758  0.34898  0.77472  1.0000
  Fe  Fe129     1.0  0.89550  0.13954  0.00990  1.0000
  S   S259      1.0  0.89114  0.17600  0.99542  1.0000
  Fe  Fe130     1.0  0.86653  0.11883  0.97219  1.0000
  S   S260      1.0  0.86017  0.15336  0.95430  1.0000
  S   S261      1.0  0.85150  0.08407  0.96489  1.0000
  Fe  Fe131     1.0  0.89784  0.15959  0.96102  1.0000
  S   S262      1.0  0.92332  0.17162  0.93322  1.0000
  Fe  Fe132     1.0  0.85389  0.16706  0.99003  1.0000
  S   S263      1.0  0.81999  0.18568  0.00009  1.0000
  S   S264      1.0  0.90450  0.12375  0.97575  1.0000
  S   S265      1.0  0.85793  0.13185  0.00763  1.0000
  Fe  Fe133     1.0  0.77674  0.49096  0.81971  1.0000
  S   S266      1.0  0.74830  0.51498  0.83353  1.0000
  S   S267      1.0  0.02065  0.20531  0.96525  1.0000
  Fe  Fe134     1.0  0.77229  0.45754  0.86126  1.0000
  S   S268      1.0  0.74417  0.47894  0.87852  1.0000
  S   S269      1.0  0.78263  0.42163  0.87438  1.0000
  Fe  Fe135     1.0  0.72945  0.48246  0.84303  1.0000
  S   S270      1.0  0.69106  0.47698  0.84053  1.0000
  Fe  Fe136     1.0  0.76541  0.50943  0.86783  1.0000
  S   S271      1.0  0.75611  0.45899  0.82644  1.0000
  S   S272      1.0  0.79531  0.48759  0.85336  1.0000
  Fe  Fe137     1.0  0.62296  0.37411  0.80154  1.0000
  S   S273      1.0  0.60112  0.39030  0.82957  1.0000
  H   H785      1.0  0.79797  0.31893  0.93135  1.0000
  H   H786      1.0  0.69505  0.44028  0.87859  1.0000
  S   S274      1.0  0.56331  0.35075  0.82086  1.0000
  Fe  Fe138     1.0  0.57136  0.38606  0.80627  1.0000
  H   H787      1.0  0.88221  0.08383  0.00460  1.0000
  Fe  Fe139     1.0  0.59534  0.35379  0.84167  1.0000
  S   S275      1.0  0.59600  0.34588  0.88004  1.0000
  S   S276      1.0  0.61916  0.33755  0.81516  1.0000
  Fe  Fe140     1.0  0.72205  0.34827  0.96775  1.0000
  S   S277      1.0  0.73427  0.32102  0.94327  1.0000
  S   S278      1.0  0.72581  0.38683  0.96258  1.0000
  Fe  Fe141     1.0  0.70396  0.31310  0.00308  1.0000
  S   S279      1.0  0.71468  0.28248  0.98128  1.0000
  Fe  Fe142     1.0  0.74779  0.30114  0.97426  1.0000
  S   S280      1.0  0.78505  0.28766  0.96991  1.0000
  Fe  Fe143     1.0  0.70040  0.30470  0.95195  1.0000
  S   S281      1.0  0.68259  0.29085  0.92127  1.0000
  S   S282      1.0  0.73830  0.33008  0.99828  1.0000
  S   S283      1.0  0.68693  0.33363  0.97426  1.0000
  C   C789      1.0  0.98357  0.12917  0.93464  1.0000
  H   H788      1.0  0.59837  0.28331  0.89294  1.0000
  H   H789      1.0  0.79927  0.38276  0.98912  1.0000
  C   C790      1.0  0.62152  0.33279  0.89109  1.0000
  C   C791      1.0  0.63739  0.32104  0.87663  1.0000
  C   C792      1.0  0.65618  0.30833  0.88609  1.0000
  C   C793      1.0  0.65976  0.30810  0.90993  1.0000
  C   C794      1.0  0.64448  0.32066  0.92434  1.0000
  C   C795      1.0  0.62518  0.33269  0.91495  1.0000
  H   H790      1.0  0.63466  0.32083  0.85830  1.0000
  H   H791      1.0  0.66796  0.29858  0.87491  1.0000
  H   H792      1.0  0.64700  0.32034  0.94280  1.0000
  H   H793      1.0  0.61292  0.34171  0.92624  1.0000
  C   C796      1.0  0.76559  0.41243  0.89817  1.0000
  C   C797      1.0  0.75865  0.38942  0.89984  1.0000
  C   C798      1.0  0.74611  0.38147  0.91940  1.0000
  C   C799      1.0  0.74047  0.39650  0.93735  1.0000
  C   C800      1.0  0.74700  0.41965  0.93544  1.0000
  C   C801      1.0  0.75955  0.42762  0.91588  1.0000
  H   H794      1.0  0.76317  0.37766  0.88609  1.0000
  H   H795      1.0  0.74086  0.36373  0.92050  1.0000
  H   H796      1.0  0.74259  0.43142  0.94923  1.0000
  H   H797      1.0  0.76498  0.44539  0.91475  1.0000
  C   C802      1.0  0.68374  0.45084  0.82822  1.0000
  H   H798      1.0  0.80237  0.40370  0.93940  1.0000
  H   H799      1.0  0.81426  0.11761  0.90497  1.0000
  C   C803      1.0  0.66855  0.41121  0.80647  1.0000
  C   C804      1.0  0.68839  0.42242  0.79814  1.0000
  C   C805      1.0  0.69600  0.44220  0.80899  1.0000
  H   H800      1.0  0.82759  0.43604  0.79012  1.0000
  H   H801      1.0  0.01086  0.27120  0.80250  1.0000
  H   H802      1.0  0.77755  0.40021  0.97375  1.0000
  H   H803      1.0  0.71086  0.45120  0.80199  1.0000
  C   C806      1.0  0.84818  0.07499  0.93628  1.0000
  C   C807      1.0  0.85544  0.08854  0.91721  1.0000
  C   C808      1.0  0.85132  0.08142  0.89465  1.0000
  C   C809      1.0  0.83993  0.06074  0.89099  1.0000
  C   C810      1.0  0.60516  0.43508  0.78129  1.0000
  C   C811      1.0  0.83702  0.05420  0.93261  1.0000
  H   H804      1.0  0.86405  0.10459  0.91983  1.0000
  H   H805      1.0  0.85688  0.09203  0.87996  1.0000
  N   N68       1.0  0.97952  0.14016  0.97435  1.0000
  H   H806      1.0  0.63295  0.26353  0.87571  1.0000
  C   C812      1.0  0.94949  0.18369  0.94152  1.0000
  C   C813      1.0  0.95248  0.19083  0.96411  1.0000
  C   C814      1.0  0.97416  0.19835  0.97086  1.0000
  C   C815      1.0  0.99308  0.19860  0.95516  1.0000
  C   C816      1.0  0.98992  0.19217  0.93236  1.0000
  C   C817      1.0  0.96813  0.18492  0.92553  1.0000
  H   H807      1.0  0.93815  0.19037  0.97647  1.0000
  H   H808      1.0  0.97641  0.20353  0.98846  1.0000
  H   H809      1.0  0.00433  0.19240  0.92008  1.0000
  H   H810      1.0  0.96591  0.17959  0.90797  1.0000
  C   C818      1.0  0.81092  0.21427  0.99185  1.0000
  C   C819      1.0  0.82557  0.22934  0.97966  1.0000
  C   C820      1.0  0.81738  0.25176  0.97303  1.0000
  C   C821      1.0  0.79448  0.25922  0.97834  1.0000
  C   C822      1.0  0.77977  0.24405  0.99030  1.0000
  C   C823      1.0  0.78801  0.22171  0.99710  1.0000
  H   H811      1.0  0.84325  0.22382  0.97554  1.0000
  H   H812      1.0  0.56452  0.30699  0.88866  1.0000
  H   H813      1.0  0.76214  0.24960  0.99454  1.0000
  C   C824      1.0  0.62095  0.26783  0.84078  1.0000
  H   H814      1.0  0.87486  0.48253  0.79944  1.0000
  C   C825      1.0  0.79914  0.33757  0.93295  1.0000
  H   H815      1.0  0.79212  0.11596  0.97637  1.0000
  N   N69       1.0  0.80141  0.16219  0.94044  1.0000
  C   C826      1.0  0.79557  0.14990  0.96018  1.0000
  C   C827      1.0  0.80829  0.15086  0.92084  1.0000
  C   C828      1.0  0.79622  0.12565  0.96055  1.0000
  C   C829      1.0  0.80877  0.12662  0.92049  1.0000
  H   H816      1.0  0.86783  0.03340  0.82975  1.0000
  Fe  Fe144     1.0  0.58772  0.33697  0.79298  1.0000
  C   C830      1.0  0.00248  0.14532  0.97445  1.0000
  H   H817      1.0  0.81369  0.16055  0.90542  1.0000
  C   C831      1.0  0.80184  0.18755  0.94073  1.0000
  C   C832      1.0  0.58368  0.28759  0.83712  1.0000
  H   H818      1.0  0.56993  0.29442  0.82615  1.0000
  H   H819      1.0  0.81591  0.38595  0.90297  1.0000
  H   H820      1.0  0.83129  0.04365  0.94728  1.0000
  S   S284      1.0  0.79210  0.49756  0.78357  1.0000
  C   C833      1.0  0.80951  0.37506  0.91721  1.0000
  H   H821      1.0  0.64231  0.41045  0.83343  1.0000
  H   H822      1.0  0.71126  0.42943  0.90302  1.0000
  H   H823      1.0  0.68076  0.34361  0.86367  1.0000
  H   H824      1.0  0.81370  0.34325  0.89870  1.0000
  H   H825      1.0  0.95178  0.12835  0.95455  1.0000
  C   C834      1.0  0.61903  0.26993  0.86471  1.0000
  C   C835      1.0  0.56134  0.30115  0.87089  1.0000
  C   C836      1.0  0.65699  0.41934  0.82629  1.0000
  C   C837      1.0  0.86226  0.48790  0.78666  1.0000
  H   H826      1.0  0.55625  0.31704  0.86068  1.0000
  C   C838      1.0  0.78467  0.38231  0.97705  1.0000
  S   S285      1.0  0.65818  0.38779  0.79126  1.0000
  H   H827      1.0  0.78866  0.19469  0.95320  1.0000
  C   C839      1.0  0.59937  0.28113  0.87438  1.0000
  C   C840      1.0  0.80266  0.11399  0.94050  1.0000
  H   H828      1.0  0.58775  0.44888  0.81127  1.0000
  H   H829      1.0  0.65503  0.44560  0.85206  1.0000
  H   H830      1.0  0.97138  0.15697  0.00616  1.0000
  H   H831      1.0  0.77033  0.37250  0.98544  1.0000
  C   C841      1.0  0.00692  0.13468  0.93450  1.0000
  H   H832      1.0  0.52863  0.39016  0.83944  1.0000
  C   C842      1.0  0.96514  0.14289  0.99541  1.0000
  C   C843      1.0  0.97008  0.13191  0.95487  1.0000
  C   C844      1.0  0.01645  0.14271  0.95455  1.0000
  H   H833      1.0  0.69757  0.41614  0.78290  1.0000
  H   H834      1.0  0.79062  0.15882  0.97588  1.0000
  H   H835      1.0  0.91061  0.08485  0.01603  1.0000
  H   H836      1.0  0.81919  0.19291  0.94609  1.0000
  H   H837      1.0  0.82890  0.26342  0.96384  1.0000
  N   N70       1.0  0.58212  0.28996  0.86057  1.0000
  H   H838      1.0  0.97572  0.12360  0.91898  1.0000
  H   H839      1.0  0.83322  0.48687  0.81100  1.0000
  H   H840      1.0  0.65417  0.47602  0.79487  1.0000
  C   C845      1.0  0.60314  0.27661  0.82687  1.0000
  H   H841      1.0  0.72520  0.43155  0.87508  1.0000
  H   H842      1.0  0.60444  0.27514  0.80820  1.0000
  H   H843      1.0  0.94694  0.14786  0.99119  1.0000
  N   N71       1.0  0.79252  0.37162  0.95544  1.0000
  H   H844      1.0  0.65219  0.33298  0.01454  1.0000
  H   H845      1.0  0.78469  0.33738  0.96744  1.0000
  H   H846      1.0  0.63627  0.25957  0.83298  1.0000
  H   H847      1.0  0.67915  0.35599  0.90453  1.0000
  H   H848      1.0  0.82413  0.03111  0.90744  1.0000
  H   H849      1.0  0.89876  0.05724  0.00907  1.0000
  N   N72       1.0  0.70188  0.40394  0.87902  1.0000
  C   C846      1.0  0.70319  0.39703  0.85661  1.0000
  C   C847      1.0  0.69332  0.38952  0.89614  1.0000
  C   C848      1.0  0.69544  0.37533  0.85072  1.0000
  C   C849      1.0  0.68581  0.36749  0.89093  1.0000
  C   C850      1.0  0.68677  0.36048  0.86804  1.0000
  C   C851      1.0  0.70864  0.42742  0.88426  1.0000
  H   H850      1.0  0.71001  0.40846  0.84310  1.0000
  H   H851      1.0  0.69240  0.39490  0.91397  1.0000
  H   H852      1.0  0.69589  0.37022  0.83278  1.0000
  C   C852      1.0  0.80170  0.38504  0.93786  1.0000
  H   H853      1.0  0.79805  0.19554  0.92350  1.0000
  C   C853      1.0  0.80806  0.35118  0.91474  1.0000
  H   H854      1.0  0.00989  0.15247  0.98964  1.0000
  C   C854      1.0  0.79154  0.34812  0.95336  1.0000
  H   H855      1.0  0.54682  0.28903  0.87148  1.0000
  N   N73       1.0  0.62090  0.46372  0.80522  1.0000
  H   H856      1.0  0.80336  0.09517  0.94061  1.0000
  S   S286      1.0  0.83467  0.05269  0.86240  1.0000
  C   C855      1.0  0.66440  0.43920  0.83699  1.0000
  C   C856      1.0  0.83291  0.04707  0.91006  1.0000
  H   H857      1.0  0.77656  0.21016  0.00653  1.0000
  C   C857      1.0  0.83867  0.49036  0.79327  1.0000
  H   H858      1.0  0.61080  0.46885  0.84036  1.0000
  C   C858      1.0  0.60329  0.44948  0.80032  1.0000
  H   H859      1.0  0.63593  0.48407  0.83099  1.0000
  H   H860      1.0  0.86939  0.43089  0.77922  1.0000
  S   S287      1.0  0.54733  0.41754  0.80079  1.0000
  C   C859      1.0  0.61869  0.47849  0.82540  1.0000
  C   C860      1.0  0.89466  0.07456  0.01624  1.0000
  H   H861      1.0  0.01751  0.13334  0.91876  1.0000
  H   H862      1.0  0.60770  0.49413  0.82124  1.0000
  H   H863      1.0  0.99863  0.47575  0.78619  1.0000
  H   H864      1.0  0.96519  0.12646  0.00587  1.0000
  C   C861      1.0  0.64019  0.46471  0.79103  1.0000
  H   H865      1.0  0.61616  0.35352  0.02825  1.0000
  C   C862      1.0  0.73135  0.55437  0.17631  1.0000
  S   S288      1.0  0.70725  0.65522  0.04923  1.0000
  H   H866      1.0  0.96342  0.82343  0.10460  1.0000
  H   H867      1.0  0.01264  0.94472  0.13237  1.0000
  Fe  Fe145     1.0  0.63396  0.60956  0.18691  1.0000
  S   S289      1.0  0.67317  0.60857  0.18467  1.0000
  S   S290      1.0  0.61133  0.64225  0.18334  1.0000
  Fe  Fe146     1.0  0.63071  0.55688  0.18644  1.0000
  S   S291      1.0  0.66914  0.55159  0.18445  1.0000
  Fe  Fe147     1.0  0.67067  0.57913  0.21108  1.0000
  S   S292      1.0  0.69107  0.57012  0.24361  1.0000
  Fe  Fe148     1.0  0.66880  0.58120  0.15831  1.0000
  S   S293      1.0  0.68775  0.57514  0.12414  1.0000
  S   S294      1.0  0.63170  0.58223  0.21510  1.0000
  S   S295      1.0  0.63006  0.58446  0.15848  1.0000
  Fe  Fe149     1.0  0.95948  0.90463  0.13714  1.0000
  S   S296      1.0  0.98713  0.90561  0.10917  1.0000
  S   S297      1.0  0.93485  0.93592  0.13909  1.0000
  Fe  Fe150     1.0  0.97321  0.85490  0.15270  1.0000
  S   S298      1.0  0.00224  0.85275  0.12622  1.0000
  S   S299      1.0  0.96478  0.82083  0.17114  1.0000
  C   C863      1.0  0.90749  0.80428  0.06340  1.0000
  Fe  Fe151     1.0  0.97659  0.86948  0.10167  1.0000
  S   S300      1.0  0.97373  0.85390  0.06630  1.0000
  S   S301      1.0  0.98276  0.88996  0.16483  1.0000
  S   S302      1.0  0.94716  0.86966  0.12750  1.0000
  H   H868      1.0  0.63870  0.58548  0.06545  1.0000
  H   H869      1.0  0.62155  0.64195  0.12789  1.0000
  C   C864      1.0  0.75151  0.60413  0.25027  1.0000
  C   C865      1.0  0.97023  0.81344  0.20044  1.0000
  C   C866      1.0  0.97984  0.82904  0.21527  1.0000
  C   C867      1.0  0.98529  0.82189  0.23804  1.0000
  C   C868      1.0  0.98136  0.79910  0.24609  1.0000
  C   C869      1.0  0.97138  0.78365  0.23139  1.0000
  C   C870      1.0  0.96580  0.79083  0.20868  1.0000
  H   H870      1.0  0.98323  0.84651  0.20916  1.0000
  H   H871      1.0  0.97514  0.95598  0.11475  1.0000
  H   H872      1.0  0.96824  0.76608  0.23740  1.0000
  H   H873      1.0  0.95832  0.77867  0.19734  1.0000
  C   C871      1.0  0.71691  0.58124  0.25435  1.0000
  H   H874      1.0  0.73805  0.73856  0.04088  1.0000
  H   H875      1.0  0.90568  0.79822  0.04596  1.0000
  C   C872      1.0  0.84045  0.63265  0.26354  1.0000
  C   C873      1.0  0.98042  0.97429  0.11545  1.0000
  C   C874      1.0  0.55244  0.65692  0.23615  1.0000
  C   C875      1.0  0.56906  0.63919  0.24063  1.0000
  C   C876      1.0  0.58739  0.63476  0.22475  1.0000
  C   C877      1.0  0.58937  0.64820  0.20436  1.0000
  C   C878      1.0  0.57316  0.66645  0.20026  1.0000
  C   C879      1.0  0.55474  0.67082  0.21609  1.0000
  H   H876      1.0  0.96423  0.79262  0.10066  1.0000
  H   H877      1.0  0.59991  0.62085  0.22826  1.0000
  H   H878      1.0  0.57464  0.67703  0.18458  1.0000
  H   H879      1.0  0.63684  0.59756  0.10611  1.0000
  C   C880      1.0  0.94687  0.85404  0.05226  1.0000
  H   H880      1.0  0.77453  0.75880  0.03052  1.0000
  C   C881      1.0  0.57292  0.70554  0.26383  1.0000
  H   H881      1.0  0.57811  0.55897  0.22143  1.0000
  C   C882      1.0  0.90590  0.86476  0.05030  1.0000
  C   C883      1.0  0.92725  0.86569  0.06138  1.0000
  C   C884      1.0  0.56660  0.57346  0.21647  1.0000
  C   C885      1.0  0.94500  0.84168  0.03184  1.0000
  H   H882      1.0  0.89078  0.87371  0.05758  1.0000
  H   H883      1.0  0.92851  0.87543  0.07697  1.0000
  C   C886      1.0  0.70226  0.63263  0.06980  1.0000
  C   C887      1.0  0.70007  0.63795  0.09332  1.0000
  C   C888      1.0  0.69552  0.62053  0.11017  1.0000
  C   C889      1.0  0.69353  0.59757  0.10362  1.0000
  C   C890      1.0  0.69627  0.59216  0.08017  1.0000
  C   C891      1.0  0.70032  0.60966  0.06326  1.0000
  H   H884      1.0  0.70178  0.65566  0.09850  1.0000
  H   H885      1.0  0.69390  0.62481  0.12822  1.0000
  H   H886      1.0  0.69495  0.57439  0.07500  1.0000
  H   H887      1.0  0.70214  0.60535  0.04522  1.0000
  C   C892      1.0  0.94891  0.99679  0.18541  1.0000
  C   C893      1.0  0.93278  0.99929  0.16783  1.0000
  C   C894      1.0  0.92827  0.98032  0.15407  1.0000
  C   C895      1.0  0.94016  0.95891  0.15750  1.0000
  C   C896      1.0  0.95627  0.95643  0.17510  1.0000
  C   C897      1.0  0.96039  0.97523  0.18920  1.0000
  H   H888      1.0  0.56752  0.62848  0.25621  1.0000
  H   H889      1.0  0.91571  0.98230  0.14052  1.0000
  H   H890      1.0  0.96543  0.94000  0.17796  1.0000
  H   H891      1.0  0.97286  0.97318  0.20282  1.0000
  C   C898      1.0  0.56945  0.58445  0.19487  1.0000
  H   H892      1.0  0.58344  0.69786  0.25004  1.0000
  C   C899      1.0  0.63881  0.61062  0.09240  1.0000
  H   H893      1.0  0.76191  0.61612  0.24016  1.0000
  H   H894      1.0  0.64459  0.61495  0.03382  1.0000
  H   H895      1.0  0.90996  0.00959  0.22188  1.0000
  C   C900      1.0  0.02712  0.81278  0.17948  1.0000
  H   H896      1.0  0.64633  0.66779  0.08425  1.0000
  N   N74       1.0  0.87979  0.64347  0.25583  1.0000
  H   H897      1.0  0.57219  0.73991  0.24824  1.0000
  C   C901      1.0  0.90388  0.85189  0.03026  1.0000
  N   N75       1.0  0.64120  0.63339  0.09757  1.0000
  C   C902      1.0  0.73041  0.59691  0.24150  1.0000
  H   H898      1.0  0.90618  0.61970  0.26805  1.0000
  C   C903      1.0  0.02254  0.98382  0.17332  1.0000
  C   C904      1.0  0.64420  0.64976  0.08025  1.0000
  C   C905      1.0  0.90201  0.01878  0.23631  1.0000
  C   C906      1.0  0.02479  0.96346  0.16090  1.0000
  H   H899      1.0  0.96404  0.98494  0.11647  1.0000
  H   H900      1.0  0.87768  0.83441  0.10470  1.0000
  H   H901      1.0  0.91398  0.65675  0.25216  1.0000
  C   C907      1.0  0.99282  0.99778  0.14733  1.0000
  H   H902      1.0  0.72468  0.60335  0.22479  1.0000
  C   C908      1.0  0.01076  0.96063  0.14189  1.0000
  C   C909      1.0  0.64322  0.62017  0.05168  1.0000
  H   H903      1.0  0.99294  0.83397  0.24935  1.0000
  C   C910      1.0  0.53426  0.59980  0.22469  1.0000
  H   H904      1.0  0.02620  0.86415  0.18145  1.0000
  C   C911      1.0  0.55460  0.60310  0.18863  1.0000
  Fe  Fe152     1.0  0.00993  0.88893  0.13617  1.0000
  C   C912      1.0  0.54895  0.58120  0.23155  1.0000
  H   H905      1.0  0.55720  0.61173  0.17192  1.0000
  H   H906      1.0  0.94335  0.79361  0.06536  1.0000
  C   C913      1.0  0.72462  0.57314  0.27608  1.0000
  C   C914      1.0  0.63985  0.60366  0.06942  1.0000
  C   C915      1.0  0.56661  0.72907  0.26281  1.0000
  H   H907      1.0  0.64860  0.65627  0.04342  1.0000
  H   H908      1.0  0.54672  0.57288  0.24846  1.0000
  S   S303      1.0  0.99056  0.79028  0.27402  1.0000
  H   H909      1.0  0.64903  0.62714  0.13305  1.0000
  N   N76       1.0  0.99479  0.97754  0.13556  1.0000
  S   S304      1.0  0.52851  0.66044  0.25545  1.0000
  C   C916      1.0  0.72540  0.54064  0.15805  1.0000
  H   H910      1.0  0.54206  0.68458  0.21249  1.0000
  H   H911      1.0  0.92381  0.01582  0.16480  1.0000
  H   H912      1.0  0.95122  0.80423  0.12648  1.0000
  H   H913      1.0  0.99016  0.97892  0.09931  1.0000
  C   C917      1.0  0.88773  0.62328  0.26632  1.0000
  H   H914      1.0  0.53006  0.64233  0.18489  1.0000
  H   H915      1.0  0.58314  0.57848  0.18309  1.0000
  N   N77       1.0  0.93119  0.80989  0.09622  1.0000
  C   C918      1.0  0.92872  0.80170  0.07449  1.0000
  C   C919      1.0  0.91315  0.82151  0.10706  1.0000
  H   H916      1.0  0.02128  0.81561  0.16193  1.0000
  C   C920      1.0  0.89179  0.82473  0.09631  1.0000
  H   H917      1.0  0.98009  0.01117  0.14247  1.0000
  C   C921      1.0  0.95360  0.80737  0.10753  1.0000
  C   C922      1.0  0.87825  0.01759  0.24097  1.0000
  H   H918      1.0  0.91534  0.82858  0.12403  1.0000
  C   C923      1.0  0.75289  0.72899  0.03371  1.0000
  H   H919      1.0  0.64844  0.65696  0.12423  1.0000
  C   C924      1.0  0.63992  0.64025  0.12180  1.0000
  C   C925      1.0  0.64539  0.64339  0.05708  1.0000
  C   C926      1.0  0.89619  0.65987  0.24550  1.0000
  H   H920      1.0  0.73799  0.57152  0.17285  1.0000
  S   S305      1.0  0.98798  0.71958  0.27423  1.0000
  S   S306      1.0  0.95595  0.02035  0.20236  1.0000
  C   C927      1.0  0.02285  0.79157  0.19085  1.0000
  H   H921      1.0  0.86757  0.00750  0.23013  1.0000
  H   H922      1.0  0.89685  0.65846  0.22641  1.0000
  C   C928      1.0  0.72788  0.54618  0.19908  1.0000
  H   H923      1.0  0.72741  0.54707  0.14031  1.0000
  C   C929      1.0  0.84839  0.61208  0.27428  1.0000
  H   H924      1.0  0.87276  0.81899  0.06542  1.0000
  H   H925      1.0  0.89104  0.67795  0.25005  1.0000
  H   H926      1.0  0.85019  0.66426  0.24606  1.0000
  C   C930      1.0  0.00652  0.00115  0.16648  1.0000
  N   N78       1.0  0.53730  0.61056  0.20350  1.0000
  H   H927      1.0  0.73542  0.69669  0.03362  1.0000
  C   C931      1.0  0.88896  0.81595  0.07437  1.0000
  C   C932      1.0  0.85649  0.64824  0.25430  1.0000
  H   H928      1.0  0.73201  0.55720  0.21317  1.0000
  H   H929      1.0  0.82192  0.63644  0.26255  1.0000
  H   H930      1.0  0.00422  0.01688  0.17629  1.0000
  C   C933      1.0  0.87215  0.60736  0.27584  1.0000
  H   H931      1.0  0.02505  0.77218  0.22320  1.0000
  H   H932      1.0  0.01374  0.77829  0.18220  1.0000
  C   C934      1.0  0.75918  0.59605  0.27206  1.0000
  S   S307      1.0  0.60358  0.52940  0.18693  1.0000
  C   C935      1.0  0.75148  0.70533  0.02942  1.0000
  H   H933      1.0  0.84980  0.02903  0.26323  1.0000
  S   S308      1.0  0.56271  0.85758  0.41303  1.0000
  Fe  Fe153     1.0  0.66134  0.90871  0.48422  1.0000
  S   S309      1.0  0.66979  0.94520  0.49241  1.0000
  S   S310      1.0  0.62301  0.90206  0.48901  1.0000
  Fe  Fe154     1.0  0.71183  0.89583  0.47203  1.0000
  S   S311      1.0  0.72376  0.93168  0.47894  1.0000
  S   S312      1.0  0.73827  0.87047  0.45616  1.0000
  Fe  Fe155     1.0  0.70033  0.92911  0.51055  1.0000
  Fe  Fe156     1.0  0.69218  0.94459  0.46018  1.0000
  S   S313      1.0  0.68696  0.97387  0.43363  1.0000
  S   S314      1.0  0.69051  0.89236  0.50501  1.0000
  S   S315      1.0  0.68165  0.90901  0.45074  1.0000
  Fe  Fe157     1.0  0.81268  0.56810  0.36060  1.0000
  S   S316      1.0  0.78187  0.59192  0.35251  1.0000
  H   H934      1.0  0.97766  0.78152  0.40347  1.0000
  Fe  Fe158     1.0  0.84750  0.60225  0.34123  1.0000
  S   S317      1.0  0.81996  0.62855  0.33154  1.0000
  S   S318      1.0  0.88612  0.60589  0.33667  1.0000
  Fe  Fe159     1.0  0.80405  0.61971  0.36624  1.0000
  S   S319      1.0  0.79070  0.65085  0.38596  1.0000
  Fe  Fe160     1.0  0.80016  0.59890  0.31834  1.0000
  H   H935      1.0  0.81186  0.85883  0.47479  1.0000
  S   S320      1.0  0.83318  0.59535  0.37703  1.0000
  S   S321      1.0  0.82942  0.57310  0.32541  1.0000
  Fe  Fe161     1.0  0.87799  0.75612  0.49979  1.0000
  S   S322      1.0  0.86190  0.78764  0.48176  1.0000
  Fe  Fe162     1.0  0.84492  0.72330  0.47789  1.0000
  S   S323      1.0  0.82600  0.75195  0.45854  1.0000
  S   S324      1.0  0.83890  0.68509  0.47518  1.0000
  Fe  Fe163     1.0  0.86152  0.76522  0.45064  1.0000
  S   S325      1.0  0.86987  0.77559  0.41360  1.0000
  Fe  Fe164     1.0  0.82778  0.77171  0.49128  1.0000
  S   S326      1.0  0.79667  0.79046  0.50796  1.0000
  S   S327      1.0  0.88024  0.73509  0.46769  1.0000
  S   S328      1.0  0.84401  0.74163  0.51164  1.0000
  Fe  Fe165     1.0  0.97390  0.73297  0.33857  1.0000
  S   S329      1.0  0.95138  0.74652  0.30999  1.0000
  S   S330      1.0  0.96812  0.73973  0.37650  1.0000
  Fe  Fe166     1.0  0.00811  0.70836  0.30588  1.0000
  C   C936      1.0  0.95740  0.80490  0.32697  1.0000
  Fe  Fe167     1.0  0.95662  0.71063  0.29635  1.0000
  H   H936      1.0  0.97737  0.81285  0.40500  1.0000
  S   S331      1.0  0.00661  0.74397  0.32044  1.0000
  S   S332      1.0  0.97698  0.69640  0.32644  1.0000
  C   C937      1.0  0.89702  0.76524  0.40332  1.0000
  C   C938      1.0  0.90124  0.76359  0.37945  1.0000
  C   C939      1.0  0.92274  0.75491  0.37099  1.0000
  C   C940      1.0  0.94023  0.74834  0.38636  1.0000
  C   C941      1.0  0.93595  0.74993  0.41020  1.0000
  C   C942      1.0  0.91441  0.75836  0.41867  1.0000
  H   H937      1.0  0.88782  0.76891  0.36750  1.0000
  H   H938      1.0  0.92588  0.75377  0.35259  1.0000
  H   H939      1.0  0.94947  0.74497  0.42218  1.0000
  H   H940      1.0  0.91149  0.76004  0.43707  1.0000
  C   C943      1.0  0.80594  0.66026  0.40969  1.0000
  C   C944      1.0  0.80342  0.68355  0.41579  1.0000
  C   C945      1.0  0.81469  0.69158  0.43507  1.0000
  C   C946      1.0  0.82786  0.67618  0.44888  1.0000
  C   C947      1.0  0.83050  0.65289  0.44273  1.0000
  C   C948      1.0  0.81986  0.64500  0.42295  1.0000
  H   H941      1.0  0.79264  0.69540  0.40557  1.0000
  H   H942      1.0  0.81233  0.70947  0.43975  1.0000
  H   H943      1.0  0.84054  0.64084  0.45346  1.0000
  H   H944      1.0  0.82172  0.62696  0.41847  1.0000
  C   C949      1.0  0.89642  0.63159  0.32360  1.0000
  C   C950      1.0  0.92039  0.63440  0.32111  1.0000
  C   C951      1.0  0.92908  0.65439  0.31005  1.0000
  C   C952      1.0  0.91382  0.67149  0.30113  1.0000
  C   C953      1.0  0.88986  0.66887  0.30396  1.0000
  C   C954      1.0  0.88118  0.64908  0.31535  1.0000
  H   H945      1.0  0.93230  0.62097  0.32752  1.0000
  H   H946      1.0  0.94760  0.65617  0.30771  1.0000
  H   H947      1.0  0.86273  0.64717  0.31718  1.0000
  C   C955      1.0  0.75267  0.84680  0.47036  1.0000
  C   C956      1.0  0.77054  0.83470  0.45840  1.0000
  C   C957      1.0  0.78395  0.81714  0.46960  1.0000
  C   C958      1.0  0.77931  0.81130  0.49280  1.0000
  C   C959      1.0  0.76081  0.82270  0.50451  1.0000
  C   C960      1.0  0.74763  0.84053  0.49341  1.0000
  H   H948      1.0  0.77445  0.83936  0.44051  1.0000
  H   H949      1.0  0.79805  0.80839  0.46035  1.0000
  H   H950      1.0  0.58263  0.82446  0.45227  1.0000
  H   H951      1.0  0.73381  0.84962  0.50274  1.0000
  C   C961      1.0  0.77733  0.66993  0.47724  1.0000
  C   C962      1.0  0.75970  0.89598  0.52136  1.0000
  C   C963      1.0  0.98202  0.79570  0.35926  1.0000
  C   C964      1.0  0.85450  0.71817  0.39617  1.0000
  N   N79       1.0  0.79021  0.87770  0.49867  1.0000
  C   C965      1.0  0.57944  0.87195  0.43290  1.0000
  C   C966      1.0  0.56903  0.88546  0.45018  1.0000
  C   C967      1.0  0.58271  0.89514  0.46692  1.0000
  C   C968      1.0  0.60689  0.89170  0.46629  1.0000
  C   C969      1.0  0.61742  0.87898  0.44848  1.0000
  C   C970      1.0  0.60368  0.86894  0.43196  1.0000
  H   H952      1.0  0.55039  0.88781  0.45114  1.0000
  H   H953      1.0  0.57449  0.90500  0.48067  1.0000
  H   H954      1.0  0.63605  0.87618  0.44792  1.0000
  H   H955      1.0  0.61185  0.85851  0.41861  1.0000
  C   C971      1.0  0.70970  0.99177  0.42372  1.0000
  C   C972      1.0  0.87389  0.66020  0.37366  1.0000
  C   C973      1.0  0.80381  0.87642  0.47700  1.0000
  H   H956      1.0  0.58659  0.80970  0.48001  1.0000
  C   C974      1.0  0.74975  0.00358  0.42382  1.0000
  C   C975      1.0  0.73214  0.98898  0.43216  1.0000
  H   H957      1.0  0.95492  0.80646  0.30843  1.0000
  S   S333      1.0  0.81127  0.53066  0.37349  1.0000
  H   H958      1.0  0.76708  0.00128  0.43039  1.0000
  H   H959      1.0  0.73596  0.97557  0.44505  1.0000
  H   H960      1.0  0.90046  0.69793  0.51874  1.0000
  C   C976      1.0  0.62312  0.95716  0.44745  1.0000
  C   C977      1.0  0.61284  0.91306  0.39139  1.0000
  C   C978      1.0  0.88453  0.53886  0.40108  1.0000
  H   H961      1.0  0.65528  0.94127  0.41738  1.0000
  H   H962      1.0  0.78908  0.74021  0.51054  1.0000
  C   C979      1.0  0.82746  0.53806  0.41708  1.0000
  H   H963      1.0  0.53177  0.75355  0.31802  1.0000
  H   H964      1.0  0.61024  0.90120  0.37753  1.0000
  C   C980      1.0  0.94253  0.80672  0.36624  1.0000
  H   H965      1.0  0.95706  0.69687  0.50018  1.0000
  H   H966      1.0  0.92801  0.80977  0.37816  1.0000
  N   N80       1.0  0.54491  0.72475  0.29860  1.0000
  H   H967      1.0  0.93063  0.71419  0.49708  1.0000
  H   H968      1.0  0.90042  0.71578  0.39527  1.0000
  H   H969      1.0  0.83910  0.54283  0.45172  1.0000
  N   N81       1.0  0.77537  0.69532  0.47751  1.0000
  N   N82       1.0  0.61949  0.94259  0.42761  1.0000
  C   C981      1.0  0.59406  0.92044  0.40524  1.0000
  H   H970      1.0  0.58023  0.85613  0.50616  1.0000
  H   H971      1.0  0.82301  0.55623  0.41404  1.0000
  H   H972      1.0  0.85910  0.73431  0.38642  1.0000
  H   H973      1.0  0.77794  0.66365  0.45922  1.0000
  H   H974      1.0  0.86627  0.64458  0.36765  1.0000
  H   H975      1.0  0.54379  0.69044  0.31324  1.0000
  H   H976      1.0  0.59910  0.83760  0.47374  1.0000
  H   H977      1.0  0.57685  0.91423  0.40226  1.0000
  C   C982      1.0  0.72264  0.02386  0.39859  1.0000
  H   H978      1.0  0.87845  0.59175  0.28488  1.0000
  H   H979      1.0  0.76235  0.66233  0.48675  1.0000
  S   S334      1.0  0.78625  0.60509  0.28198  1.0000
  C   C983      1.0  0.74555  0.58060  0.28497  1.0000
  H   H980      1.0  0.79447  0.69754  0.50845  1.0000
  C   C984      1.0  0.93892  0.80907  0.34245  1.0000
  H   H981      1.0  0.71433  0.56101  0.28615  1.0000
  H   H982      1.0  0.74564  0.90886  0.52287  1.0000
  C   C985      1.0  0.77265  0.89408  0.50070  1.0000
  C   C986      1.0  0.59777  0.93506  0.42357  1.0000
  H   H983      1.0  0.79249  0.87989  0.46189  1.0000
  H   H984      1.0  0.85688  0.72087  0.41490  1.0000
  C   C987      1.0  0.78169  0.73100  0.49651  1.0000
  H   H985      1.0  0.75122  0.57421  0.30173  1.0000
  H   H986      1.0  0.75699  0.81811  0.52243  1.0000
  H   H987      1.0  0.75099  0.74084  0.44770  1.0000
  C   C988      1.0  0.76948  0.74328  0.47936  1.0000
  H   H988      1.0  0.60816  0.96941  0.45028  1.0000
  C   C989      1.0  0.76030  0.73137  0.46123  1.0000
  H   H989      1.0  0.81762  0.88935  0.47674  1.0000
  H   H990      1.0  0.76830  0.90547  0.48610  1.0000
  C   C990      1.0  0.78457  0.70690  0.49527  1.0000
  C   C991      1.0  0.74510  0.02101  0.40696  1.0000
  C   C992      1.0  0.89286  0.70028  0.38905  1.0000
  H   H991      1.0  0.76740  0.76203  0.48002  1.0000
  H   H992      1.0  0.64978  0.91488  0.38528  1.0000
  S   S335      1.0  0.91126  0.75791  0.51964  1.0000
  C   C993      1.0  0.56362  0.85246  0.49888  1.0000
  C   C994      1.0  0.96765  0.79786  0.39928  1.0000
  C   C995      1.0  0.63498  0.92063  0.39577  1.0000
  H   H993      1.0  0.84107  0.67752  0.38019  1.0000
  S   S336      1.0  0.92412  0.69477  0.28401  1.0000
  H   H994      1.0  0.87799  0.68206  0.29707  1.0000
  N   N83       1.0  0.56254  0.83824  0.48042  1.0000
  H   H995      1.0  0.79365  0.66340  0.48534  1.0000
  C   C996      1.0  0.89794  0.66187  0.37399  1.0000
  H   H996      1.0  0.95102  0.79708  0.40934  1.0000
  C   C997      1.0  0.63800  0.93552  0.41405  1.0000
  C   C998      1.0  0.90754  0.68208  0.38160  1.0000
  C   C999      1.0  0.70503  0.00930  0.40695  1.0000
  N   N84       1.0  0.86930  0.69862  0.38843  1.0000
  H   H997      1.0  0.63876  0.96775  0.44475  1.0000
  H   H998      1.0  0.83585  0.71538  0.39340  1.0000
  H   H999      1.0  0.92623  0.68372  0.38170  1.0000
  H   H1000     1.0  0.75605  0.69805  0.44654  1.0000
  H   H1001     1.0  0.62546  0.94602  0.46324  1.0000
  H   H1002     1.0  0.99880  0.78985  0.36565  1.0000
  C   C1000     1.0  0.76325  0.70722  0.46067  1.0000
  H   H1003     1.0  0.99354  0.79487  0.32348  1.0000
  N   N85       1.0  0.96385  0.79992  0.37434  1.0000
  H   H1004     1.0  0.01960  0.65590  0.33069  1.0000
  C   C1001     1.0  0.85973  0.67891  0.38084  1.0000
  C   C1002     1.0  0.58376  0.82686  0.47123  1.0000
  H   H1005     1.0  0.58322  0.94001  0.43478  1.0000
  H   H1006     1.0  0.90910  0.64755  0.36827  1.0000
  C   C1003     1.0  0.97912  0.79829  0.33541  1.0000
  H   H1007     1.0  0.83607  0.59991  0.28152  1.0000
  H   H1008     1.0  0.92188  0.81387  0.33605  1.0000
  H   H1009     1.0  0.88445  0.55578  0.40878  1.0000
  H   H1010     1.0  0.68772  0.01161  0.40035  1.0000
  Fe  Fe168     1.0  0.98430  0.75452  0.29035  1.0000
  H   H1011     1.0  0.87152  0.55202  0.36845  1.0000
  C   C1004     1.0  0.87725  0.53676  0.37845  1.0000
  C   C1005     1.0  0.54345  0.86311  0.50812  1.0000
  H   H1012     1.0  0.54441  0.87476  0.52242  1.0000
  H   H1013     1.0  0.95338  0.72485  0.51359  1.0000
  H   H1014     1.0  0.53287  0.72637  0.33376  1.0000
  C   C1006     1.0  0.94458  0.70876  0.50920  1.0000
  C   C1007     1.0  0.83648  0.53042  0.43843  1.0000
  H   H1015     1.0  0.54075  0.82260  0.45643  1.0000
  C   C1008     1.0  0.55064  0.70156  0.29946  1.0000
  C   C1009     1.0  0.79565  0.86320  0.51701  1.0000
  H   H1016     1.0  0.80940  0.85000  0.51536  1.0000
  H   H1017     1.0  0.56934  0.67326  0.28296  1.0000
  C   C1010     1.0  0.56509  0.69172  0.28237  1.0000
  C   C1011     1.0  0.54164  0.83377  0.47114  1.0000
  C   C1012     1.0  0.55258  0.73847  0.28049  1.0000
  H   H1018     1.0  0.54763  0.75676  0.27945  1.0000
  C   C1013     1.0  0.52947  0.73459  0.31655  1.0000
  S   S337      1.0  0.93284  0.55267  0.65819  1.0000
  C   C1014     1.0  0.59231  0.92144  0.67306  1.0000
  Fe  Fe169     1.0  0.99496  0.72592  0.67131  1.0000
  S   S338      1.0  0.98963  0.73482  0.63351  1.0000
  S   S339      1.0  0.00992  0.74935  0.69799  1.0000
  Fe  Fe170     1.0  0.98792  0.67379  0.66444  1.0000
  S   S340      1.0  0.98202  0.67879  0.62651  1.0000
  S   S341      1.0  0.99266  0.63891  0.68303  1.0000
  H   H1019     1.0  0.75494  0.01489  0.73749  1.0000
  Fe  Fe171     1.0  0.96030  0.71012  0.63654  1.0000
  S   S342      1.0  0.92474  0.71568  0.62108  1.0000
  H   H1020     1.0  0.75474  0.88224  0.55602  1.0000
  S   S343      1.0  0.96396  0.70336  0.67505  1.0000
  C   C1015     1.0  0.59859  0.89841  0.67841  1.0000
  S   S344      1.0  0.67403  0.98770  0.66568  1.0000
  Fe  Fe172     1.0  0.61812  0.97772  0.70237  1.0000
  S   S345      1.0  0.64568  0.94971  0.69796  1.0000
  S   S346      1.0  0.58199  0.97338  0.71778  1.0000
  Fe  Fe173     1.0  0.67068  0.97820  0.70364  1.0000
  S   S347      1.0  0.70540  0.97109  0.72068  1.0000
  Fe  Fe174     1.0  0.64700  0.96158  0.66067  1.0000
  S   S348      1.0  0.64317  0.93725  0.63117  1.0000
  S   S349      1.0  0.64294  0.00570  0.71090  1.0000
  S   S350      1.0  0.61771  0.98756  0.66464  1.0000
  C   C1016     1.0  0.98609  0.73094  0.75576  1.0000
  C   C1017     1.0  0.96485  0.73252  0.74475  1.0000
  H   H1021     1.0  0.61657  0.89253  0.67655  1.0000
  H   H1022     1.0  0.53283  0.86706  0.68192  1.0000
  C   C1018     1.0  0.66341  0.93750  0.60781  1.0000
  C   C1019     1.0  0.65828  0.92616  0.58750  1.0000
  C   C1020     1.0  0.67337  0.92721  0.56807  1.0000
  C   C1021     1.0  0.69391  0.93929  0.56901  1.0000
  C   C1022     1.0  0.69938  0.95005  0.58954  1.0000
  C   C1023     1.0  0.68409  0.94934  0.60883  1.0000
  H   H1023     1.0  0.64237  0.91688  0.58664  1.0000
  H   H1024     1.0  0.66904  0.91880  0.55235  1.0000
  H   H1025     1.0  0.71534  0.95927  0.59041  1.0000
  H   H1026     1.0  0.68834  0.95784  0.62450  1.0000
  C   C1024     1.0  0.71402  0.97968  0.74819  1.0000
  C   C1025     1.0  0.73616  0.97260  0.75580  1.0000
  C   C1026     1.0  0.58159  0.88320  0.68644  1.0000
  H   H1027     1.0  0.74694  0.96108  0.74535  1.0000
  C   C1027     1.0  0.63052  0.98559  0.59282  1.0000
  C   C1028     1.0  0.92084  0.72982  0.59389  1.0000
  C   C1029     1.0  0.93953  0.73865  0.58103  1.0000
  C   C1030     1.0  0.93612  0.74806  0.55862  1.0000
  H   H1028     1.0  0.74598  0.00103  0.71218  1.0000
  Fe  Fe175     1.0  0.64452  0.01305  0.67249  1.0000
  C   C1031     1.0  0.89865  0.73098  0.58438  1.0000
  H   H1029     1.0  0.95666  0.73796  0.58823  1.0000
  H   H1030     1.0  0.95070  0.75467  0.54870  1.0000
  H   H1031     1.0  0.95297  0.67827  0.58303  1.0000
  H   H1032     1.0  0.88410  0.72429  0.59431  1.0000
  C   C1032     1.0  0.99534  0.77207  0.71313  1.0000
  C   C1033     1.0  0.00687  0.78269  0.73094  1.0000
  C   C1034     1.0  0.99558  0.79990  0.74432  1.0000
  C   C1035     1.0  0.97264  0.80683  0.73986  1.0000
  C   C1036     1.0  0.96130  0.79663  0.72166  1.0000
  C   C1037     1.0  0.97253  0.77926  0.70840  1.0000
  Fe  Fe176     1.0  0.01176  0.70282  0.62656  1.0000
  H   H1033     1.0  0.53666  0.95708  0.72939  1.0000
  H   H1034     1.0  0.00458  0.80773  0.75812  1.0000
  H   H1035     1.0  0.96348  0.77134  0.69467  1.0000
  C   C1038     1.0  0.55689  0.90322  0.74617  1.0000
  C   C1039     1.0  0.58066  0.90662  0.74236  1.0000
  C   C1040     1.0  0.58858  0.92798  0.73356  1.0000
  C   C1041     1.0  0.57278  0.94629  0.72892  1.0000
  C   C1042     1.0  0.54898  0.94295  0.73286  1.0000
  C   C1043     1.0  0.54101  0.92141  0.74121  1.0000
  C   C1044     1.0  0.89528  0.74016  0.56187  1.0000
  H   H1036     1.0  0.60693  0.93038  0.73074  1.0000
  C   C1045     1.0  0.64695  0.99932  0.60269  1.0000
  S   S351      1.0  0.95700  0.82700  0.75739  1.0000
  C   C1046     1.0  0.94938  0.57647  0.66580  1.0000
  C   C1047     1.0  0.94711  0.59736  0.65284  1.0000
  C   C1048     1.0  0.96010  0.61666  0.65807  1.0000
  C   C1049     1.0  0.97564  0.61518  0.67625  1.0000
  C   C1050     1.0  0.97799  0.59426  0.68917  1.0000
  C   C1051     1.0  0.96485  0.57499  0.68404  1.0000
  H   H1037     1.0  0.93513  0.59866  0.63875  1.0000
  H   H1038     1.0  0.95807  0.63267  0.64806  1.0000
  H   H1039     1.0  0.98995  0.59301  0.70328  1.0000
  H   H1040     1.0  0.96673  0.55902  0.69415  1.0000
  C   C1052     1.0  0.91408  0.74846  0.54880  1.0000
  N   N86       1.0  0.93531  0.69749  0.53033  1.0000
  H   H1041     1.0  0.53482  0.91940  0.68602  1.0000
  H   H1042     1.0  0.88484  0.67988  0.55485  1.0000
  C   C1053     1.0  0.68460  0.01755  0.60220  1.0000
  S   S352      1.0  0.01931  0.69568  0.66373  1.0000
  H   H1043     1.0  0.02457  0.77736  0.73463  1.0000
  H   H1044     1.0  0.94359  0.80196  0.71800  1.0000
  C   C1054     1.0  0.55266  0.91330  0.68361  1.0000
  H   H1045     1.0  0.91120  0.67037  0.58745  1.0000
  C   C1055     1.0  0.74473  0.98076  0.77651  1.0000
  S   S353      1.0  0.54786  0.87599  0.75709  1.0000
  H   H1046     1.0  0.87821  0.74055  0.55456  1.0000
  C   C1056     1.0  0.91804  0.67720  0.57108  1.0000
  C   C1057     1.0  0.94156  0.68169  0.56862  1.0000
  H   H1047     1.0  0.93944  0.77598  0.77558  1.0000
  C   C1058     1.0  0.76487  0.88104  0.54001  1.0000
  C   C1059     1.0  0.63472  0.97714  0.57071  1.0000
  C   C1060     1.0  0.65523  0.98244  0.55876  1.0000
  H   H1048     1.0  0.93151  0.75033  0.74334  1.0000
  H   H1049     1.0  0.02797  0.64505  0.63043  1.0000
  S   S354      1.0  0.71246  0.94227  0.54451  1.0000
  H   H1050     1.0  0.61509  0.98080  0.60267  1.0000
  C   C1061     1.0  0.78297  0.86453  0.53788  1.0000
  N   N87       1.0  0.55899  0.89079  0.68908  1.0000
  C   C1062     1.0  0.94997  0.69186  0.54799  1.0000
  C   C1063     1.0  0.70022  0.99455  0.76180  1.0000
  C   C1064     1.0  0.91223  0.69290  0.53247  1.0000
  C   C1065     1.0  0.94781  0.74850  0.75223  1.0000
  H   H1051     1.0  0.65917  0.97515  0.54197  1.0000
  H   H1052     1.0  0.78697  0.85258  0.55216  1.0000
  H   H1053     1.0  0.69491  0.00567  0.61372  1.0000
  H   H1054     1.0  0.62254  0.96577  0.56319  1.0000
  H   H1055     1.0  0.96190  0.72186  0.73000  1.0000
  H   H1056     1.0  0.64379  0.00545  0.62007  1.0000
  H   H1057     1.0  0.68778  0.99905  0.56025  1.0000
  H   H1058     1.0  0.71526  0.01968  0.68820  1.0000
  H   H1059     1.0  0.96815  0.69601  0.54652  1.0000
  H   H1060     1.0  0.68315  0.00010  0.75613  1.0000
  H   H1061     1.0  0.56439  0.94709  0.67239  1.0000
  C   C1066     1.0  0.95240  0.76293  0.77049  1.0000
  H   H1062     1.0  0.69647  0.02600  0.58939  1.0000
  H   H1063     1.0  0.99965  0.71904  0.74956  1.0000
  C   C1067     1.0  0.56924  0.92899  0.67570  1.0000
  C   C1068     1.0  0.99003  0.74550  0.77410  1.0000
  H   H1064     1.0  0.54880  0.86026  0.70799  1.0000
  H   H1065     1.0  0.60537  0.93347  0.66714  1.0000
  N   N88       1.0  0.66701  0.00444  0.59085  1.0000
  C   C1069     1.0  0.74782  0.01826  0.71999  1.0000
  C   C1070     1.0  0.67139  0.99603  0.56924  1.0000
  H   H1066     1.0  0.59304  0.89265  0.74627  1.0000
  H   H1067     1.0  0.58662  0.86539  0.69085  1.0000
  C   C1071     1.0  0.90326  0.68267  0.55286  1.0000
  C   C1072     1.0  0.54125  0.87454  0.69694  1.0000
  H   H1068     1.0  0.76038  0.02842  0.70941  1.0000
  C   C1073     1.0  0.74434  0.57815  0.85457  1.0000
  S   S355      1.0  0.54833  0.66116  0.92023  1.0000
  Fe  Fe177     1.0  0.70270  0.65124  0.01069  1.0000
  S   S356      1.0  0.70092  0.68600  0.99223  1.0000
  Fe  Fe178     1.0  0.69751  0.62566  0.96563  1.0000
  S   S357      1.0  0.69516  0.65869  0.94413  1.0000
  S   S358      1.0  0.69237  0.59158  0.94818  1.0000
  Fe  Fe179     1.0  0.72463  0.66997  0.96556  1.0000
  S   S359      1.0  0.75803  0.68421  0.95001  1.0000
  Fe  Fe180     1.0  0.67152  0.67164  0.97276  1.0000
  S   S360      1.0  0.63837  0.69375  0.96976  1.0000
  S   S361      1.0  0.72852  0.63585  0.98519  1.0000
  S   S362      1.0  0.67177  0.63797  0.99305  1.0000
  C   C1074     1.0  0.90717  0.88480  0.97412  1.0000
  S   S363      1.0  0.78187  0.00848  0.86736  1.0000
  Fe  Fe181     1.0  0.82527  0.97544  0.82738  1.0000
  S   S364      1.0  0.79049  0.96130  0.83695  1.0000
  S   S365      1.0  0.85045  0.95708  0.80314  1.0000
  Fe  Fe182     1.0  0.77665  0.99769  0.83076  1.0000
  S   S366      1.0  0.74128  0.00698  0.81585  1.0000
  Fe  Fe183     1.0  0.79839  0.97301  0.87244  1.0000
  S   S367      1.0  0.79058  0.95081  0.90407  1.0000
  S   S368      1.0  0.81093  0.01111  0.81812  1.0000
  S   S369      1.0  0.83432  0.98437  0.86344  1.0000
  Fe  Fe184     1.0  0.98279  0.82934  0.83914  1.0000
  S   S370      1.0  0.94901  0.83614  0.82208  1.0000
  S   S371      1.0  0.98730  0.79714  0.86139  1.0000
  Fe  Fe185     1.0  0.00489  0.87148  0.81574  1.0000
  C   C1075     1.0  0.90493  0.91211  0.81339  1.0000
  C   C1076     1.0  0.72734  0.54569  0.90717  1.0000
  H   H1069     1.0  0.88216  0.86356  0.86179  1.0000
  S   S372      1.0  0.98691  0.86576  0.85016  1.0000
  C   C1077     1.0  0.97783  0.77682  0.80005  1.0000
  Fe  Fe186     1.0  0.83282  0.79653  0.96787  1.0000
  S   S373      1.0  0.83409  0.83545  0.97036  1.0000
  S   S374      1.0  0.79861  0.78026  0.97898  1.0000
  Fe  Fe187     1.0  0.88327  0.79339  0.95095  1.0000
  S   S375      1.0  0.88843  0.83143  0.95269  1.0000
  S   S376      1.0  0.91179  0.76932  0.93795  1.0000
  Fe  Fe188     1.0  0.86887  0.82891  0.98657  1.0000
  Fe  Fe189     1.0  0.85358  0.83463  0.93644  1.0000
  S   S377      1.0  0.85137  0.85767  0.90437  1.0000
  S   S378      1.0  0.86639  0.79012  0.98645  1.0000
  S   S379      1.0  0.84961  0.79642  0.93245  1.0000
  C   C1078     1.0  0.96615  0.79096  0.88304  1.0000
  C   C1079     1.0  0.94936  0.80748  0.89046  1.0000
  C   C1080     1.0  0.93272  0.80140  0.90775  1.0000
  C   C1081     1.0  0.93276  0.77874  0.91733  1.0000
  C   C1082     1.0  0.94964  0.76252  0.90988  1.0000
  C   C1083     1.0  0.96626  0.76860  0.89297  1.0000
  H   H1070     1.0  0.94933  0.82487  0.88301  1.0000
  H   H1071     1.0  0.91972  0.81404  0.91338  1.0000
  H   H1072     1.0  0.94985  0.74505  0.91721  1.0000
  H   H1073     1.0  0.97921  0.75580  0.88747  1.0000
  C   C1084     1.0  0.87030  0.93732  0.81631  1.0000
  C   C1085     1.0  0.86968  0.93339  0.84024  1.0000
  H   H1074     1.0  0.99666  0.77961  0.80176  1.0000
  H   H1075     1.0  0.70514  0.62646  0.90520  1.0000
  H   H1076     1.0  0.76758  0.66649  0.99595  1.0000
  H   H1077     1.0  0.73287  0.56381  0.86007  1.0000
  C   C1086     1.0  0.92356  0.84050  0.02090  1.0000
  H   H1078     1.0  0.88278  0.99222  0.78277  1.0000
  H   H1079     1.0  0.88615  0.91628  0.86932  1.0000
  N   N89       1.0  0.88590  0.00309  0.81763  1.0000
  C   C1087     1.0  0.80687  0.92455  0.90415  1.0000
  C   C1088     1.0  0.80652  0.90964  0.92371  1.0000
  C   C1089     1.0  0.81979  0.88876  0.92390  1.0000
  C   C1090     1.0  0.83329  0.88275  0.90445  1.0000
  C   C1091     1.0  0.83338  0.89754  0.88483  1.0000
  C   C1092     1.0  0.82020  0.91837  0.88468  1.0000
  H   H1080     1.0  0.79613  0.91433  0.93879  1.0000
  H   H1081     1.0  0.81963  0.87741  0.93909  1.0000
  H   H1082     1.0  0.84385  0.89303  0.86975  1.0000
  H   H1083     1.0  0.82039  0.92969  0.86948  1.0000
  C   C1093     1.0  0.75255  0.91494  0.84869  1.0000
  C   C1094     1.0  0.54894  0.74323  0.89552  1.0000
  H   H1084     1.0  0.91636  0.96412  0.85060  1.0000
  C   C1095     1.0  0.74294  0.92310  0.82799  1.0000
  H   H1085     1.0  0.73738  0.95185  0.90466  1.0000
  C   C1096     1.0  0.76862  0.71164  0.95682  1.0000
  C   C1097     1.0  0.75479  0.72808  0.96850  1.0000
  C   C1098     1.0  0.76394  0.74950  0.97404  1.0000
  C   C1099     1.0  0.78710  0.75458  0.96841  1.0000
  C   C1100     1.0  0.80085  0.73826  0.95645  1.0000
  C   C1101     1.0  0.79159  0.71694  0.95060  1.0000
  H   H1086     1.0  0.73703  0.72435  0.97318  1.0000
  H   H1087     1.0  0.86520  0.85772  0.83703  1.0000
  H   H1088     1.0  0.81872  0.74188  0.95208  1.0000
  H   H1089     1.0  0.80239  0.70437  0.94146  1.0000
  C   C1102     1.0  0.57267  0.66931  0.93577  1.0000
  C   C1103     1.0  0.59374  0.65666  0.93310  1.0000
  C   C1104     1.0  0.61387  0.66356  0.94394  1.0000
  C   C1105     1.0  0.61314  0.68337  0.95734  1.0000
  C   C1106     1.0  0.59200  0.69588  0.96021  1.0000
  C   C1107     1.0  0.57180  0.68880  0.94962  1.0000
  H   H1090     1.0  0.59456  0.64153  0.92246  1.0000
  H   H1091     1.0  0.63004  0.65379  0.94161  1.0000
  H   H1092     1.0  0.59130  0.71119  0.97059  1.0000
  H   H1093     1.0  0.55570  0.69868  0.95184  1.0000
  C   C1108     1.0  0.75045  0.55180  0.90890  1.0000
  H   H1094     1.0  0.56657  0.68265  0.85123  1.0000
  C   C1109     1.0  0.70979  0.55765  0.91979  1.0000
  C   C1110     1.0  0.71518  0.57585  0.93415  1.0000
  C   C1111     1.0  0.73835  0.58159  0.93631  1.0000
  C   C1112     1.0  0.75591  0.56958  0.92374  1.0000
  H   H1095     1.0  0.85492  0.90661  0.95645  1.0000
  H   H1096     1.0  0.90302  0.99148  0.88115  1.0000
  H   H1097     1.0  0.74271  0.59545  0.94744  1.0000
  H   H1098     1.0  0.77376  0.57432  0.92524  1.0000
  H   H1099     1.0  0.75313  0.76206  0.98319  1.0000
  H   H1100     1.0  0.75717  0.92169  0.88453  1.0000
  H   H1101     1.0  0.69805  0.01426  0.79299  1.0000
  C   C1113     1.0  0.87873  0.01833  0.83422  1.0000
  H   H1102     1.0  0.91649  0.88024  0.98974  1.0000
  H   H1103     1.0  0.71633  0.97031  0.89016  1.0000
  H   H1104     1.0  0.71825  0.97345  0.84684  1.0000
  C   C1114     1.0  0.88038  0.85165  0.84725  1.0000
  H   H1105     1.0  0.57373  0.75358  0.92019  1.0000
  H   H1106     1.0  0.93487  0.87345  0.95129  1.0000
  C   C1115     1.0  0.91743  0.88101  0.95233  1.0000
  H   H1107     1.0  0.91390  0.81963  0.85518  1.0000
  C   C1116     1.0  0.88671  0.91909  0.85075  1.0000
  S   S380      1.0  0.00406  0.83380  0.80642  1.0000
  H   H1108     1.0  0.01878  0.91291  0.85040  1.0000
  C   C1117     1.0  0.89449  0.79125  0.86916  1.0000
  H   H1109     1.0  0.84105  0.83233  0.86138  1.0000
  N   N90       1.0  0.55768  0.70705  0.87713  1.0000
  C   C1118     1.0  0.57762  0.70432  0.88935  1.0000
  C   C1119     1.0  0.78995  0.70439  0.01386  1.0000
  C   C1120     1.0  0.88783  0.92646  0.80286  1.0000
  C   C1121     1.0  0.73029  0.94411  0.82742  1.0000
  C   C1122     1.0  0.87901  0.00754  0.79366  1.0000
  H   H1110     1.0  0.92520  0.89671  0.90314  1.0000
  H   H1111     1.0  0.77922  0.63099  0.89992  1.0000
  C   C1123     1.0  0.58389  0.72119  0.90470  1.0000
  H   H1112     1.0  0.96014  0.83269  0.02465  1.0000
  H   H1113     1.0  0.87606  0.89603  0.99250  1.0000
  C   C1124     1.0  0.76381  0.60590  0.87838  1.0000
  H   H1114     1.0  0.58847  0.68870  0.88778  1.0000
  H   H1115     1.0  0.72303  0.95083  0.81136  1.0000
  H   H1116     1.0  0.80418  0.69514  0.00519  1.0000
  C   C1125     1.0  0.73410  0.96246  0.88865  1.0000
  C   C1126     1.0  0.55126  0.68882  0.86159  1.0000
  C   C1127     1.0  0.91600  0.88127  0.90997  1.0000
  S   S381      1.0  0.92583  0.89148  0.85149  1.0000
  H   H1117     1.0  0.83620  0.79309  0.87871  1.0000
  N   N91       1.0  0.90533  0.88596  0.93267  1.0000
  H   H1118     1.0  0.87080  0.76681  0.88439  1.0000
  H   H1119     1.0  0.80767  0.73685  0.01286  1.0000
  C   C1128     1.0  0.87262  0.78376  0.87604  1.0000
  C   C1129     1.0  0.72752  0.95677  0.84762  1.0000
  C   C1130     1.0  0.85323  0.79848  0.87283  1.0000
  H   H1120     1.0  0.73870  0.58557  0.83765  1.0000
  H   H1121     1.0  0.76193  0.97542  0.78201  1.0000
  N   N92       1.0  0.73673  0.94851  0.86791  1.0000
  H   H1122     1.0  0.90266  0.87690  0.89738  1.0000
  H   H1123     1.0  0.76202  0.57011  0.85235  1.0000
  H   H1124     1.0  0.90970  0.78003  0.87189  1.0000
  H   H1125     1.0  0.92220  0.83055  0.00545  1.0000
  C   C1131     1.0  0.89851  0.99489  0.86327  1.0000
  C   C1132     1.0  0.72285  0.60365  0.88117  1.0000
  H   H1126     1.0  0.90545  0.97205  0.81014  1.0000
  Fe  Fe190     1.0  0.95412  0.87316  0.83067  1.0000
  C   C1133     1.0  0.90602  0.97961  0.84618  1.0000
  H   H1127     1.0  0.78361  0.65869  0.02161  1.0000
  H   H1128     1.0  0.53728  0.75815  0.89805  1.0000
  H   H1129     1.0  0.78042  0.59962  0.87146  1.0000
  C   C1134     1.0  0.85608  0.82063  0.86292  1.0000
  C   C1135     1.0  0.72168  0.62127  0.89732  1.0000
  C   C1136     1.0  0.89674  0.81363  0.85960  1.0000
  Fe  Fe191     1.0  0.97030  0.84324  0.78978  1.0000
  C   C1137     1.0  0.76328  0.62358  0.89449  1.0000
  N   N93       1.0  0.87763  0.82790  0.85634  1.0000
  H   H1130     1.0  0.89600  0.85299  0.83571  1.0000
  C   C1138     1.0  0.74927  0.92796  0.86861  1.0000
  Fe  Fe192     1.0  0.81729  0.01902  0.85529  1.0000
  C   C1139     1.0  0.74205  0.63131  0.90398  1.0000
  H   H1131     1.0  0.69192  0.55301  0.91816  1.0000
  C   C1140     1.0  0.90447  0.90859  0.83740  1.0000
  C   C1141     1.0  0.73111  0.99596  0.78991  1.0000
  C   C1142     1.0  0.54333  0.72613  0.88013  1.0000
  H   H1132     1.0  0.85997  0.01101  0.79303  1.0000
  H   H1133     1.0  0.74146  0.64471  0.91682  1.0000
  H   H1134     1.0  0.96951  0.79422  0.79689  1.0000
  H   H1135     1.0  0.70699  0.59553  0.87659  1.0000
  H   H1136     1.0  0.76284  0.89886  0.84928  1.0000
  H   H1137     1.0  0.53776  0.69510  0.84933  1.0000
  H   H1138     1.0  0.85622  0.94151  0.85072  1.0000
  C   C1143     1.0  0.70876  0.00263  0.78260  1.0000
  C   C1144     1.0  0.89972  0.98415  0.82327  1.0000
  N   N94       1.0  0.74373  0.59618  0.87195  1.0000
  H   H1139     1.0  0.87421  0.90045  0.91840  1.0000
  C   C1145     1.0  0.87259  0.89961  0.95550  1.0000
  S   S382      1.0  0.97223  0.88155  0.79668  1.0000
  S   S383      1.0  0.87624  0.84977  0.01818  1.0000
  H   H1140     1.0  0.74684  0.97647  0.88781  1.0000
  H   H1141     1.0  0.97097  0.76939  0.81667  1.0000
  H   H1142     1.0  0.59954  0.71870  0.91465  1.0000
  H   H1143     1.0  0.74558  0.91337  0.81231  1.0000
  H   H1144     1.0  0.91855  0.90397  0.80297  1.0000
  C   C1146     1.0  0.56935  0.74068  0.90789  1.0000
  H   H1145     1.0  0.92843  0.86616  0.91084  1.0000
  C   C1147     1.0  0.88447  0.89381  0.97567  1.0000
  N   N95       1.0  0.76998  0.69334  0.01978  1.0000
  C   C1148     1.0  0.88351  0.89588  0.93402  1.0000
  C   C1149     1.0  0.76833  0.66870  0.01492  1.0000
  H   H1146     1.0  0.54440  0.67392  0.87193  1.0000
  H   H1147     1.0  0.75261  0.66112  0.02321  1.0000
  H   H1148     1.0  0.88823  0.02263  0.78610  1.0000
  C   C1150     1.0  0.79208  0.72792  0.01823  1.0000
  S   S384      1.0  0.77267  0.53904  0.89142  1.0000
  C   C1151     1.0  0.88494  0.01450  0.85726  1.0000
  H   H1149     1.0  0.88839  0.92941  0.78431  1.0000
  H   H1150     1.0  0.87879  0.02645  0.87040  1.0000
  N   N96       1.0  0.97340  0.76148  0.78099  1.0000
  H   H1151     1.0  0.72294  0.53196  0.89587  1.0000
  H   H1152     1.0  0.00671  0.74441  0.78233  1.0000
  C   C1152     1.0  0.77338  0.74029  0.02812  1.0000
