data_image0
_chemical_formula_structural       CHFeSC2FeSFeS2FeS2FeSFeS3FeS2FeS2FeSFeS3CH4C6H5CHCNH2CH3C3H2C9H4SH3C6H10NC6H2NC5H2CH5C3H2CH3C2HCNH2NC6H8C2HSC3H2NC3H2C2HCHCH3C2NCH2CHCHFeHSH2SHCHSCHFeSHFeS2FeS2FeSFeCS2FeS2FeS2FeSFeHS2H4CH2C3NC6H4C3SHC6H5CH2C3FeH2C6H8NC2HC2H2C2SFeH2C2H2C3H2CHC2HSCNC5H2NHSHSH2SH2C4H4NHC2H3CHNC4HCH2C2HC2HC4HC2SHFeH2C2H4SCFeSFeS2FeS2FeSFeS3FeS2FeS2FeSFeS3FeS2C6H4C3HSC6H4CHFeC4HNC2H3C4H2C7H7CHCNC6H10C2NHNH2CH2CH2CH2CHC2HCH2CH3CSCH2C3HNC2H3NC2HC4HCHCH3SCSH4C2NCFeCSHSCHFe2HSH2SFeS2FeSHFeSFeS3FeSHFeS2FeSFeHS2H2C2HC2HC2HC6H4C2HC6H7C9H5C3HSHCH2CHC2HCHSHCH2CNC3H3CH2N2C2SH2S2HCHFeC2FeCH2C2SHSNC2H2CHC3H3CH2CH2SC2NFeCNC3H6CH5C2H2SC2SH2C2HFeSCSCFeSFeS2FeS2FeSFeS3FeS2FeS2FeSFeS3C2HNCHNH5C4HC6H5NH4C7H4SCH2CNC8H4CHNHC2H2SC2H2CNHC5HCNCSH2CH2CHCH4CH3C3H2C2HC2HC2HC2H2CNHC3H2C2H3CH3CH2CH2CH2C2H2CH10S2HFeS2HSHFeSFeS2FeS2FeSFeCS2FeSCFeS2FeSFeS3C9H4NCHC2H3CSFeH2CHCFeHC7H4C2HSH2C6H4CH3NC6H8NC6H6CH2SCH2NCH5FeHCHSCH2CHC3HC2HC3HC2NC5H3C2HNH3CHC2HFeCFeSH2SFeS2FeS2FeSFeS3FeS2FeS2FeSFeS3FeHSCH4CHSC8H4C6H4CHC5H3CSHC2HCH3CH4C8H4CNC4H2CH3NC6H8NC5H2CH5C7HNCHCH5CH2CNHCHCHCHCHC2FeS2HSHSHCFeCSFeCSFeS2FeS2FeSFeHS2FeSCFeS2FeSFeS3C3HCH2NC6H6CNCHCHCHC7H4C2SFeCFeSH3C8H4CHC2HFeCH3CH10C3H2CH2S2HCH2SH2NHC5HCHC2H2SHCSNC4H3NCH2C3SCHCHC2H2CFeSCS2FeSFeS2FeS2FeSFeS3FeS2FeSHFeSFeS3C6H6CH2C2H2NHNCHNC4HC3H2CHCNH2C6H4CHC8H4CHCHCH3C2HCHNHC4H3C2H4NHCHCHCHCH3FeC4SCHN2H2SHC3HC4H6C3H4CH2CH2C2HCHCH2SH2CH3C2HCNH2FeCSC2FeS2H2CHSFeSCHSFeS2FeSCFeHFeS3FeS2FeS2FeSFeCS2HCHC3HC6H6NH3C6H5C2HCHCSC2H2C6H8CH2CHCHC2HC3HC2SH2CHNCHCFeCHCH2C2HCHC2H3NSC2HCH2CSCH2NSCSCHCFeCHSHCH2C2H2SH3FeCS2FeS2FeS2FeSFeS3FeS2FeS2FeSFeS3FeSNCH3CH3C3H2CH2C2HC3HC6H4C5H2C9H6NHC6H4CHCH2C3H4NCH4CFeHC3H2NCHC4H2CH5C3H4C2NHS2H2CH3C3HC2HCHCHNH3C4HC2H4C2NC2HC2H2S2C2FeSH2FeCSCHSHCFeS2FeSHFeCFeS3FeS2FeSHFeSFeHS2HCHC8H8CH2CH2NC9H4C2HS2C7H5NC6H8SH2CH2CH2SFeC2HSHC4SH4CH2NC3S3CHC2HFeCH3NHCFeHCHC3HSFeSFeS2FeS2FeS2FeSFeS3FeS2FeS2FeSFeS3NH2C2HCHC2H3C3H4C8H8C6H7C6H5C2NC6H8CHCHC2HC2H3C2H2C5FeCH3CNC5H7C2SCHCH4C3HCH2CHNC3H2CHSH2CH2CH2C2NCHC3HCHC2SNFeSFeH3S2HFeS2FeS2FeS2FeSFeS3FeS2FeS2FeSFeS3H3C8H3CH3C7HC2FeC7H4CNH2NCHNC6H4CH5C2HC2HCHCH2CH3SH2C3HSHC3HCHC5H6CH2S2NH2C2NCH3CHC2H3C4H3FeHFeH2CHC2SCHFeS2FeS2FeS2FeSFeS3FeS2FeS2FeSFeS3FeSHSHCH4C6H4C2H2C6H5CSC2HNC3NSCH2CHCHCHC6H4C2HCHC4H3CHC2NC6H4CHC2HCH3CHC2HC2H8CH3C2NHCH2C2H2CH3CH2NH2CHCH3CH5C2SCHFeHSCHNSCH2SHFeSCHCFeS2FeSCFeSFeHS2FeSCFeS2FeSFeHS2HCH3SHCH4C6H4NSCHCH3C7H4C2HCHC8H3NC6H9CNH2C6SHCSHC4HCSHCH2C3H4CH3C2HCNC3FeC3HCH2SCNHFeCSHSCSFeC2
_chemical_formula_sum              "C1152 H1152 Fe192 S384 N96"
_cell_length_a       60.0821
_cell_length_b       60.0275
_cell_length_c       64.2702
_cell_angle_alpha    88.5632
_cell_angle_beta     89.1473
_cell_angle_gamma    88.9725

_space_group_name_H-M_alt    "P 1"
_space_group_IT_number       1

loop_
  _space_group_symop_operation_xyz
  'x, y, z'

loop_
  _atom_site_type_symbol
  _atom_site_label
  _atom_site_symmetry_multiplicity
  _atom_site_fract_x
  _atom_site_fract_y
  _atom_site_fract_z
  _atom_site_occupancy
  C   C1        1.0  0.47229  0.21757  0.15863  1.0000
  H   H1        1.0  0.28748  0.40910  0.20292  1.0000
  Fe  Fe1       1.0  0.15024  0.05951  0.00678  1.0000
  S   S1        1.0  0.15921  0.07978  0.03543  1.0000
  C   C2        1.0  0.46406  0.23866  0.15254  1.0000
  C   C3        1.0  0.48277  0.36414  0.05175  1.0000
  Fe  Fe2       1.0  0.42544  0.33534  0.00758  1.0000
  S   S2        1.0  0.41144  0.32998  0.04100  1.0000
  Fe  Fe3       1.0  0.39888  0.25751  0.15104  1.0000
  S   S3        1.0  0.41198  0.22967  0.17231  1.0000
  S   S4        1.0  0.41426  0.25895  0.11790  1.0000
  Fe  Fe4       1.0  0.36965  0.27636  0.18635  1.0000
  S   S5        1.0  0.38151  0.25064  0.20976  1.0000
  S   S6        1.0  0.34188  0.30197  0.19219  1.0000
  Fe  Fe5       1.0  0.41610  0.25602  0.19633  1.0000
  S   S7        1.0  0.44811  0.26552  0.21352  1.0000
  Fe  Fe6       1.0  0.37633  0.22618  0.18401  1.0000
  S   S8        1.0  0.35856  0.19356  0.19370  1.0000
  S   S9        1.0  0.40423  0.28387  0.17454  1.0000
  S   S10       1.0  0.36314  0.25187  0.16113  1.0000
  Fe  Fe7       1.0  0.21984  0.07855  0.14964  1.0000
  S   S11       1.0  0.25353  0.07604  0.16509  1.0000
  S   S12       1.0  0.21546  0.06079  0.11860  1.0000
  Fe  Fe8       1.0  0.19974  0.10398  0.18655  1.0000
  S   S13       1.0  0.23174  0.10347  0.20413  1.0000
  S   S14       1.0  0.16621  0.11610  0.19922  1.0000
  Fe  Fe9       1.0  0.24832  0.11226  0.17325  1.0000
  S   S15       1.0  0.27220  0.14103  0.16425  1.0000
  Fe  Fe10      1.0  0.23448  0.06726  0.19482  1.0000
  S   S16       1.0  0.24384  0.04178  0.22095  1.0000
  S   S17       1.0  0.21558  0.11501  0.15612  1.0000
  S   S18       1.0  0.20155  0.06755  0.17886  1.0000
  C   C4        1.0  0.23129  0.48463  0.22896  1.0000
  H   H2        1.0  0.33897  0.48708  0.03666  1.0000
  H   H3        1.0  0.47445  0.28943  0.14837  1.0000
  H   H4        1.0  0.29127  0.34125  0.24004  1.0000
  H   H5        1.0  0.29354  0.42877  0.22267  1.0000
  C   C5        1.0  0.33502  0.17875  0.18466  1.0000
  C   C6        1.0  0.32350  0.18514  0.16663  1.0000
  C   C7        1.0  0.30449  0.17334  0.16067  1.0000
  C   C8        1.0  0.29656  0.15501  0.17261  1.0000
  C   C9        1.0  0.30808  0.14864  0.19065  1.0000
  C   C10       1.0  0.32716  0.16034  0.19654  1.0000
  H   H6        1.0  0.32922  0.19920  0.15726  1.0000
  H   H7        1.0  0.29586  0.17850  0.14666  1.0000
  H   H8        1.0  0.30238  0.13458  0.20002  1.0000
  H   H9        1.0  0.33590  0.15510  0.21047  1.0000
  H   H10       1.0  0.12694  0.13522  0.21794  1.0000
  C   C11       1.0  0.26809  0.49986  0.23020  1.0000
  H   H11       1.0  0.21423  0.48584  0.22383  1.0000
  C   C12       1.0  0.16262  0.13850  0.21645  1.0000
  N   N1        1.0  0.32167  0.22839  0.22202  1.0000
  H   H12       1.0  0.46635  0.20278  0.15125  1.0000
  H   H13       1.0  0.30852  0.19564  0.22447  1.0000
  C   C13       1.0  0.33980  0.37134  0.21991  1.0000
  H   H14       1.0  0.30908  0.26715  0.18472  1.0000
  H   H15       1.0  0.35192  0.21496  0.23370  1.0000
  H   H16       1.0  0.49134  0.27039  0.18573  1.0000
  C   C14       1.0  0.33317  0.31061  0.21719  1.0000
  C   C15       1.0  0.47129  0.25459  0.22822  1.0000
  C   C16       1.0  0.48634  0.25566  0.17767  1.0000
  H   H17       1.0  0.16996  0.06528  0.21600  1.0000
  H   H18       1.0  0.31680  0.38361  0.19698  1.0000
  C   C17       1.0  0.29398  0.21462  0.19924  1.0000
  C   C18       1.0  0.48777  0.21570  0.17459  1.0000
  C   C19       1.0  0.29434  0.23465  0.18775  1.0000
  C   C20       1.0  0.41215  0.30967  0.06199  1.0000
  C   C21       1.0  0.40194  0.31495  0.08119  1.0000
  C   C22       1.0  0.40224  0.29971  0.09836  1.0000
  C   C23       1.0  0.41285  0.27886  0.09665  1.0000
  C   C24       1.0  0.42311  0.27359  0.07746  1.0000
  C   C25       1.0  0.42269  0.28878  0.06025  1.0000
  H   H19       1.0  0.39364  0.33097  0.08280  1.0000
  H   H20       1.0  0.39423  0.30411  0.11291  1.0000
  H   H21       1.0  0.43123  0.25749  0.07582  1.0000
  H   H22       1.0  0.43028  0.28415  0.04559  1.0000
  S   S19       1.0  0.12573  0.03150  0.00848  1.0000
  H   H23       1.0  0.44706  0.27806  0.14598  1.0000
  H   H24       1.0  0.30326  0.32668  0.20568  1.0000
  H   H25       1.0  0.19741  0.14583  0.21857  1.0000
  C   C26       1.0  0.17418  0.07358  0.05882  1.0000
  C   C27       1.0  0.18699  0.05405  0.06165  1.0000
  C   C28       1.0  0.19917  0.05035  0.08013  1.0000
  C   C29       1.0  0.19856  0.06590  0.09621  1.0000
  C   C30       1.0  0.18558  0.08533  0.09349  1.0000
  C   C31       1.0  0.17363  0.08918  0.07489  1.0000
  H   H26       1.0  0.18771  0.04188  0.04951  1.0000
  H   H27       1.0  0.20914  0.03526  0.08197  1.0000
  H   H28       1.0  0.18491  0.09750  0.10563  1.0000
  H   H29       1.0  0.16383  0.10436  0.07296  1.0000
  H   H30       1.0  0.27536  0.40589  0.22854  1.0000
  H   H31       1.0  0.04627  0.13978  0.01632  1.0000
  H   H32       1.0  0.00952  0.26354  0.23309  1.0000
  H   H33       1.0  0.45180  0.23993  0.14029  1.0000
  H   H34       1.0  0.16992  0.04717  0.23902  1.0000
  H   H35       1.0  0.07336  0.05611  0.03266  1.0000
  N   N2        1.0  0.06238  0.11165  0.03069  1.0000
  C   C32       1.0  0.08364  0.11937  0.03161  1.0000
  C   C33       1.0  0.05858  0.08922  0.03132  1.0000
  C   C34       1.0  0.10177  0.10448  0.03328  1.0000
  C   C35       1.0  0.07634  0.07389  0.03284  1.0000
  C   C36       1.0  0.46155  0.27929  0.15646  1.0000
  C   C37       1.0  0.04369  0.12769  0.02950  1.0000
  H   H36       1.0  0.08668  0.13712  0.03100  1.0000
  H   H37       1.0  0.04182  0.08302  0.03009  1.0000
  N   N3        1.0  0.49079  0.32279  0.03425  1.0000
  C   C38       1.0  0.23592  0.01370  0.22724  1.0000
  C   C39       1.0  0.30837  0.25158  0.19366  1.0000
  C   C40       1.0  0.49468  0.30139  0.02419  1.0000
  C   C41       1.0  0.27509  0.48102  0.24229  1.0000
  C   C42       1.0  0.17954  0.05980  0.22997  1.0000
  H   H38       1.0  0.47948  0.38039  0.05826  1.0000
  H   H39       1.0  0.21783  0.00831  0.19923  1.0000
  C   C43       1.0  0.47051  0.32748  0.04321  1.0000
  H   H40       1.0  0.44994  0.35175  0.05903  1.0000
  H   H41       1.0  0.28364  0.20107  0.19444  1.0000
  H   H42       1.0  0.02763  0.11943  0.02663  1.0000
  H   H43       1.0  0.35489  0.43387  0.00332  1.0000
  H   H44       1.0  0.45555  0.28803  0.17061  1.0000
  C   C44       1.0  0.14105  0.14406  0.22365  1.0000
  C   C45       1.0  0.46624  0.34811  0.05223  1.0000
  C   C46       1.0  0.30641  0.33134  0.23871  1.0000
  H   H45       1.0  0.19523  0.05168  0.22435  1.0000
  H   H46       1.0  0.11870  0.11049  0.03394  1.0000
  C   C47       1.0  0.47427  0.23184  0.23303  1.0000
  H   H47       1.0  0.11197  0.06994  0.03525  1.0000
  H   H48       1.0  0.04201  0.13687  0.04423  1.0000
  H   H49       1.0  0.09973  0.29277  0.22853  1.0000
  C   C48       1.0  0.34594  0.30598  0.23483  1.0000
  C   C49       1.0  0.09802  0.08162  0.03397  1.0000
  H   H50       1.0  0.46190  0.22018  0.22832  1.0000
  C   C50       1.0  0.18074  0.15001  0.22395  1.0000
  N   N4        1.0  0.47079  0.25730  0.16235  1.0000
  H   H51       1.0  0.34873  0.36051  0.20922  1.0000
  H   H52       1.0  0.49563  0.38320  0.99540  1.0000
  N   N5        1.0  0.26229  0.09263  0.10586  1.0000
  C   C51       1.0  0.24751  0.09267  0.08986  1.0000
  C   C52       1.0  0.26439  0.11113  0.11763  1.0000
  C   C53       1.0  0.23432  0.11156  0.08532  1.0000
  C   C54       1.0  0.25154  0.13035  0.11346  1.0000
  C   C55       1.0  0.23633  0.13048  0.09727  1.0000
  C   C56       1.0  0.27493  0.07216  0.11102  1.0000
  H   H53       1.0  0.24513  0.07768  0.08112  1.0000
  H   H54       1.0  0.27580  0.11105  0.13057  1.0000
  H   H55       1.0  0.22212  0.11119  0.07304  1.0000
  H   H56       1.0  0.25305  0.14483  0.12311  1.0000
  H   H57       1.0  0.22587  0.14508  0.09424  1.0000
  H   H58       1.0  0.26376  0.06000  0.11904  1.0000
  H   H59       1.0  0.28184  0.06454  0.09668  1.0000
  H   H60       1.0  0.28903  0.07537  0.12147  1.0000
  C   C57       1.0  0.31327  0.32310  0.21925  1.0000
  C   C58       1.0  0.00447  0.24644  0.23535  1.0000
  H   H61       1.0  0.28408  0.23689  0.17409  1.0000
  S   S20       1.0  0.44855  0.36443  0.00265  1.0000
  C   C59       1.0  0.32197  0.24815  0.21095  1.0000
  C   C60       1.0  0.30802  0.21168  0.21630  1.0000
  C   C61       1.0  0.32157  0.38430  0.21315  1.0000
  H   H62       1.0  0.45736  0.31538  0.04313  1.0000
  H   H63       1.0  0.48398  0.28817  0.03120  1.0000
  N   N6        1.0  0.30976  0.39727  0.22682  1.0000
  C   C62       1.0  0.17730  0.16679  0.23865  1.0000
  C   C63       1.0  0.29065  0.41086  0.21977  1.0000
  C   C64       1.0  0.48777  0.26934  0.23455  1.0000
  H   H64       1.0  0.33298  0.26130  0.21527  1.0000
  H   H65       1.0  0.36136  0.29650  0.23344  1.0000
  C   C65       1.0  0.13760  0.16088  0.23834  1.0000
  C   C66       1.0  0.24608  0.50187  0.22338  1.0000
  H   H66       1.0  0.48580  0.28697  0.23099  1.0000
  C   C67       1.0  0.33704  0.22448  0.23931  1.0000
  H   H67       1.0  0.49092  0.30317  0.00735  1.0000
  C   C68       1.0  0.49502  0.23486  0.18406  1.0000
  H   H68       1.0  0.15004  0.09033  0.24231  1.0000
  H   H69       1.0  0.49394  0.19944  0.17983  1.0000
  H   H70       1.0  0.33612  0.49658  0.07415  1.0000
  C   C69       1.0  0.32533  0.49753  0.04231  1.0000
  C   C70       1.0  0.23827  0.46580  0.24109  1.0000
  N   N7        1.0  0.18387  0.07899  0.24289  1.0000
  C   C71       1.0  0.34576  0.37157  0.24080  1.0000
  H   H71       1.0  0.12094  0.16494  0.24383  1.0000
  H   H72       1.0  0.12735  0.31985  0.24086  1.0000
  C   C72       1.0  0.09837  0.29924  0.24412  1.0000
  H   H73       1.0  0.31096  0.50201  0.01215  1.0000
  C   C73       1.0  0.49331  0.22411  0.24402  1.0000
  H   H74       1.0  0.25263  0.01324  0.25671  1.0000
  Fe  Fe11      1.0  0.07125  0.14822  0.46771  1.0000
  H   H75       1.0  0.16723  0.22801  0.29199  1.0000
  S   S21       1.0  0.08877  0.17015  0.44296  1.0000
  H   H76       1.0  0.22590  0.10425  0.26698  1.0000
  H   H77       1.0  0.49527  0.20650  0.24769  1.0000
  S   S22       1.0  0.06018  0.11317  0.46342  1.0000
  H   H78       1.0  0.15647  0.12263  0.26447  1.0000
  C   C74       1.0  0.09475  0.31474  0.28431  1.0000
  H   H79       1.0  0.31545  0.45810  0.33333  1.0000
  S   S23       1.0  0.37035  0.44262  0.46292  1.0000
  C   C75       1.0  0.26028  0.46382  0.24789  1.0000
  H   H80       1.0  0.02328  0.17710  0.36791  1.0000
  Fe  Fe12      1.0  0.34091  0.42037  0.45770  1.0000
  S   S24       1.0  0.33668  0.41018  0.42351  1.0000
  H   H81       1.0  0.12254  0.06060  0.44561  1.0000
  Fe  Fe13      1.0  0.28264  0.36118  0.28719  1.0000
  S   S25       1.0  0.25774  0.37375  0.26396  1.0000
  S   S26       1.0  0.31299  0.33921  0.28053  1.0000
  Fe  Fe14      1.0  0.25955  0.38503  0.32348  1.0000
  S   S27       1.0  0.23223  0.39892  0.30252  1.0000
  S   S28       1.0  0.25888  0.39336  0.35827  1.0000
  Fe  Fe15      1.0  0.23195  0.36436  0.28876  1.0000
  S   S29       1.0  0.20390  0.34228  0.27676  1.0000
  Fe  Fe16      1.0  0.25979  0.40711  0.27930  1.0000
  C   C76       1.0  0.24288  0.00370  0.24621  1.0000
  S   S30       1.0  0.25722  0.35022  0.31120  1.0000
  S   S31       1.0  0.28680  0.39483  0.30112  1.0000
  Fe  Fe17      1.0  0.08896  0.20407  0.31809  1.0000
  S   S32       1.0  0.07500  0.23850  0.31082  1.0000
  S   S33       1.0  0.07576  0.18050  0.34426  1.0000
  Fe  Fe18      1.0  0.12006  0.20600  0.27947  1.0000
  S   S34       1.0  0.10755  0.24017  0.26955  1.0000
  S   S35       1.0  0.15254  0.19302  0.26495  1.0000
  Fe  Fe19      1.0  0.11044  0.24852  0.30312  1.0000
  S   S36       1.0  0.12616  0.28053  0.31472  1.0000
  Fe  Fe20      1.0  0.07292  0.22765  0.27745  1.0000
  H   H82       1.0  0.06933  0.28037  0.25210  1.0000
  S   S37       1.0  0.12431  0.21492  0.31303  1.0000
  S   S38       1.0  0.08546  0.19261  0.28485  1.0000
  H   H83       1.0  0.19142  0.17553  0.24444  1.0000
  H   H84       1.0  0.49312  0.31526  0.41961  1.0000
  H   H85       1.0  0.00263  0.14440  0.38234  1.0000
  H   H86       1.0  0.21974  0.30484  0.31347  1.0000
  C   C77       1.0  0.08593  0.04611  0.47424  1.0000
  H   H87       1.0  0.38856  0.49173  0.46796  1.0000
  H   H88       1.0  0.16819  0.24782  0.32548  1.0000
  C   C78       1.0  0.02952  0.06158  0.48795  1.0000
  C   C79       1.0  0.33915  0.31432  0.25425  1.0000
  C   C80       1.0  0.19401  0.24685  0.27813  1.0000
  N   N8        1.0  0.48714  0.41746  0.46285  1.0000
  C   C81       1.0  0.18272  0.32497  0.28796  1.0000
  C   C82       1.0  0.17305  0.30879  0.27556  1.0000
  C   C83       1.0  0.15625  0.29464  0.28361  1.0000
  C   C84       1.0  0.14832  0.29694  0.30407  1.0000
  C   C85       1.0  0.15790  0.31319  0.31642  1.0000
  C   C86       1.0  0.17514  0.32691  0.30855  1.0000
  H   H89       1.0  0.17872  0.30709  0.25962  1.0000
  H   H90       1.0  0.14914  0.28225  0.27387  1.0000
  H   H91       1.0  0.15193  0.31522  0.33225  1.0000
  H   H92       1.0  0.18225  0.33930  0.31831  1.0000
  C   C87       1.0  0.11187  0.32242  0.27116  1.0000
  C   C88       1.0  0.22616  0.29205  0.30256  1.0000
  C   C89       1.0  0.01127  0.20943  0.24954  1.0000
  S   S39       1.0  0.35106  0.39594  0.48348  1.0000
  H   H93       1.0  0.29227  0.45602  0.30178  1.0000
  C   C90       1.0  0.31462  0.40463  0.40603  1.0000
  C   C91       1.0  0.29209  0.40649  0.41173  1.0000
  C   C92       1.0  0.27536  0.40262  0.39703  1.0000
  C   C93       1.0  0.28081  0.39689  0.37640  1.0000
  C   C94       1.0  0.30333  0.39499  0.37071  1.0000
  C   C95       1.0  0.32005  0.39874  0.38544  1.0000
  H   H94       1.0  0.28755  0.41093  0.42747  1.0000
  H   H95       1.0  0.25803  0.40409  0.40171  1.0000
  H   H96       1.0  0.30789  0.39054  0.35499  1.0000
  H   H97       1.0  0.33738  0.39712  0.38082  1.0000
  H   H98       1.0  0.04451  0.19342  0.44787  1.0000
  C   C96       1.0  0.11598  0.09413  0.43403  1.0000
  H   H99       1.0  0.24181  0.28460  0.30880  1.0000
  H   H100      1.0  0.06820  0.28853  0.30729  1.0000
  C   C97       1.0  0.16658  0.09291  0.24828  1.0000
  C   C98       1.0  0.20927  0.26381  0.28110  1.0000
  C   C99       1.0  0.06171  0.29243  0.29146  1.0000
  Fe  Fe21      1.0  0.34811  0.46052  0.48556  1.0000
  H   H101      1.0  0.30613  0.47149  0.37539  1.0000
  H   H102      1.0  0.02154  0.19762  0.25824  1.0000
  C   C100      1.0  0.08576  0.17214  0.41538  1.0000
  C   C101      1.0  0.09490  0.19046  0.40435  1.0000
  C   C102      1.0  0.09249  0.19309  0.38258  1.0000
  C   C103      1.0  0.08108  0.17724  0.37145  1.0000
  C   C104      1.0  0.07245  0.15861  0.38242  1.0000
  C   C105      1.0  0.07458  0.15613  0.40424  1.0000
  H   H103      1.0  0.10374  0.20289  0.41273  1.0000
  H   H104      1.0  0.09928  0.20749  0.37443  1.0000
  H   H105      1.0  0.06368  0.14618  0.37400  1.0000
  H   H106      1.0  0.06750  0.14190  0.41240  1.0000
  H   H107      1.0  0.30600  0.40765  0.25816  1.0000
  H   H108      1.0  0.49853  0.38719  0.44878  1.0000
  H   H109      1.0  0.22994  0.30118  0.28768  1.0000
  H   H110      1.0  0.07672  0.05953  0.46660  1.0000
  N   N9        1.0  0.20973  0.27466  0.29958  1.0000
  C   C106      1.0  0.19553  0.26875  0.31555  1.0000
  C   C107      1.0  0.03049  0.18958  0.39825  1.0000
  H   H111      1.0  0.01539  0.16579  0.44410  1.0000
  C   C108      1.0  0.43325  0.39181  0.49271  1.0000
  C   C109      1.0  0.33355  0.38473  0.25462  1.0000
  H   H112      1.0  0.09388  0.32039  0.30022  1.0000
  H   H113      1.0  0.35925  0.36088  0.24645  1.0000
  C   C110      1.0  0.44925  0.43067  0.46034  1.0000
  C   C111      1.0  0.44474  0.36144  0.47038  1.0000
  S   S40       1.0  0.04403  0.24127  0.25688  1.0000
  Fe  Fe22      1.0  0.02887  0.12388  0.48053  1.0000
  H   H114      1.0  0.46277  0.40276  0.44389  1.0000
  H   H115      1.0  0.08165  0.02306  0.44938  1.0000
  C   C112      1.0  0.46602  0.36073  0.47923  1.0000
  C   C113      1.0  0.18002  0.25191  0.31308  1.0000
  H   H116      1.0  0.41219  0.37758  0.46991  1.0000
  H   H117      1.0  0.12507  0.14079  0.46107  1.0000
  C   C114      1.0  0.02110  0.17467  0.38463  1.0000
  C   C115      1.0  0.10111  0.00796  0.47405  1.0000
  C   C116      1.0  0.01722  0.16835  0.42741  1.0000
  H   H118      1.0  0.34941  0.31113  0.26774  1.0000
  H   H119      1.0  0.05383  0.27706  0.28592  1.0000
  C   C117      1.0  0.45340  0.44699  0.47479  1.0000
  H   H120      1.0  0.34270  0.24041  0.24576  1.0000
  C   C118      1.0  0.08883  0.02547  0.46448  1.0000
  C   C119      1.0  0.42841  0.37698  0.47702  1.0000
  H   H121      1.0  0.02782  0.07679  0.47787  1.0000
  S   S41       1.0  0.27040  0.44035  0.26319  1.0000
  C   C120      1.0  0.12481  0.12316  0.45772  1.0000
  N   N10       1.0  0.28842  0.45184  0.35441  1.0000
  C   C121      1.0  0.26615  0.44778  0.35657  1.0000
  C   C122      1.0  0.29781  0.45491  0.33504  1.0000
  C   C123      1.0  0.25275  0.44638  0.33904  1.0000
  C   C124      1.0  0.28484  0.45381  0.31718  1.0000
  C   C125      1.0  0.26218  0.44950  0.31925  1.0000
  H   H122      1.0  0.43995  0.45792  0.48001  1.0000
  H   H123      1.0  0.25874  0.44472  0.37185  1.0000
  N   N11       1.0  0.07981  0.29971  0.27750  1.0000
  H   H124      1.0  0.23532  0.44219  0.34083  1.0000
  S   S42       1.0  0.48641  0.34156  0.46998  1.0000
  H   H125      1.0  0.25202  0.44829  0.30550  1.0000
  S   S43       1.0  0.31795  0.43997  0.47887  1.0000
  H   H126      1.0  0.29391  0.44697  0.38713  1.0000
  H   H127      1.0  0.31809  0.44405  0.37101  1.0000
  S   S44       1.0  0.03931  0.15948  0.48319  1.0000
  H   H128      1.0  0.33750  0.38427  0.27106  1.0000
  H   H129      1.0  0.44090  0.35003  0.45822  1.0000
  C   C126      1.0  0.17930  0.24094  0.29423  1.0000
  C   C127      1.0  0.12332  0.07827  0.44874  1.0000
  C   C128      1.0  0.11679  0.11673  0.43848  1.0000
  C   C129      1.0  0.30228  0.45376  0.37285  1.0000
  H   H130      1.0  0.29216  0.47983  0.24737  1.0000
  H   H131      1.0  0.10955  0.08894  0.41926  1.0000
  H   H132      1.0  0.04868  0.30572  0.29245  1.0000
  H   H133      1.0  0.11104  0.12925  0.42722  1.0000
  N   N12       1.0  0.13190  0.10747  0.47210  1.0000
  H   H134      1.0  0.05353  0.20989  0.42614  1.0000
  C   C130      1.0  0.47472  0.44871  0.48289  1.0000
  C   C131      1.0  0.31951  0.32723  0.25625  1.0000
  H   H135      1.0  0.12404  0.33388  0.27684  1.0000
  H   H136      1.0  0.03980  0.20353  0.39179  1.0000
  H   H137      1.0  0.22055  0.26847  0.26846  1.0000
  C   C132      1.0  0.46640  0.41592  0.45452  1.0000
  H   H138      1.0  0.19458  0.13011  0.27650  1.0000
  N   N13       1.0  0.02880  0.18609  0.41934  1.0000
  C   C133      1.0  0.19157  0.11548  0.26744  1.0000
  C   C134      1.0  0.13130  0.08528  0.46779  1.0000
  C   C135      1.0  0.03861  0.20198  0.43338  1.0000
  C   C136      1.0  0.00767  0.15308  0.41427  1.0000
  H   H139      1.0  0.19569  0.27746  0.33013  1.0000
  C   C137      1.0  0.49154  0.43377  0.47661  1.0000
  H   H140      1.0  0.43254  0.42881  0.45447  1.0000
  H   H141      1.0  0.02616  0.21508  0.43749  1.0000
  C   C138      1.0  0.08125  0.29218  0.25759  1.0000
  C   C139      1.0  0.17012  0.11125  0.26075  1.0000
  H   H142      1.0  0.03446  0.04727  0.47816  1.0000
  C   C140      1.0  0.20910  0.10109  0.26201  1.0000
  C   C141      1.0  0.15575  0.17227  0.24595  1.0000
  H   H143      1.0  0.19337  0.23838  0.26342  1.0000
  C   C142      1.0  0.11377  0.31445  0.25100  1.0000
  C   C143      1.0  0.20488  0.08268  0.24982  1.0000
  C   C144      1.0  0.01828  0.23147  0.24677  1.0000
  C   C145      1.0  0.00973  0.15624  0.39273  1.0000
  H   H144      1.0  0.32895  0.21479  0.25217  1.0000
  C   C146      1.0  0.14024  0.11417  0.49230  1.0000
  C   C147      1.0  0.31554  0.39760  0.24730  1.0000
  S   S45       1.0  0.34561  0.49820  0.48895  1.0000
  H   H145      1.0  0.13649  0.07283  0.47937  1.0000
  Fe  Fe23      1.0  0.37866  0.41956  0.48988  1.0000
  H   H146      1.0  0.21861  0.07160  0.24566  1.0000
  H   H147      1.0  0.22659  0.45284  0.24514  1.0000
  C   C148      1.0  0.09547  0.04942  0.49361  1.0000
  C   C149      1.0  0.11041  0.01123  0.49352  1.0000
  H   H148      1.0  0.47807  0.46131  0.49417  1.0000
  H   H149      1.0  0.13951  0.13254  0.49405  1.0000
  H   H150      1.0  0.15778  0.10840  0.49417  1.0000
  H   H151      1.0  0.07236  0.27839  0.60592  1.0000
  S   S46       1.0  0.04135  0.11389  0.51230  1.0000
  C   C150      1.0  0.47076  0.37552  0.49496  1.0000
  Fe  Fe24      1.0  0.05477  0.14875  0.51390  1.0000
  S   S47       1.0  0.04966  0.17100  0.54234  1.0000
  Fe  Fe25      1.0  0.25067  0.41760  0.69283  1.0000
  S   S48       1.0  0.28717  0.41481  0.68621  1.0000
  S   S49       1.0  0.23426  0.44949  0.70585  1.0000
  Fe  Fe26      1.0  0.24321  0.36788  0.68086  1.0000
  S   S50       1.0  0.27996  0.36292  0.67329  1.0000
  S   S51       1.0  0.22360  0.33511  0.68483  1.0000
  Fe  Fe27      1.0  0.28593  0.38136  0.70261  1.0000
  S   S52       1.0  0.30798  0.37321  0.73036  1.0000
  Fe  Fe28      1.0  0.27793  0.39683  0.65708  1.0000
  S   S53       1.0  0.29784  0.41044  0.62867  1.0000
  S   S54       1.0  0.24971  0.38509  0.71092  1.0000
  S   S55       1.0  0.24085  0.40105  0.66297  1.0000
  Fe  Fe29      1.0  0.07203  0.22990  0.68995  1.0000
  S   S56       1.0  0.08549  0.19471  0.68703  1.0000
  S   S57       1.0  0.03719  0.24196  0.70094  1.0000
  Fe  Fe30      1.0  0.11673  0.25088  0.67385  1.0000
  S   S58       1.0  0.13259  0.21705  0.66985  1.0000
  S   S59       1.0  0.13340  0.28395  0.66364  1.0000
  Fe  Fe31      1.0  0.10001  0.20660  0.65596  1.0000
  S   S60       1.0  0.10393  0.18569  0.62638  1.0000
  Fe  Fe32      1.0  0.11686  0.20787  0.70083  1.0000
  S   S61       1.0  0.13651  0.19495  0.72889  1.0000
  S   S62       1.0  0.08495  0.24106  0.65809  1.0000
  S   S63       1.0  0.10257  0.24243  0.70558  1.0000
  Fe  Fe33      1.0  0.33003  0.41717  0.50516  1.0000
  S   S64       1.0  0.30726  0.40005  0.52969  1.0000
  S   S65       1.0  0.35830  0.43907  0.51306  1.0000
  C   C151      1.0  0.29939  0.40775  0.60105  1.0000
  C   C152      1.0  0.28647  0.39272  0.59038  1.0000
  C   C153      1.0  0.28866  0.39110  0.56852  1.0000
  C   C154      1.0  0.30375  0.40441  0.55697  1.0000
  C   C155      1.0  0.31636  0.41974  0.56761  1.0000
  C   C156      1.0  0.31422  0.42132  0.58946  1.0000
  H   H152      1.0  0.27491  0.38223  0.59897  1.0000
  H   H153      1.0  0.27870  0.37926  0.56051  1.0000
  H   H154      1.0  0.32798  0.43016  0.55902  1.0000
  H   H155      1.0  0.32424  0.43312  0.59746  1.0000
  C   C157      1.0  0.24528  0.47314  0.71845  1.0000
  C   C158      1.0  0.26815  0.47710  0.71931  1.0000
  C   C159      1.0  0.22975  0.45960  0.65108  1.0000
  H   H156      1.0  0.23391  0.00288  0.69366  1.0000
  S   S66       1.0  0.09364  0.07544  0.50593  1.0000
  C   C160      1.0  0.19816  0.32146  0.67890  1.0000
  C   C161      1.0  0.19425  0.30001  0.68755  1.0000
  C   C162      1.0  0.17458  0.28838  0.68328  1.0000
  C   C163      1.0  0.15845  0.29797  0.67014  1.0000
  C   C164      1.0  0.16240  0.31938  0.66145  1.0000
  C   C165      1.0  0.18200  0.33107  0.66582  1.0000
  H   H157      1.0  0.20651  0.29234  0.69771  1.0000
  H   H158      1.0  0.17190  0.27200  0.69015  1.0000
  H   H159      1.0  0.15013  0.32706  0.65128  1.0000
  H   H160      1.0  0.18461  0.34748  0.65900  1.0000
  C   C166      1.0  0.08632  0.24811  0.59339  1.0000
  H   H161      1.0  0.24144  0.02847  0.72250  1.0000
  Fe  Fe34      1.0  0.07340  0.10579  0.49534  1.0000
  C   C167      1.0  0.19183  0.20526  0.72117  1.0000
  C   C168      1.0  0.14822  0.16807  0.73366  1.0000
  C   C169      1.0  0.23049  0.48842  0.72798  1.0000
  C   C170      1.0  0.08670  0.26716  0.60539  1.0000
  H   H162      1.0  0.46263  0.26620  0.73564  1.0000
  N   N14       1.0  0.00830  0.05725  0.49874  1.0000
  C   C171      1.0  0.33893  0.31387  0.71817  1.0000
  C   C172      1.0  0.32630  0.33374  0.71585  1.0000
  H   H163      1.0  0.03155  0.19782  0.72130  1.0000
  H   H164      1.0  0.34047  0.30268  0.70528  1.0000
  H   H165      1.0  0.31819  0.33773  0.70128  1.0000
  C   C173      1.0  0.01526  0.22961  0.71608  1.0000
  C   C174      1.0  0.18345  0.00716  0.70727  1.0000
  C   C175      1.0  0.00607  0.06056  0.51967  1.0000
  C   C176      1.0  0.25063  0.44283  0.61589  1.0000
  H   H166      1.0  0.27333  0.46185  0.67356  1.0000
  H   H167      1.0  0.39578  0.40371  0.54275  1.0000
  C   C177      1.0  0.15656  0.12995  0.72382  1.0000
  C   C178      1.0  0.06468  0.17413  0.56596  1.0000
  C   C179      1.0  0.08506  0.16321  0.56975  1.0000
  C   C180      1.0  0.09651  0.16665  0.58845  1.0000
  C   C181      1.0  0.08778  0.18092  0.60377  1.0000
  C   C182      1.0  0.06734  0.19177  0.60004  1.0000
  C   C183      1.0  0.05597  0.18845  0.58126  1.0000
  H   H168      1.0  0.09205  0.15215  0.55824  1.0000
  H   H169      1.0  0.11229  0.15816  0.59106  1.0000
  H   H170      1.0  0.06033  0.20280  0.61158  1.0000
  H   H171      1.0  0.04021  0.19697  0.57860  1.0000
  H   H172      1.0  0.28617  0.27348  0.70826  1.0000
  H   H173      1.0  0.27986  0.46555  0.71225  1.0000
  H   H174      1.0  0.13832  0.20641  0.59733  1.0000
  C   C184      1.0  0.16910  0.12623  0.74193  1.0000
  H   H175      1.0  0.37388  0.40442  0.57597  1.0000
  C   C185      1.0  0.10477  0.23357  0.59332  1.0000
  N   N15       1.0  0.34599  0.36446  0.55145  1.0000
  C   C186      1.0  0.35184  0.37845  0.56688  1.0000
  C   C187      1.0  0.35781  0.36412  0.53311  1.0000
  C   C188      1.0  0.36975  0.39284  0.56399  1.0000
  C   C189      1.0  0.37613  0.37790  0.52991  1.0000
  C   C190      1.0  0.38198  0.39249  0.54537  1.0000
  C   C191      1.0  0.32693  0.34971  0.55431  1.0000
  H   H176      1.0  0.34223  0.37908  0.58130  1.0000
  H   H177      1.0  0.18150  0.21164  0.73432  1.0000
  H   H178      1.0  0.29371  0.49883  0.72996  1.0000
  H   H179      1.0  0.11515  0.03435  0.51816  1.0000
  H   H180      1.0  0.25440  0.33675  0.71881  1.0000
  H   H181      1.0  0.25429  0.48532  0.67297  1.0000
  H   H182      1.0  0.48696  0.37504  0.50205  1.0000
  H   H183      1.0  0.17756  0.03606  0.68736  1.0000
  H   H184      1.0  0.15487  0.11666  0.71293  1.0000
  H   H185      1.0  0.25918  0.43589  0.60245  1.0000
  C   C192      1.0  0.45443  0.39091  0.50169  1.0000
  C   C193      1.0  0.28330  0.28763  0.71816  1.0000
  N   N16       1.0  0.29366  0.28865  0.73693  1.0000
  H   H186      1.0  0.21519  0.13171  0.71653  1.0000
  N   N17       1.0  0.20502  0.18572  0.72808  1.0000
  H   H187      1.0  0.22154  0.46563  0.66506  1.0000
  H   H188      1.0  0.19274  0.16452  0.70480  1.0000
  C   C194      1.0  0.01682  0.20789  0.72445  1.0000
  H   H189      1.0  0.38548  0.37759  0.51533  1.0000
  H   H190      1.0  0.01993  0.06654  0.52848  1.0000
  C   C195      1.0  0.20395  0.16611  0.71774  1.0000
  H   H191      1.0  0.04329  0.06405  0.49901  1.0000
  H   H192      1.0  0.35289  0.35341  0.52070  1.0000
  C   C196      1.0  0.34950  0.30836  0.73703  1.0000
  H   H193      1.0  0.40387  0.17435  0.73985  1.0000
  H   H194      1.0  0.10427  0.21876  0.58403  1.0000
  C   C197      1.0  0.18496  0.03672  0.73966  1.0000
  H   H195      1.0  0.13675  0.15356  0.70558  1.0000
  C   C198      1.0  0.26536  0.32324  0.72395  1.0000
  C   C199      1.0  0.14183  0.22189  0.60578  1.0000
  H   H196      1.0  0.12995  0.10663  0.50509  1.0000
  C   C200      1.0  0.12351  0.25639  0.61682  1.0000
  H   H197      1.0  0.31833  0.35211  0.56954  1.0000
  H   H198      1.0  0.15682  0.22978  0.59877  1.0000
  C   C201      1.0  0.21665  0.14750  0.72423  1.0000
  H   H199      1.0  0.21862  0.43011  0.60804  1.0000
  H   H200      1.0  0.10592  0.28608  0.62666  1.0000
  H   H201      1.0  0.26080  0.30424  0.69646  1.0000
  C   C202      1.0  0.32430  0.34840  0.73236  1.0000
  S   S67       1.0  0.41406  0.41260  0.50094  1.0000
  C   C203      1.0  0.21734  0.44796  0.63678  1.0000
  H   H202      1.0  0.14521  0.21661  0.62215  1.0000
  H   H203      1.0  0.13784  0.25959  0.62632  1.0000
  C   C204      1.0  0.14627  0.15084  0.71961  1.0000
  C   C205      1.0  0.27599  0.49601  0.72948  1.0000
  C   C206      1.0  0.22790  0.43953  0.61908  1.0000
  H   H204      1.0  0.21276  0.48566  0.72744  1.0000
  N   N18       1.0  0.12287  0.23761  0.60526  1.0000
  C   C207      1.0  0.10550  0.27149  0.61700  1.0000
  C   C208      1.0  0.47851  0.25741  0.73544  1.0000
  H   H205      1.0  0.07172  0.24435  0.58446  1.0000
  H   H206      1.0  0.31450  0.35345  0.54198  1.0000
  H   H207      1.0  0.45832  0.40235  0.51381  1.0000
  N   N19       1.0  0.25201  0.46294  0.64770  1.0000
  C   C209      1.0  0.26252  0.45454  0.63049  1.0000
  C   C210      1.0  0.18101  0.04484  0.71945  1.0000
  H   H208      1.0  0.28033  0.45643  0.62817  1.0000
  C   C211      1.0  0.24159  0.01064  0.72539  1.0000
  C   C212      1.0  0.26900  0.30490  0.71139  1.0000
  C   C213      1.0  0.26502  0.47437  0.66317  1.0000
  C   C214      1.0  0.23058  0.14914  0.74126  1.0000
  H   H209      1.0  0.18001  0.20118  0.70871  1.0000
  C   C215      1.0  0.18036  0.02994  0.70315  1.0000
  H   H210      1.0  0.19978  0.44509  0.63968  1.0000
  C   C216      1.0  0.10767  0.03191  0.50319  1.0000
  H   H211      1.0  0.17859  0.06263  0.71655  1.0000
  H   H212      1.0  0.31954  0.26488  0.73109  1.0000
  H   H213      1.0  0.33248  0.33203  0.55340  1.0000
  S   S68       1.0  0.08753  0.14009  0.49858  1.0000
  C   C217      1.0  0.30804  0.27001  0.74389  1.0000
  S   S69       1.0  0.36409  0.28253  0.73929  1.0000
  H   H214      1.0  0.27620  0.40873  0.74130  1.0000
  H   H215      1.0  0.27787  0.48499  0.65552  1.0000
  H   H216      1.0  0.49289  0.27899  0.71158  1.0000
  H   H217      1.0  0.20288  0.21863  0.71513  1.0000
  C   C218      1.0  0.49579  0.26467  0.72180  1.0000
  C   C219      1.0  0.27600  0.32418  0.74303  1.0000
  N   N20       1.0  0.18833  0.01439  0.74353  1.0000
  C   C220      1.0  0.37481  0.38901  0.94086  1.0000
  Fe  Fe35      1.0  0.14965  0.06147  0.95823  1.0000
  C   C221      1.0  0.21519  0.10645  0.91937  1.0000
  S   S70       1.0  0.15934  0.08235  0.92905  1.0000
  H   H218      1.0  0.33036  0.37086  0.96944  1.0000
  S   S71       1.0  0.12506  0.03384  0.95703  1.0000
  C   C222      1.0  0.05137  0.07228  0.98338  1.0000
  H   H219      1.0  0.03882  0.21615  0.76930  1.0000
  Fe  Fe36      1.0  0.46761  0.34236  0.98083  1.0000
  Fe  Fe37      1.0  0.42546  0.32567  0.96013  1.0000
  H   H220      1.0  0.04682  0.01604  0.95773  1.0000
  S   S72       1.0  0.40950  0.30329  0.93598  1.0000
  H   H221      1.0  0.02894  0.25406  0.75588  1.0000
  H   H222      1.0  0.21624  0.13066  0.89393  1.0000
  S   S73       1.0  0.44863  0.35367  0.95254  1.0000
  Fe  Fe38      1.0  0.40191  0.26803  0.81143  1.0000
  S   S74       1.0  0.41344  0.23231  0.80877  1.0000
  S   S75       1.0  0.41483  0.29126  0.83659  1.0000
  Fe  Fe39      1.0  0.38206  0.26760  0.76747  1.0000
  S   S76       1.0  0.39319  0.23194  0.76236  1.0000
  H   H223      1.0  0.20130  0.08806  0.95382  1.0000
  Fe  Fe40      1.0  0.37980  0.22560  0.79477  1.0000
  S   S77       1.0  0.36055  0.19408  0.80529  1.0000
  Fe  Fe41      1.0  0.42569  0.24181  0.77637  1.0000
  S   S78       1.0  0.46118  0.22964  0.76736  1.0000
  S   S79       1.0  0.36739  0.26097  0.79949  1.0000
  S   S80       1.0  0.41538  0.27765  0.77935  1.0000
  Fe  Fe42      1.0  0.20949  0.09359  0.77003  1.0000
  S   S81       1.0  0.24311  0.08733  0.75544  1.0000
  H   H224      1.0  0.27380  0.33876  0.75255  1.0000
  Fe  Fe43      1.0  0.22569  0.08009  0.81394  1.0000
  S   S82       1.0  0.26065  0.07358  0.80146  1.0000
  S   S83       1.0  0.21962  0.06743  0.84774  1.0000
  Fe  Fe44      1.0  0.25648  0.10589  0.78280  1.0000
  S   S84       1.0  0.27899  0.13577  0.77359  1.0000
  Fe  Fe45      1.0  0.24421  0.05587  0.77510  1.0000
  H   H225      1.0  0.20550  0.01649  0.77205  1.0000
  S   S85       1.0  0.22230  0.11340  0.79658  1.0000
  S   S86       1.0  0.20989  0.06122  0.78841  1.0000
  H   H226      1.0  0.41389  0.38115  0.92364  1.0000
  H   H227      1.0  0.47919  0.25393  0.83424  1.0000
  C   C223      1.0  0.17111  0.14350  0.75593  1.0000
  C   C224      1.0  0.29978  0.45204  0.76525  1.0000
  H   H228      1.0  0.46295  0.27867  0.83920  1.0000
  C   C225      1.0  0.04475  0.11221  0.97960  1.0000
  C   C226      1.0  0.06863  0.04432  0.93205  1.0000
  H   H229      1.0  0.07716  0.09608  0.97715  1.0000
  C   C227      1.0  0.38627  0.46710  0.97147  1.0000
  C   C228      1.0  0.48189  0.23897  0.74888  1.0000
  H   H230      1.0  0.35545  0.31887  0.76819  1.0000
  C   C229      1.0  0.30128  0.15208  0.78317  1.0000
  C   C230      1.0  0.31237  0.14671  0.80170  1.0000
  C   C231      1.0  0.33013  0.15994  0.80829  1.0000
  C   C232      1.0  0.33707  0.17886  0.79663  1.0000
  C   C233      1.0  0.32589  0.18433  0.77817  1.0000
  C   C234      1.0  0.30826  0.17099  0.77149  1.0000
  H   H231      1.0  0.30736  0.13228  0.81092  1.0000
  H   H232      1.0  0.33855  0.15543  0.82259  1.0000
  H   H233      1.0  0.33096  0.19871  0.76892  1.0000
  H   H234      1.0  0.29995  0.17536  0.75711  1.0000
  C   C235      1.0  0.34460  0.37045  0.95886  1.0000
  C   C236      1.0  0.23157  0.16915  0.75171  1.0000
  H   H235      1.0  0.39679  0.37160  0.90269  1.0000
  C   C237      1.0  0.41175  0.29993  0.90834  1.0000
  C   C238      1.0  0.42562  0.31306  0.89553  1.0000
  C   C239      1.0  0.42626  0.31012  0.87373  1.0000
  C   C240      1.0  0.41329  0.29389  0.86433  1.0000
  C   C241      1.0  0.39960  0.28063  0.87716  1.0000
  C   C242      1.0  0.39879  0.28372  0.89894  1.0000
  H   H236      1.0  0.43592  0.32542  0.90238  1.0000
  H   H237      1.0  0.43696  0.32050  0.86408  1.0000
  H   H238      1.0  0.38949  0.26809  0.87032  1.0000
  H   H239      1.0  0.38802  0.27339  0.90859  1.0000
  H   H240      1.0  0.38869  0.15273  0.80199  1.0000
  H   H241      1.0  0.41024  0.35198  0.92043  1.0000
  H   H242      1.0  0.06819  0.04892  0.91522  1.0000
  C   C243      1.0  0.47216  0.30541  0.78168  1.0000
  C   C244      1.0  0.34742  0.32295  0.75359  1.0000
  C   C245      1.0  0.46490  0.29533  0.80038  1.0000
  C   C246      1.0  0.17290  0.07594  0.90492  1.0000
  C   C247      1.0  0.18533  0.05627  0.90223  1.0000
  C   C248      1.0  0.19860  0.05350  0.88410  1.0000
  C   C249      1.0  0.19929  0.07008  0.86817  1.0000
  C   C250      1.0  0.18587  0.08920  0.87035  1.0000
  C   C251      1.0  0.17293  0.09216  0.88867  1.0000
  H   H243      1.0  0.18542  0.04352  0.91442  1.0000
  H   H244      1.0  0.20888  0.03863  0.88261  1.0000
  H   H245      1.0  0.18625  0.10217  0.85836  1.0000
  H   H246      1.0  0.16336  0.10745  0.89050  1.0000
  H   H247      1.0  0.29550  0.49523  0.77485  1.0000
  C   C252      1.0  0.42814  0.18208  0.76261  1.0000
  C   C253      1.0  0.02409  0.22470  0.77529  1.0000
  C   C254      1.0  0.23765  0.10224  0.88822  1.0000
  H   H248      1.0  0.44880  0.18829  0.78887  1.0000
  S   S87       1.0  0.00417  0.13315  0.98547  1.0000
  H   H249      1.0  0.31607  0.45836  0.76874  1.0000
  C   C255      1.0  0.38470  0.42299  0.98698  1.0000
  H   H250      1.0  0.31326  0.42298  0.74968  1.0000
  H   H251      1.0  0.29783  0.25563  0.74908  1.0000
  C   C256      1.0  0.06007  0.00808  0.94880  1.0000
  H   H252      1.0  0.29864  0.30766  0.76407  1.0000
  C   C257      1.0  0.01368  0.08792  0.98654  1.0000
  C   C258      1.0  0.46691  0.26592  0.82736  1.0000
  H   H253      1.0  0.10076  0.02025  0.91416  1.0000
  C   C259      1.0  0.00997  0.21411  0.78981  1.0000
  H   H254      1.0  0.41552  0.45608  0.95451  1.0000
  S   S88       1.0  0.17172  0.04363  0.98171  1.0000
  H   H255      1.0  0.24536  0.46483  0.77094  1.0000
  C   C260      1.0  0.35615  0.38993  0.95410  1.0000
  H   H256      1.0  0.38385  0.40419  0.93742  1.0000
  H   H257      1.0  0.02198  0.05290  0.98937  1.0000
  C   C261      1.0  0.26034  0.45555  0.76671  1.0000
  N   N21       1.0  0.38187  0.36920  0.93274  1.0000
  C   C262      1.0  0.37012  0.35020  0.93666  1.0000
  C   C263      1.0  0.35150  0.35046  0.94998  1.0000
  C   C264      1.0  0.40163  0.36850  0.91912  1.0000
  H   H258      1.0  0.37535  0.33460  0.92978  1.0000
  H   H259      1.0  0.34272  0.33516  0.95355  1.0000
  H   H260      1.0  0.35094  0.40563  0.96084  1.0000
  C   C265      1.0  0.23735  0.07364  0.91527  1.0000
  H   H261      1.0  0.49595  0.30355  0.75623  1.0000
  H   H262      1.0  0.38698  0.48402  0.96535  1.0000
  N   N22       1.0  0.39451  0.16216  0.77013  1.0000
  N   N23       1.0  0.28091  0.46353  0.77109  1.0000
  C   C266      1.0  0.39994  0.16051  0.79073  1.0000
  C   C267      1.0  0.49031  0.29618  0.77094  1.0000
  S   S89       1.0  0.06925  0.04867  0.98510  1.0000
  H   H263      1.0  0.20611  0.06072  0.94435  1.0000
  H   H264      1.0  0.24273  0.10799  0.87273  1.0000
  S   S90       1.0  0.40318  0.34657  0.98097  1.0000
  S   S91       1.0  0.18234  0.09996  0.74621  1.0000
  H   H265      1.0  0.20277  0.11592  0.92803  1.0000
  C   C268      1.0  0.40172  0.42910  0.97301  1.0000
  H   H266      1.0  0.45063  0.30245  0.80856  1.0000
  Fe  Fe46      1.0  0.42775  0.37383  0.97491  1.0000
  C   C269      1.0  0.24507  0.08151  0.89584  1.0000
  C   C270      1.0  0.36893  0.46092  0.98504  1.0000
  Fe  Fe47      1.0  0.10698  0.05030  0.98346  1.0000
  C   C271      1.0  0.29834  0.43212  0.75450  1.0000
  H   H267      1.0  0.33348  0.35421  0.76406  1.0000
  H   H268      1.0  0.45138  0.25694  0.82419  1.0000
  C   C272      1.0  0.33496  0.34296  0.75120  1.0000
  C   C273      1.0  0.49282  0.26704  0.79739  1.0000
  S   S92       1.0  0.25318  0.01963  0.76638  1.0000
  H   H269      1.0  0.37734  0.13984  0.75114  1.0000
  S   S93       1.0  0.12984  0.07935  0.98320  1.0000
  N   N24       1.0  0.22251  0.08604  0.92670  1.0000
  C   C274      1.0  0.22271  0.11489  0.90007  1.0000
  C   C275      1.0  0.50083  0.27697  0.77889  1.0000
  H   H270      1.0  0.43893  0.19080  0.75155  1.0000
  H   H271      1.0  0.18541  0.04847  0.75219  1.0000
  C   C276      1.0  0.37374  0.15279  0.76282  1.0000
  H   H272      1.0  0.16211  0.17751  0.76284  1.0000
  C   C277      1.0  0.40243  0.45121  0.96534  1.0000
  C   C278      1.0  0.16059  0.16427  0.75186  1.0000
  C   C279      1.0  0.02841  0.06944  0.98655  1.0000
  H   H273      1.0  0.24047  0.13487  0.74652  1.0000
  H   H274      1.0  0.18064  0.14082  0.76995  1.0000
  H   H275      1.0  0.01403  0.19725  0.79508  1.0000
  C   C280      1.0  0.05951  0.09372  0.97969  1.0000
  H   H276      1.0  0.42333  0.16924  0.81424  1.0000
  H   H277      1.0  0.46354  0.32009  0.77544  1.0000
  C   C281      1.0  0.43369  0.18067  0.78360  1.0000
  H   H278      1.0  0.31881  0.27471  0.75697  1.0000
  H   H279      1.0  0.24265  0.05721  0.92079  1.0000
  S   S94       1.0  0.42159  0.40954  0.96347  1.0000
  C   C282      1.0  0.21418  0.07698  0.94669  1.0000
  C   C283      1.0  0.01854  0.24603  0.76774  1.0000
  N   N25       1.0  0.47532  0.27648  0.80806  1.0000
  Fe  Fe48      1.0  0.14537  0.01696  0.98196  1.0000
  C   C284      1.0  0.27747  0.42401  0.74980  1.0000
  N   N26       1.0  0.07285  0.02031  0.93507  1.0000
  C   C285      1.0  0.40831  0.17276  0.75612  1.0000
  C   C286      1.0  0.28294  0.48423  0.78253  1.0000
  C   C287      1.0  0.41950  0.16989  0.79780  1.0000
  H   H280      1.0  0.24231  0.17033  0.76508  1.0000
  H   H281      1.0  0.25589  0.07119  0.88625  1.0000
  H   H282      1.0  0.50048  0.25155  0.80290  1.0000
  H   H283      1.0  0.05251  0.04967  0.93924  1.0000
  H   H284      1.0  0.36316  0.16623  0.75572  1.0000
  H   H285      1.0  0.05114  0.12879  0.97691  1.0000
  C   C288      1.0  0.25832  0.43574  0.75590  1.0000
  H   H286      1.0  0.22804  0.07463  0.95781  1.0000
  H   H287      1.0  0.36383  0.14502  0.77575  1.0000
  H   H288      1.0  0.21919  0.20285  0.75321  1.0000
  H   H289      1.0  0.24202  0.42988  0.75171  1.0000
  H   H290      1.0  0.28791  0.48047  0.79882  1.0000
  C   C289      1.0  0.02182  0.10942  0.98328  1.0000
  C   C290      1.0  0.19249  0.00636  0.76487  1.0000
  H   H291      1.0  0.08194  0.05380  0.93953  1.0000
  H   H292      1.0  0.26707  0.49407  0.78275  1.0000
  S   S95       1.0  0.44595  0.31246  0.98729  1.0000
  C   C291      1.0  0.09019  0.01041  0.92454  1.0000
  C   C292      1.0  0.29010  0.30658  0.74939  1.0000
  S   S96       1.0  0.34740  0.48010  0.99192  1.0000
  H   H293      1.0  0.38401  0.40603  0.99304  1.0000
  H   H294      1.0  0.17699  0.00752  0.77442  1.0000
  C   C293      1.0  0.36822  0.43880  0.99278  1.0000
  C   C294      1.0  0.21855  0.18739  0.74489  1.0000
  H   H295      1.0  0.41328  0.60406  0.99802  1.0000
  Fe  Fe49      1.0  0.06749  0.83495  0.01116  1.0000
  S   S97       1.0  0.07830  0.82811  0.04517  1.0000
  C   C295      1.0  0.01471  0.79076  0.19097  1.0000
  S   S98       1.0  0.36644  0.53599  0.01312  1.0000
  C   C296      1.0  0.30624  0.51655  0.07016  1.0000
  Fe  Fe50      1.0  0.33814  0.56056  0.00856  1.0000
  S   S99       1.0  0.31434  0.57412  0.03398  1.0000
  Fe  Fe51      1.0  0.28127  0.57927  0.15960  1.0000
  S   S100      1.0  0.24484  0.57126  0.16281  1.0000
  S   S101      1.0  0.30690  0.56966  0.13402  1.0000
  Fe  Fe52      1.0  0.28165  0.59765  0.20403  1.0000
  S   S102      1.0  0.24522  0.59097  0.20990  1.0000
  S   S103      1.0  0.30393  0.60760  0.23051  1.0000
  Fe  Fe53      1.0  0.25240  0.55767  0.19525  1.0000
  S   S104      1.0  0.23613  0.52530  0.20793  1.0000
  Fe  Fe54      1.0  0.24047  0.60519  0.17742  1.0000
  S   S105      1.0  0.21244  0.62882  0.16525  1.0000
  S   S106      1.0  0.28890  0.56369  0.19119  1.0000
  S   S107      1.0  0.27679  0.61383  0.17242  1.0000
  Fe  Fe55      1.0  0.08815  0.75724  0.15596  1.0000
  S   S108      1.0  0.07883  0.72858  0.17815  1.0000
  S   S109      1.0  0.07249  0.75886  0.12336  1.0000
  Fe  Fe56      1.0  0.11655  0.77864  0.18899  1.0000
  S   S110      1.0  0.10848  0.75236  0.21302  1.0000
  S   S111      1.0  0.14193  0.80584  0.19323  1.0000
  Fe  Fe57      1.0  0.11522  0.72771  0.18749  1.0000
  S   S112      1.0  0.13860  0.69892  0.19903  1.0000
  Fe  Fe58      1.0  0.07295  0.75516  0.20197  1.0000
  S   S113      1.0  0.04419  0.76141  0.22566  1.0000
  S   S114      1.0  0.12463  0.75424  0.16371  1.0000
  S   S115      1.0  0.08084  0.78361  0.17948  1.0000
  C   C297      1.0  0.01806  0.83815  0.05024  1.0000
  C   C298      1.0  0.17172  0.59765  0.18583  1.0000
  H   H296      1.0  0.36503  0.57462  0.20396  1.0000
  N   N27       1.0  0.10201  0.90521  0.03273  1.0000
  C   C299      1.0  0.14877  0.81757  0.21730  1.0000
  H   H297      1.0  0.15541  0.73300  0.22383  1.0000
  N   N28       1.0  0.17631  0.75922  0.21262  1.0000
  H   H298      1.0  0.16813  0.58179  0.14786  1.0000
  H   H299      1.0  0.17404  0.83838  0.20328  1.0000
  H   H300      1.0  0.01329  0.72743  0.21098  1.0000
  H   H301      1.0  0.03637  0.77525  0.15809  1.0000
  H   H302      1.0  0.08684  0.87433  0.04097  1.0000
  C   C300      1.0  0.01787  0.81879  0.03857  1.0000
  C   C301      1.0  0.27961  0.90425  0.24314  1.0000
  C   C302      1.0  0.31532  0.65072  0.21866  1.0000
  C   C303      1.0  0.46752  0.54229  0.02020  1.0000
  H   H303      1.0  0.30421  0.64914  0.20570  1.0000
  C   C304      1.0  0.19315  0.64938  0.17505  1.0000
  C   C305      1.0  0.17972  0.66166  0.16089  1.0000
  C   C306      1.0  0.16339  0.67722  0.16780  1.0000
  C   C307      1.0  0.15989  0.68050  0.18911  1.0000
  C   C308      1.0  0.17336  0.66823  0.20328  1.0000
  C   C309      1.0  0.18998  0.65298  0.19634  1.0000
  H   H304      1.0  0.18190  0.65909  0.14437  1.0000
  H   H305      1.0  0.15322  0.68635  0.15663  1.0000
  H   H306      1.0  0.17089  0.67053  0.21980  1.0000
  H   H307      1.0  0.20010  0.64379  0.20750  1.0000
  H   H308      1.0  0.11995  0.85148  0.03180  1.0000
  N   N29       1.0  0.00843  0.77344  0.17907  1.0000
  H   H309      1.0  0.32739  0.61148  0.14315  1.0000
  H   H310      1.0  0.19651  0.78729  0.20548  1.0000
  H   H311      1.0  0.48004  0.68986  0.20289  1.0000
  H   H312      1.0  0.16976  0.76626  0.18079  1.0000
  C   C310      1.0  0.49492  0.71934  0.18926  1.0000
  C   C311      1.0  0.31318  0.57351  0.06185  1.0000
  C   C312      1.0  0.33033  0.56438  0.07407  1.0000
  C   C313      1.0  0.32810  0.56350  0.09604  1.0000
  C   C314      1.0  0.30873  0.57164  0.10618  1.0000
  C   C315      1.0  0.29163  0.58083  0.09395  1.0000
  C   C316      1.0  0.29389  0.58179  0.07200  1.0000
  H   H313      1.0  0.34527  0.55793  0.06661  1.0000
  H   H314      1.0  0.34150  0.55638  0.10525  1.0000
  H   H315      1.0  0.27666  0.58726  0.10140  1.0000
  H   H316      1.0  0.28052  0.58898  0.06280  1.0000
  S   S116      1.0  0.21903  0.93991  0.24349  1.0000
  C   C317      1.0  0.17292  0.84189  0.23663  1.0000
  H   H317      1.0  0.49271  0.61131  0.02915  1.0000
  H   H318      1.0  0.19739  0.58777  0.14885  1.0000
  C   C318      1.0  0.44499  0.62046  0.99444  1.0000
  N   N30       1.0  0.34730  0.60276  0.19173  1.0000
  C   C319      1.0  0.19187  0.56675  0.21257  1.0000
  C   C320      1.0  0.48165  0.59938  0.03763  1.0000
  C   C321      1.0  0.07699  0.80818  0.06645  1.0000
  C   C322      1.0  0.08610  0.81370  0.08572  1.0000
  C   C323      1.0  0.08522  0.79880  0.10314  1.0000
  C   C324      1.0  0.07501  0.77811  0.10167  1.0000
  C   C325      1.0  0.06590  0.77259  0.08240  1.0000
  C   C326      1.0  0.06703  0.78736  0.06490  1.0000
  H   H319      1.0  0.09398  0.82962  0.08722  1.0000
  H   H320      1.0  0.09234  0.80339  0.11776  1.0000
  H   H321      1.0  0.05814  0.75659  0.08094  1.0000
  H   H322      1.0  0.06049  0.78240  0.05018  1.0000
  C   C327      1.0  0.49088  0.75812  0.24139  1.0000
  H   H323      1.0  0.27975  0.51285  0.22614  1.0000
  N   N31       1.0  0.29241  0.51963  0.03528  1.0000
  H   H324      1.0  0.30509  0.52128  0.08634  1.0000
  C   C328      1.0  0.08219  0.91836  0.03851  1.0000
  C   C329      1.0  0.17607  0.75230  0.19091  1.0000
  H   H325      1.0  0.18810  0.55939  0.15115  1.0000
  H   H326      1.0  0.36254  0.62720  0.21016  1.0000
  S   S117      1.0  0.35822  0.69690  0.23858  1.0000
  C   C330      1.0  0.18408  0.57687  0.15534  1.0000
  C   C331      1.0  0.46572  0.56355  0.02860  1.0000
  H   H327      1.0  0.27591  0.51968  0.00597  1.0000
  H   H328      1.0  0.19773  0.79945  0.24197  1.0000
  C   C332      1.0  0.19260  0.56406  0.19102  1.0000
  N   N32       1.0  0.48379  0.57710  0.02889  1.0000
  H   H329      1.0  0.27784  0.53650  0.06108  1.0000
  C   C333      1.0  0.18088  0.58533  0.22073  1.0000
  C   C334      1.0  0.27346  0.94126  0.23033  1.0000
  C   C335      1.0  0.12088  0.91558  0.02568  1.0000
  C   C336      1.0  0.35507  0.62358  0.19537  1.0000
  C   C337      1.0  0.13834  0.81104  0.23602  1.0000
  H   H330      1.0  0.20853  0.96910  0.20869  1.0000
  C   C338      1.0  0.13983  0.90308  0.02010  1.0000
  N   N33       1.0  0.18247  0.57935  0.17796  1.0000
  C   C339      1.0  0.32782  0.67017  0.22064  1.0000
  S   S118      1.0  0.04311  0.86362  0.00764  1.0000
  H   H331      1.0  0.33510  0.57405  0.20797  1.0000
  H   H332      1.0  0.15449  0.91138  0.01389  1.0000
  C   C340      1.0  0.16595  0.83316  0.21770  1.0000
  H   H333      1.0  0.15402  0.86994  0.01782  1.0000
  H   H334      1.0  0.03250  0.80799  0.03856  1.0000
  C   C341      1.0  0.18814  0.77755  0.21758  1.0000
  H   H335      1.0  0.46445  0.60626  0.03593  1.0000
  C   C342      1.0  0.29077  0.52502  0.05581  1.0000
  H   H336      1.0  0.45289  0.53203  0.01913  1.0000
  H   H337      1.0  0.16247  0.61566  0.21337  1.0000
  H   H338      1.0  0.03162  0.79680  0.19001  1.0000
  H   H339      1.0  0.34035  0.64972  0.14994  1.0000
  C   C343      1.0  0.33527  0.61507  0.15777  1.0000
  H   H340      1.0  0.48443  0.73049  0.19834  1.0000
  H   H341      1.0  0.20161  0.54979  0.18484  1.0000
  H   H342      1.0  0.35120  0.59166  0.22335  1.0000
  C   C344      1.0  0.27651  0.52944  0.02041  1.0000
  C   C345      1.0  0.34260  0.63649  0.16157  1.0000
  C   C346      1.0  0.34996  0.58485  0.20748  1.0000
  H   H343      1.0  0.26575  0.95288  0.21929  1.0000
  H   H344      1.0  0.32614  0.68357  0.20915  1.0000
  C   C347      1.0  0.02479  0.76284  0.16516  1.0000
  C   C348      1.0  0.17069  0.60088  0.20730  1.0000
  H   H345      1.0  0.33205  0.58167  0.17001  1.0000
  C   C349      1.0  0.22501  0.96871  0.23829  1.0000
  C   C350      1.0  0.33786  0.59827  0.17308  1.0000
  H   H346      1.0  0.16445  0.61024  0.17544  1.0000
  C   C351      1.0  0.10171  0.88252  0.03518  1.0000
  C   C352      1.0  0.31766  0.63316  0.23320  1.0000
  H   H347      1.0  0.20020  0.55469  0.22281  1.0000
  C   C353      1.0  0.01644  0.75345  0.23308  1.0000
  C   C354      1.0  0.35271  0.64078  0.18042  1.0000
  H   H348      1.0  0.35828  0.65743  0.18369  1.0000
  H   H349      1.0  0.03468  0.75021  0.17414  1.0000
  C   C355      1.0  0.21805  0.97872  0.21933  1.0000
  N   N34       1.0  0.26986  0.91887  0.22922  1.0000
  H   H350      1.0  0.48963  0.51850  0.00557  1.0000
  C   C356      1.0  0.00499  0.73671  0.22313  1.0000
  C   C357      1.0  0.16489  0.74748  0.22773  1.0000
  C   C358      1.0  0.18885  0.78453  0.23817  1.0000
  H   H351      1.0  0.06695  0.91043  0.03270  1.0000
  H   H352      1.0  0.16508  0.73785  0.18877  1.0000
  C   C359      1.0  0.48806  0.53481  0.01240  1.0000
  C   C360      1.0  0.25615  0.91036  0.21259  1.0000
  H   H353      1.0  0.44954  0.56944  0.03407  1.0000
  H   H354      1.0  0.49909  0.76132  0.17777  1.0000
  H   H355      1.0  0.26691  0.90445  0.19962  1.0000
  C   C361      1.0  0.30943  0.50611  0.02845  1.0000
  H   H356      1.0  0.08102  0.91969  0.05568  1.0000
  H   H357      1.0  0.25946  0.53004  0.02730  1.0000
  H   H358      1.0  0.28153  0.54671  0.01609  1.0000
  C   C362      1.0  0.13954  0.87989  0.02225  1.0000
  H   H359      1.0  0.08252  0.93537  0.03127  1.0000
  H   H360      1.0  0.19310  0.74738  0.18568  1.0000
  C   C363      1.0  0.12045  0.86952  0.03003  1.0000
  H   H361      1.0  0.00534  0.81303  0.21558  1.0000
  H   H362      1.0  0.12120  0.93359  0.02375  1.0000
  C   C364      1.0  0.34252  0.67235  0.23725  1.0000
  H   H363      1.0  0.18627  0.85374  0.23671  1.0000
  H   H364      1.0  0.03262  0.84194  0.05924  1.0000
  C   C365      1.0  0.22330  0.00103  0.21389  1.0000
  C   C366      1.0  0.49241  0.69632  0.19197  1.0000
  H   H365      1.0  0.01671  0.75452  0.15208  1.0000
  H   H366      1.0  0.12508  0.79908  0.23592  1.0000
  C   C367      1.0  0.32370  0.50283  0.06330  1.0000
  H   H367      1.0  0.24568  0.89647  0.21862  1.0000
  H   H368      1.0  0.18056  0.58781  0.23739  1.0000
  H   H369      1.0  0.48615  0.59875  0.05431  1.0000
  H   H370      1.0  0.24434  0.92341  0.20659  1.0000
  H   H371      1.0  0.27701  0.88646  0.24215  1.0000
  H   H372      1.0  0.43865  0.63630  0.99988  1.0000
  H   H373      1.0  0.48679  0.77576  0.24130  1.0000
  H   H374      1.0  0.01297  0.78163  0.01940  1.0000
  H   H375      1.0  0.07430  0.96106  0.99577  1.0000
  H   H376      1.0  0.00347  0.79874  0.99774  1.0000
  S   S119      1.0  0.15749  0.94066  0.47205  1.0000
  S   S120      1.0  0.10905  0.92000  0.45987  1.0000
  H   H377      1.0  0.33399  0.62197  0.26134  1.0000
  Fe  Fe59      1.0  0.14500  0.90874  0.45920  1.0000
  S   S121      1.0  0.15908  0.88861  0.43174  1.0000
  S   S122      1.0  0.10487  0.98260  0.46085  1.0000
  H   H378      1.0  0.17653  0.93125  0.41530  1.0000
  S   S123      1.0  0.44733  0.62185  0.45265  1.0000
  H   H379      1.0  0.30572  0.76856  0.26705  1.0000
  Fe  Fe60      1.0  0.42200  0.64889  0.45894  1.0000
  S   S124      1.0  0.40502  0.67146  0.43415  1.0000
  Fe  Fe61      1.0  0.21907  0.89833  0.31622  1.0000
  S   S125      1.0  0.24797  0.90906  0.29523  1.0000
  S   S126      1.0  0.21157  0.91534  0.34735  1.0000
  Fe  Fe62      1.0  0.20042  0.86863  0.28302  1.0000
  S   S127      1.0  0.22731  0.87736  0.25989  1.0000
  S   S128      1.0  0.17172  0.84473  0.27968  1.0000
  Fe  Fe63      1.0  0.25097  0.87262  0.28670  1.0000
  S   S129      1.0  0.28418  0.85549  0.27709  1.0000
  Fe  Fe64      1.0  0.22271  0.91310  0.26978  1.0000
  C   C368      1.0  0.46435  0.75546  0.31444  1.0000
  S   S130      1.0  0.22406  0.86182  0.30952  1.0000
  S   S131      1.0  0.19384  0.90441  0.29106  1.0000
  Fe  Fe65      1.0  0.37708  0.70947  0.26639  1.0000
  S   S132      1.0  0.38421  0.74612  0.26268  1.0000
  C   C369      1.0  0.40453  0.52376  0.46810  1.0000
  Fe  Fe66      1.0  0.39880  0.70644  0.30959  1.0000
  S   S133      1.0  0.40678  0.74295  0.30847  1.0000
  S   S134      1.0  0.41240  0.68168  0.33449  1.0000
  Fe  Fe67      1.0  0.37209  0.74869  0.29575  1.0000
  S   S135      1.0  0.34539  0.77271  0.30913  1.0000
  Fe  Fe68      1.0  0.41830  0.73726  0.27525  1.0000
  S   S136      1.0  0.45008  0.75333  0.26140  1.0000
  S   S137      1.0  0.36342  0.71224  0.29899  1.0000
  S   S138      1.0  0.41187  0.70056  0.27681  1.0000
  C   C370      1.0  0.19367  0.86331  0.47518  1.0000
  C   C371      1.0  0.30996  0.71408  0.26338  1.0000
  C   C372      1.0  0.20465  0.89990  0.48761  1.0000
  C   C373      1.0  0.30041  0.83188  0.28605  1.0000
  C   C374      1.0  0.31877  0.82462  0.27389  1.0000
  C   C375      1.0  0.33255  0.80650  0.28050  1.0000
  C   C376      1.0  0.32834  0.79544  0.29956  1.0000
  C   C377      1.0  0.30992  0.80261  0.31165  1.0000
  C   C378      1.0  0.29598  0.82056  0.30493  1.0000
  H   H380      1.0  0.32251  0.83323  0.25930  1.0000
  H   H381      1.0  0.34670  0.80143  0.27103  1.0000
  H   H382      1.0  0.30649  0.79434  0.32648  1.0000
  H   H383      1.0  0.28207  0.82592  0.31457  1.0000
  N   N35       1.0  0.46211  0.71647  0.32351  1.0000
  C   C379      1.0  0.38429  0.55322  0.48556  1.0000
  H   H384      1.0  0.29716  0.67924  0.30414  1.0000
  C   C380      1.0  0.30061  0.69461  0.29554  1.0000
  C   C381      1.0  0.05745  0.87378  0.47257  1.0000
  H   H385      1.0  0.20710  0.85055  0.47332  1.0000
  H   H386      1.0  0.44046  0.74763  0.36230  1.0000
  H   H387      1.0  0.18619  0.86136  0.49104  1.0000
  C   C382      1.0  0.40309  0.54603  0.47433  1.0000
  S   S139      1.0  0.14247  0.89177  0.49104  1.0000
  Fe  Fe69      1.0  0.12126  0.95112  0.47461  1.0000
  H   H388      1.0  0.22194  0.91847  0.43187  1.0000
  H   H389      1.0  0.04028  0.86289  0.44546  1.0000
  C   C383      1.0  0.29275  0.91201  0.25913  1.0000
  H   H390      1.0  0.47518  0.72908  0.29460  1.0000
  C   C384      1.0  0.34447  0.65501  0.25207  1.0000
  Fe  Fe70      1.0  0.46467  0.63346  0.48105  1.0000
  H   H391      1.0  0.46359  0.68155  0.33126  1.0000
  C   C385      1.0  0.20923  0.89198  0.45179  1.0000
  C   C386      1.0  0.40795  0.67441  0.40648  1.0000
  C   C387      1.0  0.39530  0.69101  0.39589  1.0000
  C   C388      1.0  0.39652  0.69364  0.37397  1.0000
  C   C389      1.0  0.41025  0.67948  0.36225  1.0000
  C   C390      1.0  0.42300  0.66296  0.37284  1.0000
  C   C391      1.0  0.42196  0.66048  0.39477  1.0000
  H   H392      1.0  0.38441  0.70191  0.40471  1.0000
  H   H393      1.0  0.38663  0.70646  0.36616  1.0000
  H   H394      1.0  0.43376  0.65195  0.36400  1.0000
  H   H395      1.0  0.43195  0.64776  0.40260  1.0000
  C   C392      1.0  0.46525  0.69319  0.31760  1.0000
  C   C393      1.0  0.23739  0.98146  0.25176  1.0000
  H   H396      1.0  0.49364  0.59041  0.48323  1.0000
  S   S140      1.0  0.42424  0.56459  0.46610  1.0000
  H   H397      1.0  0.31545  0.75279  0.24520  1.0000
  H   H398      1.0  0.29799  0.71535  0.32246  1.0000
  C   C394      1.0  0.17439  0.89639  0.40876  1.0000
  C   C395      1.0  0.18024  0.87985  0.39438  1.0000
  C   C396      1.0  0.19174  0.88523  0.37563  1.0000
  C   C397      1.0  0.19788  0.90722  0.37113  1.0000
  C   C398      1.0  0.19258  0.92364  0.38580  1.0000
  C   C399      1.0  0.18079  0.91833  0.40441  1.0000
  H   H399      1.0  0.17556  0.86278  0.39762  1.0000
  H   H400      1.0  0.19587  0.87235  0.36467  1.0000
  H   H401      1.0  0.19730  0.94071  0.38255  1.0000
  H   H402      1.0  0.30568  0.94109  0.27338  1.0000
  C   C400      1.0  0.45239  0.72154  0.34225  1.0000
  H   H403      1.0  0.13716  0.81462  0.26937  1.0000
  H   H404      1.0  0.48200  0.69047  0.31046  1.0000
  H   H405      1.0  0.30627  0.75000  0.30257  1.0000
  N   N36       1.0  0.14877  0.88694  0.34129  1.0000
  C   C401      1.0  0.13782  0.87817  0.35835  1.0000
  C   C402      1.0  0.15338  0.90918  0.34006  1.0000
  C   C403      1.0  0.13091  0.89185  0.37464  1.0000
  C   C404      1.0  0.14666  0.92334  0.35602  1.0000
  C   C405      1.0  0.13538  0.91458  0.37342  1.0000
  C   C406      1.0  0.15685  0.87237  0.32474  1.0000
  H   H406      1.0  0.13484  0.86043  0.35969  1.0000
  H   H407      1.0  0.16299  0.91596  0.32703  1.0000
  H   H408      1.0  0.12295  0.88478  0.38851  1.0000
  H   H409      1.0  0.15105  0.94080  0.35527  1.0000
  H   H410      1.0  0.13084  0.92519  0.38630  1.0000
  H   H411      1.0  0.14875  0.85587  0.32534  1.0000
  H   H412      1.0  0.15332  0.87994  0.30914  1.0000
  H   H413      1.0  0.17512  0.86961  0.32606  1.0000
  N   N37       1.0  0.38952  0.59303  0.42808  1.0000
  C   C407      1.0  0.37524  0.57959  0.43917  1.0000
  C   C408      1.0  0.38581  0.61557  0.42693  1.0000
  C   C409      1.0  0.35698  0.58872  0.44992  1.0000
  C   C410      1.0  0.36758  0.62526  0.43729  1.0000
  C   C411      1.0  0.35319  0.61173  0.44899  1.0000
  C   C412      1.0  0.40897  0.58348  0.41728  1.0000
  H   H414      1.0  0.37817  0.56170  0.44018  1.0000
  H   H415      1.0  0.39719  0.62627  0.41827  1.0000
  H   H416      1.0  0.36508  0.64324  0.43668  1.0000
  H   H417      1.0  0.41080  0.56524  0.42050  1.0000
  H   H418      1.0  0.40763  0.58645  0.40022  1.0000
  H   H419      1.0  0.42439  0.59117  0.42289  1.0000
  C   C413      1.0  0.31665  0.75435  0.26233  1.0000
  H   H420      1.0  0.41895  0.51809  0.45932  1.0000
  H   H421      1.0  0.18024  0.86022  0.46392  1.0000
  S   S141      1.0  0.44095  0.66252  0.48595  1.0000
  C   C414      1.0  0.45457  0.76080  0.33355  1.0000
  H   H422      1.0  0.45122  0.77809  0.33725  1.0000
  H   H423      1.0  0.15524  0.74529  0.26019  1.0000
  N   N38       1.0  0.20262  0.88566  0.47149  1.0000
  C   C415      1.0  0.00524  0.76507  0.24905  1.0000
  H   H424      1.0  0.35571  0.65652  0.26495  1.0000
  H   H425      1.0  0.07198  0.87929  0.46388  1.0000
  H   H426      1.0  0.46850  0.76848  0.30307  1.0000
  H   H427      1.0  0.44719  0.70840  0.35305  1.0000
  H   H428      1.0  0.45231  0.68884  0.30628  1.0000
  Fe  Fe71      1.0  0.42728  0.60073  0.47533  1.0000
  H   H429      1.0  0.31389  0.71351  0.24687  1.0000
  C   C416      1.0  0.46799  0.73308  0.30966  1.0000
  H   H430      1.0  0.30008  0.90033  0.27037  1.0000
  S   S142      1.0  0.40072  0.62700  0.48010  1.0000
  C   C417      1.0  0.30584  0.73438  0.29446  1.0000
  H   H431      1.0  0.24294  0.97413  0.26638  1.0000
  H   H432      1.0  0.22506  0.94489  0.46098  1.0000
  C   C418      1.0  0.03949  0.86448  0.46219  1.0000
  H   H433      1.0  0.17664  0.77878  0.26946  1.0000
  C   C419      1.0  0.47558  0.74291  0.25020  1.0000
  C   C420      1.0  0.21910  0.92814  0.46395  1.0000
  C   C421      1.0  0.01370  0.91532  0.47252  1.0000
  H   H434      1.0  0.38298  0.57031  0.49045  1.0000
  C   C422      1.0  0.02049  0.85736  0.47332  1.0000
  C   C423      1.0  0.44854  0.74375  0.34758  1.0000
  H   H435      1.0  0.01385  0.77798  0.25698  1.0000
  C   C424      1.0  0.30102  0.71481  0.30579  1.0000
  C   C425      1.0  0.21737  0.91336  0.44767  1.0000
  C   C426      1.0  0.16269  0.83515  0.25538  1.0000
  H   H436      1.0  0.34614  0.57799  0.45921  1.0000
  C   C427      1.0  0.29591  0.93486  0.26078  1.0000
  C   C428      1.0  0.04896  0.93208  0.48191  1.0000
  N   N39       1.0  0.31031  0.73382  0.27355  1.0000
  C   C429      1.0  0.14525  0.81985  0.25496  1.0000
  C   C430      1.0  0.30494  0.69422  0.27417  1.0000
  C   C431      1.0  0.28630  0.94962  0.24625  1.0000
  C   C432      1.0  0.16487  0.75426  0.24841  1.0000
  C   C433      1.0  0.36832  0.51605  0.48381  1.0000
  H   H437      1.0  0.33933  0.61911  0.45755  1.0000
  H   H438      1.0  0.20760  0.88067  0.43900  1.0000
  H   H439      1.0  0.30479  0.67859  0.26604  1.0000
  C   C434      1.0  0.38733  0.50879  0.47296  1.0000
  C   C435      1.0  0.21287  0.92134  0.48409  1.0000
  H   H440      1.0  0.46981  0.70819  0.25697  1.0000
  N   N40       1.0  0.02731  0.92264  0.48772  1.0000
  H   H441      1.0  0.05741  0.92199  0.46977  1.0000
  H   H442      1.0  0.04683  0.94950  0.47598  1.0000
  H   H443      1.0  0.28840  0.96746  0.24745  1.0000
  C   C436      1.0  0.48128  0.72018  0.25030  1.0000
  H   H444      1.0  0.01931  0.91545  0.45640  1.0000
  C   C437      1.0  0.17695  0.77291  0.25362  1.0000
  C   C438      1.0  0.33213  0.63548  0.24999  1.0000
  H   H445      1.0  0.33412  0.75835  0.26602  1.0000
  Fe  Fe72      1.0  0.10748  0.90581  0.49240  1.0000
  C   C439      1.0  0.36690  0.53833  0.49009  1.0000
  Fe  Fe73      1.0  0.15242  0.92448  0.50414  1.0000
  S   S143      1.0  0.17953  0.92769  0.52882  1.0000
  H   H446      1.0  0.37899  0.74938  0.59882  1.0000
  H   H447      1.0  0.29865  0.87970  0.70677  1.0000
  S   S144      1.0  0.11722  0.93767  0.50734  1.0000
  Fe  Fe74      1.0  0.21598  0.86990  0.69425  1.0000
  S   S145      1.0  0.24756  0.88835  0.70054  1.0000
  S   S146      1.0  0.20573  0.84293  0.71797  1.0000
  Fe  Fe75      1.0  0.21336  0.88855  0.64899  1.0000
  S   S147      1.0  0.24511  0.90744  0.65238  1.0000
  S   S148      1.0  0.19015  0.88473  0.62105  1.0000
  Fe  Fe76      1.0  0.25880  0.87648  0.66904  1.0000
  S   S149      1.0  0.29435  0.86278  0.66360  1.0000
  Fe  Fe77      1.0  0.23122  0.91768  0.68383  1.0000
  S   S150      1.0  0.23166  0.95530  0.69096  1.0000
  S   S151      1.0  0.22816  0.85707  0.66348  1.0000
  S   S152      1.0  0.19868  0.89991  0.67967  1.0000
  Fe  Fe78      1.0  0.41123  0.72570  0.69059  1.0000
  S   S153      1.0  0.41158  0.69434  0.67208  1.0000
  S   S154      1.0  0.43484  0.73214  0.71768  1.0000
  Fe  Fe79      1.0  0.36482  0.74103  0.67350  1.0000
  S   S155      1.0  0.36255  0.71021  0.65420  1.0000
  S   S156      1.0  0.33249  0.76242  0.67446  1.0000
  Fe  Fe80      1.0  0.37562  0.69138  0.68224  1.0000
  S   S157      1.0  0.36297  0.65762  0.69349  1.0000
  Fe  Fe81      1.0  0.39844  0.71563  0.64544  1.0000
  S   S158      1.0  0.41169  0.71560  0.61164  1.0000
  S   S159      1.0  0.37574  0.72139  0.70207  1.0000
  S   S160      1.0  0.40026  0.74779  0.66329  1.0000
  Fe  Fe82      1.0  0.42163  0.63875  0.50661  1.0000
  H   H448      1.0  0.36857  0.78460  0.61345  1.0000
  S   S161      1.0  0.40705  0.64356  0.53958  1.0000
  C   C440      1.0  0.32205  0.72605  0.61607  1.0000
  H   H449      1.0  0.34197  0.78831  0.62611  1.0000
  H   H450      1.0  0.34155  0.61887  0.71078  1.0000
  H   H451      1.0  0.03142  0.92726  0.52023  1.0000
  H   H452      1.0  0.33987  0.68942  0.72032  1.0000
  C   C441      1.0  0.35630  0.72244  0.59632  1.0000
  H   H453      1.0  0.11992  0.99791  0.50102  1.0000
  S   S162      1.0  0.44662  0.61051  0.50318  1.0000
  C   C442      1.0  0.35629  0.77651  0.62414  1.0000
  C   C443      1.0  0.21704  0.64804  0.74270  1.0000
  C   C444      1.0  0.41062  0.69509  0.59200  1.0000
  C   C445      1.0  0.40044  0.67451  0.59541  1.0000
  C   C446      1.0  0.39948  0.65910  0.57918  1.0000
  C   C447      1.0  0.40864  0.66396  0.55930  1.0000
  C   C448      1.0  0.41868  0.68463  0.55585  1.0000
  C   C449      1.0  0.41969  0.70001  0.57210  1.0000
  H   H454      1.0  0.39328  0.67044  0.61055  1.0000
  H   H455      1.0  0.39157  0.64324  0.58207  1.0000
  H   H456      1.0  0.42545  0.68891  0.54061  1.0000
  H   H457      1.0  0.42742  0.71595  0.56917  1.0000
  C   C450      1.0  0.30471  0.83482  0.66715  1.0000
  C   C451      1.0  0.32773  0.83040  0.66484  1.0000
  C   C452      1.0  0.33665  0.80853  0.66735  1.0000
  C   C453      1.0  0.32259  0.79065  0.67198  1.0000
  C   C454      1.0  0.29958  0.79510  0.67427  1.0000
  C   C455      1.0  0.29070  0.81698  0.67199  1.0000
  H   H458      1.0  0.33879  0.84400  0.66114  1.0000
  H   H459      1.0  0.35439  0.80555  0.66571  1.0000
  H   H460      1.0  0.28851  0.78149  0.67793  1.0000
  H   H461      1.0  0.27300  0.82003  0.67389  1.0000
  C   C456      1.0  0.17941  0.83495  0.72816  1.0000
  H   H462      1.0  0.28021  0.97311  0.68936  1.0000
  C   C457      1.0  0.03773  0.86833  0.50533  1.0000
  C   C458      1.0  0.17805  0.81510  0.74018  1.0000
  C   C459      1.0  0.01968  0.85929  0.49494  1.0000
  C   C460      1.0  0.33535  0.63309  0.71927  1.0000
  C   C461      1.0  0.34255  0.65456  0.71349  1.0000
  H   H463      1.0  0.44409  0.62722  0.56210  1.0000
  H   H464      1.0  0.19959  0.89490  0.50331  1.0000
  H   H465      1.0  0.33108  0.69741  0.59791  1.0000
  C   C462      1.0  0.23835  0.50718  0.73840  1.0000
  S   S163      1.0  0.07809  0.88838  0.50788  1.0000
  H   H466      1.0  0.47379  0.71975  0.69144  1.0000
  C   C463      1.0  0.32888  0.74688  0.62264  1.0000
  C   C464      1.0  0.23745  0.97272  0.71235  1.0000
  H   H467      1.0  0.45451  0.65980  0.53196  1.0000
  C   C465      1.0  0.41816  0.66831  0.72143  1.0000
  H   H468      1.0  0.03701  0.86972  0.52208  1.0000
  H   H469      1.0  0.41142  0.66055  0.70735  1.0000
  H   H470      1.0  0.48555  0.57014  0.54907  1.0000
  C   C466      1.0  0.46403  0.72886  0.72246  1.0000
  H   H471      1.0  0.35226  0.54404  0.49855  1.0000
  H   H472      1.0  0.32368  0.88545  0.69206  1.0000
  H   H473      1.0  0.36742  0.71287  0.58637  1.0000
  H   H474      1.0  0.31824  0.75612  0.63329  1.0000
  C   C467      1.0  0.24221  0.96420  0.73229  1.0000
  C   C468      1.0  0.30173  0.92866  0.71658  1.0000
  C   C469      1.0  0.18189  0.91584  0.55459  1.0000
  C   C470      1.0  0.16662  0.90054  0.56290  1.0000
  C   C471      1.0  0.16945  0.89133  0.58320  1.0000
  C   C472      1.0  0.18747  0.89730  0.59560  1.0000
  C   C473      1.0  0.20273  0.91262  0.58730  1.0000
  C   C474      1.0  0.19996  0.92174  0.56695  1.0000
  H   H475      1.0  0.15262  0.89579  0.55371  1.0000
  H   H476      1.0  0.15748  0.87955  0.58935  1.0000
  H   H477      1.0  0.21669  0.91741  0.59652  1.0000
  H   H478      1.0  0.21191  0.93353  0.56078  1.0000
  C   C475      1.0  0.33590  0.71378  0.60282  1.0000
  N   N41       1.0  0.34894  0.75523  0.61618  1.0000
  C   C476      1.0  0.49772  0.60190  0.53802  1.0000
  C   C477      1.0  0.36270  0.74321  0.60336  1.0000
  C   C478      1.0  0.46890  0.65750  0.54251  1.0000
  C   C479      1.0  0.29338  0.95026  0.71268  1.0000
  H   H479      1.0  0.40698  0.70466  0.74295  1.0000
  H   H480      1.0  0.24242  0.94636  0.73517  1.0000
  C   C480      1.0  0.33442  0.67282  0.72456  1.0000
  H   H481      1.0  0.48307  0.66693  0.53562  1.0000
  H   H482      1.0  0.42492  0.68478  0.71651  1.0000
  H   H483      1.0  0.30638  0.71929  0.62165  1.0000
  N   N42       1.0  0.17154  0.83602  0.65292  1.0000
  C   C481      1.0  0.18464  0.83003  0.63630  1.0000
  C   C482      1.0  0.17506  0.82653  0.67218  1.0000
  C   C483      1.0  0.20169  0.81402  0.63874  1.0000
  C   C484      1.0  0.19199  0.81055  0.67522  1.0000
  C   C485      1.0  0.20540  0.80429  0.65838  1.0000
  C   C486      1.0  0.15451  0.85367  0.65055  1.0000
  H   H484      1.0  0.18233  0.83803  0.62113  1.0000
  H   H485      1.0  0.16501  0.83161  0.68541  1.0000
  H   H486      1.0  0.21236  0.80975  0.62563  1.0000
  H   H487      1.0  0.19510  0.80368  0.69073  1.0000
  H   H488      1.0  0.21898  0.79237  0.66067  1.0000
  H   H489      1.0  0.16094  0.86951  0.65654  1.0000
  H   H490      1.0  0.15019  0.85675  0.63394  1.0000
  H   H491      1.0  0.13902  0.84923  0.65922  1.0000
  N   N43       1.0  0.30440  0.91401  0.70071  1.0000
  C   C487      1.0  0.29821  0.92007  0.68093  1.0000
  C   C488      1.0  0.18730  0.99962  0.72770  1.0000
  C   C489      1.0  0.28955  0.94142  0.67654  1.0000
  C   C490      1.0  0.23737  0.99602  0.70902  1.0000
  C   C491      1.0  0.28734  0.95664  0.69250  1.0000
  H   H492      1.0  0.21393  0.93273  0.49691  1.0000
  H   H493      1.0  0.29975  0.90832  0.66842  1.0000
  C   C492      1.0  0.48249  0.58800  0.54823  1.0000
  H   H494      1.0  0.28409  0.94598  0.66095  1.0000
  H   H495      1.0  0.12434  0.84960  0.72912  1.0000
  H   H496      1.0  0.32283  0.89028  0.71944  1.0000
  H   H497      1.0  0.46442  0.66481  0.55777  1.0000
  H   H498      1.0  0.43213  0.65785  0.72754  1.0000
  C   C493      1.0  0.02045  0.92192  0.50813  1.0000
  C   C494      1.0  0.31974  0.66953  0.74161  1.0000
  C   C495      1.0  0.45929  0.62022  0.55544  1.0000
  C   C496      1.0  0.31281  0.89131  0.70506  1.0000
  C   C497      1.0  0.46316  0.59719  0.55707  1.0000
  C   C498      1.0  0.15997  0.84745  0.72434  1.0000
  C   C499      1.0  0.19721  0.66048  0.74290  1.0000
  H   H499      1.0  0.39047  0.63682  0.73446  1.0000
  N   N44       1.0  0.47415  0.63367  0.54510  1.0000
  C   C500      1.0  0.47947  0.72276  0.70700  1.0000
  H   H500      1.0  0.45100  0.58657  0.56481  1.0000
  C   C501      1.0  0.32045  0.62981  0.73617  1.0000
  H   H501      1.0  0.16082  0.86287  0.71530  1.0000
  H   H502      1.0  0.30593  0.92369  0.73240  1.0000
  H   H503      1.0  0.36409  0.77364  0.63956  1.0000
  H   H504      1.0  0.18340  0.99540  0.69469  1.0000
  H   H505      1.0  0.00521  0.85370  0.50367  1.0000
  C   C502      1.0  0.38814  0.65228  0.74269  1.0000
  H   H506      1.0  0.29109  0.96185  0.72528  1.0000
  H   H507      1.0  0.19017  0.98192  0.73064  1.0000
  C   C503      1.0  0.13934  0.83990  0.73220  1.0000
  N   N45       1.0  0.40061  0.67045  0.73735  1.0000
  H   H508      1.0  0.21700  0.63067  0.73841  1.0000
  C   C504      1.0  0.49321  0.62482  0.53649  1.0000
  H   H509      1.0  0.31527  0.61316  0.74062  1.0000
  C   C505      1.0  0.26121  0.51117  0.73922  1.0000
  H   H510      1.0  0.18170  0.65278  0.73885  1.0000
  C   C506      1.0  0.47194  0.73278  0.74256  1.0000
  H   H511      1.0  0.19303  0.80538  0.74328  1.0000
  C   C507      1.0  0.13797  0.81990  0.74400  1.0000
  H   H512      1.0  0.06043  0.93200  0.49536  1.0000
  C   C508      1.0  0.05658  0.87578  0.49420  1.0000
  C   C509      1.0  0.02033  0.76745  0.81841  1.0000
  Fe  Fe83      1.0  0.07319  0.83226  0.96288  1.0000
  S   S164      1.0  0.11166  0.81122  0.75366  1.0000
  S   S165      1.0  0.09317  0.81366  0.93753  1.0000
  H   H513      1.0  0.41238  0.55054  0.91711  1.0000
  S   S166      1.0  0.06896  0.91547  0.98638  1.0000
  H   H514      1.0  0.05404  0.97551  0.96273  1.0000
  S   S167      1.0  0.04948  0.86113  0.95676  1.0000
  H   H515      1.0  0.18559  0.65148  0.84425  1.0000
  C   C510      1.0  0.47571  0.59767  0.98194  1.0000
  Fe  Fe84      1.0  0.34298  0.56019  0.96006  1.0000
  C   C511      1.0  0.09243  0.93270  0.98383  1.0000
  S   S168      1.0  0.33509  0.57841  0.92884  1.0000
  Fe  Fe85      1.0  0.06632  0.87784  0.98320  1.0000
  C   C512      1.0  0.43881  0.58166  0.98669  1.0000
  S   S169      1.0  0.37138  0.53516  0.96176  1.0000
  Fe  Fe86      1.0  0.26636  0.58175  0.81725  1.0000
  S   S170      1.0  0.23830  0.56661  0.79945  1.0000
  S   S171      1.0  0.27115  0.56674  0.85037  1.0000
  Fe  Fe87      1.0  0.27803  0.61270  0.77985  1.0000
  S   S172      1.0  0.25164  0.59887  0.75969  1.0000
  S   S173      1.0  0.29571  0.64467  0.77009  1.0000
  Fe  Fe88      1.0  0.22969  0.60186  0.78832  1.0000
  S   S174      1.0  0.19402  0.61622  0.78525  1.0000
  Fe  Fe89      1.0  0.26238  0.56483  0.77223  1.0000
  H   H516      1.0  0.37751  0.70808  0.76991  1.0000
  S   S175      1.0  0.25561  0.61684  0.80811  1.0000
  S   S176      1.0  0.29079  0.57878  0.79050  1.0000
  Fe  Fe90      1.0  0.10534  0.77975  0.77324  1.0000
  S   S177      1.0  0.10475  0.74456  0.76193  1.0000
  C   C513      1.0  0.36774  0.67376  0.76809  1.0000
  Fe  Fe91      1.0  0.08659  0.76689  0.81684  1.0000
  S   S178      1.0  0.08471  0.73058  0.80847  1.0000
  S   S179      1.0  0.06982  0.78409  0.84485  1.0000
  Fe  Fe92      1.0  0.11887  0.73478  0.79341  1.0000
  S   S180      1.0  0.15141  0.71412  0.79873  1.0000
  Fe  Fe93      1.0  0.07070  0.74288  0.77750  1.0000
  S   S181      1.0  0.04029  0.72617  0.76320  1.0000
  S   S182      1.0  0.12129  0.77066  0.80373  1.0000
  S   S183      1.0  0.07065  0.77849  0.78683  1.0000
  C   C514      1.0  0.12881  0.96191  0.98058  1.0000
  C   C515      1.0  0.38052  0.69223  0.76254  1.0000
  C   C516      1.0  0.00335  0.76805  0.80383  1.0000
  H   H517      1.0  0.15662  0.79221  0.75720  1.0000
  C   C517      1.0  0.43193  0.59619  0.93795  1.0000
  H   H518      1.0  0.36924  0.61101  0.94130  1.0000
  H   H519      1.0  0.24641  0.62542  0.88360  1.0000
  N   N46       1.0  0.22486  0.61376  0.86006  1.0000
  C   C518      1.0  0.18250  0.64351  0.78939  1.0000
  C   C519      1.0  0.16017  0.64808  0.78407  1.0000
  C   C520      1.0  0.15034  0.66944  0.78682  1.0000
  C   C521      1.0  0.16264  0.68658  0.79519  1.0000
  C   C522      1.0  0.18491  0.68191  0.80075  1.0000
  C   C523      1.0  0.19482  0.66063  0.79779  1.0000
  H   H520      1.0  0.15039  0.63503  0.77763  1.0000
  H   H521      1.0  0.13322  0.67261  0.78248  1.0000
  H   H522      1.0  0.19463  0.69498  0.80725  1.0000
  H   H523      1.0  0.21199  0.65749  0.80197  1.0000
  H   H524      1.0  0.26010  0.61388  0.86091  1.0000
  H   H525      1.0  0.08537  0.95733  0.94367  1.0000
  C   C524      1.0  0.21385  0.63382  0.85775  1.0000
  N   N47       1.0  0.41646  0.58061  0.93352  1.0000
  C   C525      1.0  0.49485  0.73077  0.74717  1.0000
  H   H526      1.0  0.16533  0.82448  0.80011  1.0000
  C   C526      1.0  0.24561  0.61229  0.87178  1.0000
  H   H527      1.0  0.46024  0.73760  0.75466  1.0000
  C   C527      1.0  0.19788  0.59649  0.83874  1.0000
  H   H528      1.0  0.42315  0.54721  0.94309  1.0000
  C   C528      1.0  0.21726  0.59528  0.85052  1.0000
  C   C529      1.0  0.31743  0.57441  0.90703  1.0000
  C   C530      1.0  0.31919  0.58899  0.88953  1.0000
  C   C531      1.0  0.30553  0.58675  0.87197  1.0000
  C   C532      1.0  0.28971  0.56992  0.87166  1.0000
  C   C533      1.0  0.28785  0.55543  0.88919  1.0000
  C   C534      1.0  0.30165  0.55755  0.90668  1.0000
  H   H529      1.0  0.33127  0.60214  0.88954  1.0000
  H   H530      1.0  0.30723  0.59809  0.85872  1.0000
  H   H531      1.0  0.27568  0.54237  0.88925  1.0000
  H   H532      1.0  0.29996  0.54621  0.91993  1.0000
  C   C535      1.0  0.46132  0.57956  0.98072  1.0000
  C   C536      1.0  0.12978  0.82973  0.80262  1.0000
  S   S184      1.0  0.27246  0.53398  0.75291  1.0000
  Fe  Fe94      1.0  0.35172  0.51747  0.98686  1.0000
  C   C537      1.0  0.42358  0.55781  0.92866  1.0000
  Fe  Fe95      1.0  0.38437  0.55551  0.98774  1.0000
  S   S185      1.0  0.05085  0.81492  0.98668  1.0000
  H   H533      1.0  0.17133  0.61791  0.82743  1.0000
  H   H534      1.0  0.19217  0.58197  0.83076  1.0000
  H   H535      1.0  0.02286  0.77140  0.75261  1.0000
  C   C538      1.0  0.02106  0.72731  0.81726  1.0000
  C   C539      1.0  0.06416  0.98521  0.95183  1.0000
  C   C540      1.0  0.08613  0.80527  0.91192  1.0000
  C   C541      1.0  0.06547  0.81036  0.90302  1.0000
  C   C542      1.0  0.06078  0.80352  0.88265  1.0000
  C   C543      1.0  0.07659  0.79143  0.87084  1.0000
  C   C544      1.0  0.09725  0.78629  0.87971  1.0000
  C   C545      1.0  0.10196  0.79320  0.90006  1.0000
  H   H536      1.0  0.05309  0.81962  0.91183  1.0000
  H   H537      1.0  0.04475  0.80770  0.87604  1.0000
  H   H538      1.0  0.10958  0.77690  0.87098  1.0000
  H   H539      1.0  0.11796  0.78905  0.90676  1.0000
  C   C546      1.0  0.39423  0.58581  0.93470  1.0000
  H   H540      1.0  0.38195  0.57340  0.93142  1.0000
  C   C547      1.0  0.08175  0.97498  0.94111  1.0000
  C   C548      1.0  0.13121  0.93955  0.97477  1.0000
  H   H541      1.0  0.11499  0.90785  0.97160  1.0000
  Fe  Fe96      1.0  0.02821  0.84502  0.98173  1.0000
  C   C549      1.0  0.13399  0.81729  0.84422  1.0000
  H   H542      1.0  0.46780  0.56370  0.97545  1.0000
  H   H543      1.0  0.25626  0.70754  0.76303  1.0000
  H   H544      1.0  0.14715  0.93351  0.96897  1.0000
  C   C550      1.0  0.42527  0.61769  0.94360  1.0000
  H   H545      1.0  0.44956  0.59194  0.93764  1.0000
  H   H546      1.0  0.39719  0.63960  0.94956  1.0000
  H   H547      1.0  0.26193  0.68182  0.77743  1.0000
  H   H548      1.0  0.09863  0.82274  0.84602  1.0000
  H   H549      1.0  0.16904  0.81298  0.83749  1.0000
  H   H550      1.0  0.22021  0.64863  0.86474  1.0000
  H   H551      1.0  0.08860  0.83025  0.78989  1.0000
  H   H552      1.0  0.02847  0.71149  0.82221  1.0000
  H   H553      1.0  0.08531  0.85193  0.80883  1.0000
  H   H554      1.0  0.24718  0.59592  0.88021  1.0000
  C   C551      1.0  0.08925  0.83399  0.80675  1.0000
  C   C552      1.0  0.19427  0.63556  0.84624  1.0000
  C   C553      1.0  0.18622  0.61671  0.83681  1.0000
  H   H555      1.0  0.21691  0.70871  0.76108  1.0000
  H   H556      1.0  0.25089  0.97196  0.76381  1.0000
  C   C554      1.0  0.24695  0.97879  0.74854  1.0000
  H   H557      1.0  0.22628  0.57950  0.85184  1.0000
  H   H558      1.0  0.07618  0.82381  0.81468  1.0000
  S   S186      1.0  0.42219  0.55770  0.98655  1.0000
  S   S187      1.0  0.35727  0.58172  0.98490  1.0000
  H   H559      1.0  0.12836  0.83490  0.78641  1.0000
  C   C555      1.0  0.09501  0.98766  0.92751  1.0000
  H   H560      1.0  0.43761  0.62984  0.94756  1.0000
  H   H561      1.0  0.13533  0.81251  0.86057  1.0000
  S   S188      1.0  0.15188  0.97980  0.97886  1.0000
  H   H562      1.0  0.00422  0.70357  0.74425  1.0000
  H   H563      1.0  0.49310  0.59572  0.97760  1.0000
  N   N48       1.0  0.23666  0.67954  0.75499  1.0000
  H   H564      1.0  0.27127  0.68519  0.75082  1.0000
  C   C556      1.0  0.11304  0.92499  0.97625  1.0000
  C   C557      1.0  0.02923  0.74698  0.82523  1.0000
  C   C558      1.0  0.15287  0.81763  0.83129  1.0000
  C   C559      1.0  0.46766  0.61815  0.98899  1.0000
  C   C560      1.0  0.39712  0.69022  0.74716  1.0000
  H   H565      1.0  0.36136  0.63933  0.76199  1.0000
  C   C561      1.0  0.43059  0.60225  0.99338  1.0000
  H   H566      1.0  0.50045  0.73407  0.76266  1.0000
  C   C562      1.0  0.15081  0.82406  0.81037  1.0000
  C   C563      1.0  0.38696  0.60712  0.94030  1.0000
  H   H567      1.0  0.35449  0.67512  0.77967  1.0000
  H   H568      1.0  0.44076  0.55732  0.92202  1.0000
  S   S189      1.0  0.32204  0.54088  0.98343  1.0000
  H   H569      1.0  0.10914  0.97996  0.91959  1.0000
  C   C564      1.0  0.40261  0.62312  0.94486  1.0000
  S   S190      1.0  0.09173  0.85033  0.98788  1.0000
  N   N49       1.0  0.11125  0.82847  0.81521  1.0000
  C   C565      1.0  0.11322  0.82297  0.83589  1.0000
  C   C566      1.0  0.37165  0.65360  0.75822  1.0000
  C   C567      1.0  0.15744  0.80759  0.74808  1.0000
  C   C568      1.0  0.25747  0.68912  0.76194  1.0000
  H   H570      1.0  0.02682  0.78281  0.82429  1.0000
  H   H571      1.0  0.04261  0.74638  0.83641  1.0000
  H   H572      1.0  0.19891  0.98887  0.76536  1.0000
  N   N50       1.0  0.00420  0.72802  0.80317  1.0000
  C   C569      1.0  0.21721  0.69179  0.75552  1.0000
  H   H573      1.0  0.31407  0.68371  0.75041  1.0000
  H   H574      1.0  0.00970  0.69786  0.78731  1.0000
  C   C570      1.0  0.01615  0.73655  0.74973  1.0000
  C   C571      1.0  0.31282  0.64802  0.74759  1.0000
  C   C572      1.0  0.10816  0.96957  0.98804  1.0000
  S   S191      1.0  0.48554  0.64090  0.99181  1.0000
  C   C573      1.0  0.09015  0.95498  0.98979  1.0000
  H   H575      1.0  0.22670  0.51857  0.74576  1.0000
  C   C574      1.0  0.01131  0.75935  0.74706  1.0000
  H   H576      1.0  0.18174  0.69206  0.75027  1.0000
  C   C575      1.0  0.19724  0.68251  0.74931  1.0000
  C   C576      1.0  0.23675  0.65790  0.74882  1.0000
  H   H577      1.0  0.10610  0.98672  0.99259  1.0000
  H   H578      1.0  0.25212  0.64809  0.74885  1.0000
  C   C577      1.0  0.24653  0.00212  0.74530  1.0000
  Fe  Fe97      1.0  0.92523  0.13483  0.01477  1.0000
  S   S192      1.0  0.90892  0.14215  0.04670  1.0000
  C   C578      1.0  0.96517  0.20289  0.14907  1.0000
  S   S193      1.0  0.95036  0.10669  0.01147  1.0000
  S   S194      1.0  0.62328  0.44504  0.02094  1.0000
  Fe  Fe98      1.0  0.65225  0.42124  0.01701  1.0000
  S   S195      1.0  0.68008  0.41569  0.04092  1.0000
  Fe  Fe99      1.0  0.87834  0.24339  0.18556  1.0000
  S   S196      1.0  0.86778  0.21760  0.16297  1.0000
  S   S197      1.0  0.85424  0.27100  0.19748  1.0000
  Fe  Fe100     1.0  0.92104  0.21567  0.19822  1.0000
  S   S198      1.0  0.91226  0.18805  0.17661  1.0000
  S   S199      1.0  0.95189  0.20753  0.21865  1.0000
  Fe  Fe101     1.0  0.90387  0.21491  0.15293  1.0000
  S   S200      1.0  0.91791  0.21326  0.11933  1.0000
  Fe  Fe102     1.0  0.87696  0.19245  0.18811  1.0000
  S   S201      1.0  0.85316  0.16367  0.19323  1.0000
  S   S202      1.0  0.91436  0.24280  0.17392  1.0000
  S   S203      1.0  0.88590  0.21790  0.21127  1.0000
  Fe  Fe103     1.0  0.71138  0.38851  0.16433  1.0000
  S   S204      1.0  0.74600  0.40233  0.16440  1.0000
  S   S205      1.0  0.68462  0.39163  0.13888  1.0000
  Fe  Fe104     1.0  0.71674  0.36892  0.20867  1.0000
  S   S206      1.0  0.75164  0.38177  0.21139  1.0000
  H   H579      1.0  0.81134  0.43563  0.16917  1.0000
  Fe  Fe105     1.0  0.73788  0.41384  0.19713  1.0000
  S   S207      1.0  0.75005  0.44845  0.20712  1.0000
  Fe  Fe106     1.0  0.75698  0.36913  0.17901  1.0000
  S   S208      1.0  0.78837  0.35070  0.16635  1.0000
  S   S209      1.0  0.70266  0.40165  0.19635  1.0000
  S   S210      1.0  0.72273  0.35470  0.17698  1.0000
  C   C579      1.0  0.83506  0.29204  0.18792  1.0000
  C   C580      1.0  0.81917  0.30125  0.20179  1.0000
  C   C581      1.0  0.80422  0.31852  0.19533  1.0000
  C   C582      1.0  0.80522  0.32728  0.17492  1.0000
  C   C583      1.0  0.82107  0.31803  0.16105  1.0000
  C   C584      1.0  0.83569  0.30042  0.16738  1.0000
  H   H580      1.0  0.81847  0.29506  0.21773  1.0000
  H   H581      1.0  0.79225  0.32536  0.20628  1.0000
  H   H582      1.0  0.82218  0.32464  0.14526  1.0000
  H   H583      1.0  0.84782  0.29376  0.15649  1.0000
  H   H584      1.0  0.65600  0.45231  0.07673  1.0000
  H   H585      1.0  0.68061  0.36516  0.04176  1.0000
  C   C585      1.0  0.84052  0.15728  0.21756  1.0000
  H   H586      1.0  0.79264  0.43798  0.22287  1.0000
  H   H587      1.0  0.81149  0.37024  0.23786  1.0000
  C   C586      1.0  0.79864  0.42179  0.21785  1.0000
  C   C587      1.0  0.72258  0.46811  0.23781  1.0000
  H   H588      1.0  0.83172  0.23005  0.19804  1.0000
  H   H589      1.0  0.72094  0.39663  0.01819  1.0000
  N   N51       1.0  0.66338  0.48920  0.03664  1.0000
  H   H590      1.0  0.78177  0.43330  0.17438  1.0000
  N   N52       1.0  0.80240  0.41795  0.19717  1.0000
  C   C588      1.0  0.87008  0.11218  0.23978  1.0000
  H   H591      1.0  0.69663  0.49483  0.02607  1.0000
  N   N53       1.0  0.87593  0.17632  0.01155  1.0000
  C   C589      1.0  0.82239  0.14277  0.21842  1.0000
  C   C590      1.0  0.64363  0.50085  0.03789  1.0000
  C   C591      1.0  0.67948  0.49436  0.01992  1.0000
  C   C592      1.0  0.97759  0.16705  0.17461  1.0000
  H   H592      1.0  0.97369  0.25154  0.21848  1.0000
  C   C593      1.0  0.88476  0.18867  0.02692  1.0000
  C   C594      1.0  0.74143  0.46987  0.22481  1.0000
  C   C595      1.0  0.98066  0.22932  0.17316  1.0000
  H   H593      1.0  0.79124  0.20680  0.18134  1.0000
  H   H594      1.0  0.99102  0.19173  0.19422  1.0000
  C   C596      1.0  0.81250  0.13649  0.23764  1.0000
  H   H595      1.0  0.88536  0.02290  0.03830  1.0000
  C   C597      1.0  0.66193  0.34107  0.22446  1.0000
  N   N54       1.0  0.66805  0.27332  0.22534  1.0000
  H   H596      1.0  0.83635  0.08365  0.20851  1.0000
  H   H597      1.0  0.52038  0.41282  0.00735  1.0000
  C   C598      1.0  0.68081  0.40913  0.06822  1.0000
  C   C599      1.0  0.70147  0.40881  0.07834  1.0000
  C   C600      1.0  0.70302  0.40359  0.09986  1.0000
  C   C601      1.0  0.68388  0.39854  0.11163  1.0000
  C   C602      1.0  0.66322  0.39887  0.10146  1.0000
  C   C603      1.0  0.66166  0.40411  0.07994  1.0000
  H   H598      1.0  0.71644  0.41268  0.06953  1.0000
  H   H599      1.0  0.71902  0.40343  0.10738  1.0000
  H   H600      1.0  0.64830  0.39496  0.11034  1.0000
  H   H601      1.0  0.64564  0.40416  0.07248  1.0000
  C   C604      1.0  0.81295  0.37999  0.20542  1.0000
  H   H602      1.0  0.95071  0.01668  0.01230  1.0000
  C   C605      1.0  0.64113  0.33080  0.22651  1.0000
  C   C606      1.0  0.89854  0.01278  0.03144  1.0000
  C   C607      1.0  0.91273  0.16150  0.06709  1.0000
  C   C608      1.0  0.92738  0.17934  0.06520  1.0000
  C   C609      1.0  0.92871  0.19493  0.08129  1.0000
  C   C610      1.0  0.91564  0.19284  0.09963  1.0000
  C   C611      1.0  0.90124  0.17481  0.10165  1.0000
  C   C612      1.0  0.89971  0.15940  0.08544  1.0000
  H   H603      1.0  0.93754  0.18127  0.05125  1.0000
  H   H604      1.0  0.93995  0.20875  0.07950  1.0000
  H   H605      1.0  0.89103  0.17291  0.11556  1.0000
  H   H606      1.0  0.88823  0.14576  0.08715  1.0000
  C   C613      1.0  0.62770  0.49530  0.05316  1.0000
  H   H607      1.0  0.62866  0.33392  0.21476  1.0000
  C   C614      1.0  0.98406  0.23964  0.22695  1.0000
  H   H608      1.0  0.80139  0.17892  0.18827  1.0000
  C   C615      1.0  0.97708  0.21759  0.22968  1.0000
  H   H609      1.0  0.66545  0.35200  0.21120  1.0000
  H   H610      1.0  0.98207  0.15327  0.18505  1.0000
  H   H611      1.0  0.90868  0.05603  0.02615  1.0000
  C   C616      1.0  0.90049  0.20499  0.02212  1.0000
  C   C617      1.0  0.65240  0.46611  0.06598  1.0000
  H   H612      1.0  0.52288  0.33505  0.02586  1.0000
  C   C618      1.0  0.66785  0.47199  0.05038  1.0000
  H   H613      1.0  0.91960  0.22099  0.99751  1.0000
  N   N55       1.0  0.80997  0.20451  0.20903  1.0000
  H   H614      1.0  0.95969  0.21685  0.13925  1.0000
  C   C619      1.0  0.63660  0.31610  0.24333  1.0000
  C   C620      1.0  0.51350  0.38076  0.99468  1.0000
  C   C621      1.0  0.79969  0.19470  0.22596  1.0000
  C   C622      1.0  0.80532  0.19696  0.18805  1.0000
  H   H615      1.0  0.84929  0.04051  0.99882  1.0000
  H   H616      1.0  0.63754  0.25561  0.22661  1.0000
  H   H617      1.0  0.81614  0.13614  0.20418  1.0000
  C   C623      1.0  0.66288  0.28449  0.20540  1.0000
  C   C624      1.0  0.86035  0.15851  0.01704  1.0000
  H   H618      1.0  0.71250  0.45340  0.23728  1.0000
  H   H619      1.0  0.51229  0.29573  0.02576  1.0000
  H   H620      1.0  0.67871  0.48152  0.00780  1.0000
  H   H621      1.0  0.67324  0.34793  0.00386  1.0000
  N   N56       1.0  0.91868  0.02188  0.02635  1.0000
  H   H622      1.0  0.69944  0.28907  0.22808  1.0000
  C   C625      1.0  0.71068  0.38856  0.00696  1.0000
  H   H623      1.0  0.82022  0.19883  0.17769  1.0000
  C   C626      1.0  0.55082  0.39475  0.00047  1.0000
  H   H624      1.0  0.96186  0.14646  0.15226  1.0000
  C   C627      1.0  0.50336  0.35931  0.04243  1.0000
  H   H625      1.0  0.98370  0.24044  0.15938  1.0000
  C   C628      1.0  0.80918  0.38374  0.22651  1.0000
  H   H626      1.0  0.90771  0.21442  0.03446  1.0000
  H   H627      1.0  0.95084  0.17856  0.12927  1.0000
  H   H628      1.0  0.84885  0.15547  0.00407  1.0000
  Fe  Fe107     1.0  0.60418  0.42118  0.00158  1.0000
  C   C629      1.0  0.84847  0.16578  0.23602  1.0000
  C   C630      1.0  0.84340  0.08948  0.22278  1.0000
  C   C631      1.0  0.98267  0.18888  0.17970  1.0000
  C   C632      1.0  0.96623  0.16325  0.15629  1.0000
  S   S211      1.0  0.56759  0.41628  0.00946  1.0000
  C   C633      1.0  0.68396  0.36150  0.99899  1.0000
  H   H629      1.0  0.79783  0.45243  0.18860  1.0000
  N   N57       1.0  0.97649  0.20645  0.16696  1.0000
  N   N58       1.0  0.83427  0.08345  0.24169  1.0000
  H   H630      1.0  0.70924  0.37178  0.04440  1.0000
  H   H631      1.0  0.93791  0.05159  0.02340  1.0000
  S   S212      1.0  0.70504  0.34822  0.23685  1.0000
  H   H632      1.0  0.78272  0.01167  0.21673  1.0000
  C   C634      1.0  0.99091  0.20260  0.24105  1.0000
  C   C635      1.0  0.79824  0.43569  0.18154  1.0000
  C   C636      1.0  0.63217  0.47780  0.06729  1.0000
  H   H633      1.0  0.67219  0.30027  0.20327  1.0000
  C   C637      1.0  0.80913  0.39728  0.19084  1.0000
  C   C638      1.0  0.80190  0.40475  0.23281  1.0000
  C   C639      1.0  0.90717  0.20862  0.00145  1.0000
  C   C640      1.0  0.86148  0.10387  0.22154  1.0000
  H   H634      1.0  0.79870  0.12514  0.23816  1.0000
  H   H635      1.0  0.51622  0.37181  0.04154  1.0000
  H   H636      1.0  0.78856  0.18089  0.22405  1.0000
  H   H637      1.0  0.61989  0.47314  0.07909  1.0000
  H   H638      1.0  0.68334  0.46250  0.04920  1.0000
  H   H639      1.0  0.88008  0.18554  0.04309  1.0000
  C   C641      1.0  0.52756  0.39752  0.00145  1.0000
  C   C642      1.0  0.93500  0.00931  0.01693  1.0000
  C   C643      1.0  0.82393  0.22196  0.21149  1.0000
  H   H640      1.0  0.66725  0.27337  0.19237  1.0000
  H   H641      1.0  0.50669  0.23362  0.19682  1.0000
  H   H642      1.0  0.86241  0.17696  0.23555  1.0000
  H   H643      1.0  0.81321  0.05893  0.22878  1.0000
  C   C644      1.0  0.75420  0.48932  0.22588  1.0000
  H   H644      1.0  0.86981  0.14285  0.02070  1.0000
  H   H645      1.0  0.81125  0.39389  0.17440  1.0000
  C   C645      1.0  0.96006  0.18125  0.14336  1.0000
  H   H646      1.0  0.81825  0.36364  0.20026  1.0000
  H   H647      1.0  0.92468  0.04666  0.04850  1.0000
  C   C646      1.0  0.82859  0.22949  0.23135  1.0000
  C   C647      1.0  0.69744  0.36269  0.03465  1.0000
  H   H648      1.0  0.99547  0.23000  0.18330  1.0000
  C   C648      1.0  0.68788  0.27705  0.23477  1.0000
  H   H649      1.0  0.85007  0.16283  0.03093  1.0000
  C   C649      1.0  0.67822  0.33695  0.23942  1.0000
  H   H650      1.0  0.76879  0.49106  0.21597  1.0000
  H   H651      1.0  0.86817  0.10934  0.20651  1.0000
  S   S213      1.0  0.63240  0.39605  0.99975  1.0000
  H   H652      1.0  0.64486  0.28904  0.20471  1.0000
  H   H653      1.0  0.70211  0.34471  0.03536  1.0000
  C   C650      1.0  0.81460  0.06938  0.24273  1.0000
  H   H654      1.0  0.59635  0.49224  0.00796  1.0000
  H   H655      1.0  0.83995  0.24318  0.23314  1.0000
  H   H656      1.0  0.96599  0.23579  0.18202  1.0000
  C   C651      1.0  0.65336  0.25844  0.23395  1.0000
  C   C652      1.0  0.92274  0.04513  0.03146  1.0000
  H   H657      1.0  0.88352  0.12404  0.23897  1.0000
  C   C653      1.0  0.50708  0.33845  0.03364  1.0000
  N   N59       1.0  0.69752  0.37109  0.01300  1.0000
  H   H658      1.0  0.98583  0.18551  0.24338  1.0000
  H   H659      1.0  0.79926  0.07990  0.24400  1.0000
  Fe  Fe108     1.0  0.56004  0.37799  0.47940  1.0000
  C   C654      1.0  0.99056  0.05053  0.48751  1.0000
  S   S214      1.0  0.87738  0.04539  0.46333  1.0000
  C   C655      1.0  0.61377  0.32773  0.33443  1.0000
  C   C656      1.0  0.55933  0.25487  0.41998  1.0000
  Fe  Fe109     1.0  0.84417  0.06331  0.46018  1.0000
  S   S215      1.0  0.83698  0.08013  0.42829  1.0000
  S   S216      1.0  0.82496  0.03633  0.47678  1.0000
  H   H660      1.0  0.79648  0.19332  0.25950  1.0000
  H   H661      1.0  0.55289  0.23870  0.42599  1.0000
  C   C657      1.0  0.80401  0.20174  0.24607  1.0000
  H   H662      1.0  0.95586  0.04145  0.48835  1.0000
  S   S217      1.0  0.54494  0.35849  0.45385  1.0000
  Fe  Fe110     1.0  0.56887  0.33098  0.46286  1.0000
  S   S218      1.0  0.58706  0.30900  0.43888  1.0000
  C   C658      1.0  0.67337  0.32292  0.25668  1.0000
  H   H663      1.0  0.69292  0.06755  0.32760  1.0000
  S   S219      1.0  0.99768  0.11352  0.46396  1.0000
  Fe  Fe111     1.0  0.58256  0.27094  0.31507  1.0000
  S   S220      1.0  0.57890  0.23399  0.31024  1.0000
  S   S221      1.0  0.56911  0.29197  0.34237  1.0000
  Fe  Fe112     1.0  0.60088  0.27806  0.27030  1.0000
  S   S222      1.0  0.59833  0.24192  0.26270  1.0000
  C   C659      1.0  0.84246  0.09172  0.25963  1.0000
  Fe  Fe113     1.0  0.56450  0.24386  0.27860  1.0000
  H   H664      1.0  0.60540  0.35526  0.25538  1.0000
  Fe  Fe114     1.0  0.61305  0.23507  0.29442  1.0000
  S   S223      1.0  0.64624  0.21572  0.30055  1.0000
  S   S224      1.0  0.56650  0.28040  0.28438  1.0000
  S   S225      1.0  0.61718  0.27176  0.30105  1.0000
  Fe  Fe115     1.0  0.76458  0.08100  0.32162  1.0000
  S   S226      1.0  0.73642  0.06956  0.30151  1.0000
  S   S227      1.0  0.76692  0.06664  0.35517  1.0000
  Fe  Fe116     1.0  0.78247  0.11106  0.28643  1.0000
  S   S228      1.0  0.75607  0.10174  0.26408  1.0000
  S   S229      1.0  0.81027  0.13584  0.28075  1.0000
  Fe  Fe117     1.0  0.73226  0.10589  0.29133  1.0000
  S   S230      1.0  0.69693  0.12129  0.28737  1.0000
  Fe  Fe118     1.0  0.76203  0.06613  0.27567  1.0000
  C   C660      1.0  0.71664  0.48549  0.25149  1.0000
  S   S231      1.0  0.75848  0.11725  0.31315  1.0000
  S   S232      1.0  0.79031  0.07558  0.29638  1.0000
  H   H665      1.0  0.53401  0.26720  0.38763  1.0000
  C   C661      1.0  0.70071  0.13880  0.34734  1.0000
  H   H666      1.0  0.57850  0.32351  0.31045  1.0000
  C   C662      1.0  0.72697  0.11099  0.36004  1.0000
  C   C663      1.0  0.65269  0.31236  0.25856  1.0000
  C   C664      1.0  0.84120  0.03413  0.38700  1.0000
  H   H667      1.0  0.64932  0.30117  0.27164  1.0000
  C   C665      1.0  0.66008  0.18944  0.29609  1.0000
  C   C666      1.0  0.64940  0.17131  0.28758  1.0000
  C   C667      1.0  0.66102  0.15082  0.28482  1.0000
  C   C668      1.0  0.68359  0.14809  0.29025  1.0000
  C   C669      1.0  0.69435  0.16628  0.29860  1.0000
  C   C670      1.0  0.68266  0.18670  0.30157  1.0000
  H   H668      1.0  0.63208  0.17296  0.28331  1.0000
  H   H669      1.0  0.65240  0.13695  0.27841  1.0000
  H   H670      1.0  0.71163  0.16458  0.30293  1.0000
  H   H671      1.0  0.69118  0.20050  0.30820  1.0000
  H   H672      1.0  0.51760  0.41027  0.44702  1.0000
  H   H673      1.0  0.67364  0.12636  0.32982  1.0000
  N   N60       1.0  0.69574  0.10018  0.33988  1.0000
  H   H674      1.0  0.61567  0.30926  0.33486  1.0000
  H   H675      1.0  0.56381  0.46294  0.48178  1.0000
  H   H676      1.0  0.72011  0.07730  0.35219  1.0000
  C   C671      1.0  0.58307  0.30609  0.41156  1.0000
  C   C672      1.0  0.59669  0.29089  0.40057  1.0000
  C   C673      1.0  0.59292  0.28650  0.37939  1.0000
  C   C674      1.0  0.57551  0.29738  0.36883  1.0000
  C   C675      1.0  0.56232  0.31308  0.37962  1.0000
  C   C676      1.0  0.56601  0.31739  0.40082  1.0000
  H   H677      1.0  0.61002  0.28210  0.40863  1.0000
  H   H678      1.0  0.60333  0.27447  0.37137  1.0000
  H   H679      1.0  0.54889  0.32176  0.37162  1.0000
  H   H680      1.0  0.55542  0.32918  0.40893  1.0000
  H   H681      1.0  0.57443  0.33572  0.27365  1.0000
  C   C677      1.0  0.67827  0.25089  0.26248  1.0000
  C   C678      1.0  0.65833  0.24691  0.25253  1.0000
  H   H682      1.0  0.83452  0.08788  0.27453  1.0000
  C   C679      1.0  0.58342  0.43255  0.48044  1.0000
  H   H683      1.0  0.62832  0.33496  0.34211  1.0000
  C   C680      1.0  0.69317  0.26610  0.25360  1.0000
  S   S233      1.0  0.54565  0.31523  0.48689  1.0000
  C   C681      1.0  0.95610  0.09524  0.46509  1.0000
  C   C682      1.0  0.93650  0.08731  0.47481  1.0000
  H   H684      1.0  0.95827  0.09388  0.44843  1.0000
  H   H685      1.0  0.92379  0.07978  0.46567  1.0000
  C   C683      1.0  0.81666  0.07674  0.40860  1.0000
  C   C684      1.0  0.81942  0.08809  0.38929  1.0000
  C   C685      1.0  0.80441  0.08531  0.37284  1.0000
  C   C686      1.0  0.78622  0.07122  0.37551  1.0000
  C   C687      1.0  0.78329  0.06006  0.39490  1.0000
  C   C688      1.0  0.79840  0.06272  0.41131  1.0000
  H   H686      1.0  0.83340  0.09903  0.38697  1.0000
  H   H687      1.0  0.80694  0.09409  0.35811  1.0000
  H   H688      1.0  0.76927  0.04918  0.39725  1.0000
  H   H689      1.0  0.79594  0.05392  0.42604  1.0000
  H   H690      1.0  0.50811  0.43503  0.48302  1.0000
  H   H691      1.0  0.56668  0.25259  0.40418  1.0000
  H   H692      1.0  0.50313  0.29499  0.38720  1.0000
  H   H693      1.0  0.54543  0.27970  0.45152  1.0000
  C   C689      1.0  0.58038  0.45565  0.48260  1.0000
  H   H694      1.0  0.57312  0.26015  0.43005  1.0000
  H   H695      1.0  0.63981  0.42995  0.48557  1.0000
  C   C690      1.0  0.62009  0.46023  0.48748  1.0000
  H   H696      1.0  0.67642  0.08866  0.31495  1.0000
  C   C691      1.0  0.50679  0.26161  0.24554  1.0000
  H   H697      1.0  0.68590  0.31980  0.26837  1.0000
  C   C692      1.0  0.72010  0.13326  0.35813  1.0000
  C   C693      1.0  0.62672  0.35376  0.28208  1.0000
  H   H698      1.0  0.86685  0.04146  0.40880  1.0000
  C   C694      1.0  0.68854  0.12191  0.33845  1.0000
  C   C695      1.0  0.62321  0.43717  0.48486  1.0000
  C   C696      1.0  0.71448  0.09455  0.35080  1.0000
  H   H699      1.0  0.72987  0.14619  0.36490  1.0000
  C   C697      1.0  0.76285  0.01091  0.24495  1.0000
  C   C698      1.0  0.51211  0.29151  0.40148  1.0000
  S   S234      1.0  0.76901  0.03931  0.25085  1.0000
  H   H700      1.0  0.81516  0.05770  0.25643  1.0000
  H   H701      1.0  0.69524  0.15607  0.34555  1.0000
  C   C699      1.0  0.68267  0.08281  0.33040  1.0000
  H   H702      1.0  0.84526  0.16562  0.26951  1.0000
  N   N61       1.0  0.82604  0.00412  0.41744  1.0000
  C   C700      1.0  0.52957  0.27574  0.40184  1.0000
  H   H703      1.0  0.86643  0.11320  0.27319  1.0000
  C   C701      1.0  0.59859  0.46942  0.48617  1.0000
  Fe  Fe119     1.0  0.52269  0.34430  0.47897  1.0000
  C   C702      1.0  0.59206  0.33220  0.30265  1.0000
  H   H704      1.0  0.51914  0.27327  0.25030  1.0000
  C   C703      1.0  0.60693  0.35029  0.27166  1.0000
  H   H705      1.0  0.74209  0.10644  0.36831  1.0000
  H   H706      1.0  0.85362  0.01404  0.43528  1.0000
  C   C704      1.0  0.97296  0.10468  0.47680  1.0000
  C   C705      1.0  0.50656  0.30291  0.41956  1.0000
  H   H707      1.0  0.64062  0.36157  0.27393  1.0000
  C   C706      1.0  0.53593  0.28272  0.43746  1.0000
  H   H708      1.0  0.59869  0.33223  0.34378  1.0000
  C   C707      1.0  0.83873  0.15933  0.25523  1.0000
  C   C708      1.0  0.81868  0.21917  0.24874  1.0000
  H   H709      1.0  0.99204  0.04895  0.47077  1.0000
  H   H710      1.0  0.64441  0.34852  0.31056  1.0000
  H   H711      1.0  0.66830  0.07845  0.34066  1.0000
  N   N62       1.0  0.54136  0.27172  0.41965  1.0000
  S   S235      1.0  0.53357  0.22797  0.26424  1.0000
  C   C709      1.0  0.51847  0.29845  0.43768  1.0000
  C   C710      1.0  0.85258  0.03128  0.40566  1.0000
  H   H712      1.0  0.82245  0.22461  0.26425  1.0000
  C   C711      1.0  0.62878  0.34620  0.30276  1.0000
  H   H713      1.0  0.74182  0.00420  0.27166  1.0000
  H   H714      1.0  0.51426  0.30725  0.45177  1.0000
  C   C712      1.0  0.58953  0.33930  0.28192  1.0000
  S   S236      1.0  0.55973  0.41588  0.47733  1.0000
  C   C713      1.0  0.82084  0.14454  0.25614  1.0000
  H   H715      1.0  0.84658  0.04654  0.37553  1.0000
  H   H716      1.0  0.68200  0.24220  0.27709  1.0000
  N   N63       1.0  0.61144  0.33585  0.31285  1.0000
  S   S237      1.0  0.64303  0.47674  0.49395  1.0000
  C   C714      1.0  0.50974  0.23888  0.25045  1.0000
  S   S238      1.0  0.84890  0.08222  0.48975  1.0000
  C   C715      1.0  0.60495  0.42335  0.48147  1.0000
  H   H717      1.0  0.60752  0.40561  0.47970  1.0000
  C   C716      1.0  0.81482  0.00669  0.39912  1.0000
  Fe  Fe120     1.0  0.85833  0.01905  0.48121  1.0000
  C   C717      1.0  0.86056  0.10607  0.25896  1.0000
  H   H718      1.0  0.64677  0.23499  0.25929  1.0000
  S   S239      1.0  0.58616  0.35172  0.48681  1.0000
  H   H719      1.0  0.59593  0.48712  0.48821  1.0000
  C   C718      1.0  0.50497  0.40175  0.45704  1.0000
  H   H720      1.0  0.51334  0.39505  0.47122  1.0000
  H   H721      1.0  0.81285  0.02438  0.36943  1.0000
  C   C719      1.0  0.82223  0.02173  0.38363  1.0000
  C   C720      1.0  0.84478  0.01604  0.42075  1.0000
  H   H722      1.0  0.70197  0.48383  0.26132  1.0000
  H   H723      1.0  0.99881  0.13885  0.42085  1.0000
  S   S240      1.0  0.61079  0.30258  0.24449  1.0000
  H   H724      1.0  0.73811  0.50001  0.33458  1.0000
  H   H725      1.0  0.70863  0.26953  0.26130  1.0000
  H   H726      1.0  0.79837  0.40777  0.24911  1.0000
  Fe  Fe121     1.0  0.88043  0.06199  0.49408  1.0000
  C   C721      1.0  0.82819  0.11126  0.54331  1.0000
  S   S241      1.0  0.80495  0.06222  0.53109  1.0000
  S   S242      1.0  0.86386  0.03413  0.51246  1.0000
  Fe  Fe122     1.0  0.61768  0.22804  0.68594  1.0000
  S   S243      1.0  0.63289  0.25426  0.66493  1.0000
  S   S244      1.0  0.63829  0.19769  0.69830  1.0000
  Fe  Fe123     1.0  0.57430  0.25663  0.69270  1.0000
  S   S245      1.0  0.58776  0.28483  0.67223  1.0000
  S   S246      1.0  0.53792  0.26397  0.70372  1.0000
  Fe  Fe124     1.0  0.59918  0.25849  0.65015  1.0000
  S   S247      1.0  0.59415  0.25907  0.61462  1.0000
  Fe  Fe125     1.0  0.62036  0.27882  0.68857  1.0000
  S   S248      1.0  0.64522  0.30585  0.69594  1.0000
  S   S249      1.0  0.58440  0.23026  0.66966  1.0000
  S   S250      1.0  0.60646  0.25265  0.71049  1.0000
  Fe  Fe126     1.0  0.78076  0.08267  0.65638  1.0000
  S   S251      1.0  0.74837  0.06809  0.66814  1.0000
  S   S252      1.0  0.80454  0.06995  0.63055  1.0000
  Fe  Fe127     1.0  0.78264  0.11448  0.69390  1.0000
  S   S253      1.0  0.75072  0.10182  0.70813  1.0000
  S   S254      1.0  0.79964  0.14588  0.70430  1.0000
  Fe  Fe128     1.0  0.76372  0.06716  0.70016  1.0000
  S   S255      1.0  0.76973  0.03798  0.72387  1.0000
  Fe  Fe129     1.0  0.73776  0.10390  0.67535  1.0000
  S   S256      1.0  0.70666  0.12309  0.66332  1.0000
  S   S257      1.0  0.79656  0.08032  0.68801  1.0000
  S   S258      1.0  0.76933  0.11796  0.66146  1.0000
  Fe  Fe130     1.0  0.56129  0.33762  0.51023  1.0000
  S   S259      1.0  0.56902  0.33426  0.54531  1.0000
  N   N64       1.0  0.67881  0.39741  0.72053  1.0000
  C   C722      1.0  0.66602  0.38322  0.70963  1.0000
  H   H727      1.0  0.00087  0.18245  0.74344  1.0000
  H   H728      1.0  0.81672  0.03382  0.70208  1.0000
  H   H729      1.0  0.68072  0.22735  0.68309  1.0000
  C   C723      1.0  0.53594  0.27001  0.60454  1.0000
  H   H730      1.0  0.86910  0.15021  0.71930  1.0000
  H   H731      1.0  0.72389  0.46381  0.71168  1.0000
  H   H732      1.0  0.53717  0.27618  0.58855  1.0000
  C   C724      1.0  0.70364  0.20450  0.66817  1.0000
  C   C725      1.0  0.95020  0.09881  0.50798  1.0000
  C   C726      1.0  0.82310  0.12944  0.73850  1.0000
  H   H733      1.0  0.72272  0.18797  0.72354  1.0000
  H   H734      1.0  0.54642  0.23657  0.59720  1.0000
  C   C727      1.0  0.80950  0.11984  0.55383  1.0000
  H   H735      1.0  0.63563  0.36448  0.70927  1.0000
  H   H736      1.0  0.81158  0.00817  0.71546  1.0000
  C   C728      1.0  0.81677  0.14806  0.72632  1.0000
  C   C729      1.0  0.53068  0.28459  0.62060  1.0000
  H   H737      1.0  0.88093  0.09365  0.55196  1.0000
  C   C730      1.0  0.98015  0.21215  0.74158  1.0000
  C   C731      1.0  0.79643  0.02389  0.66707  1.0000
  C   C732      1.0  0.63796  0.38398  0.73686  1.0000
  H   H738      1.0  0.86645  0.18575  0.69931  1.0000
  C   C733      1.0  0.58781  0.28044  0.59558  1.0000
  C   C734      1.0  0.58549  0.27456  0.57463  1.0000
  C   C735      1.0  0.57967  0.29063  0.55907  1.0000
  C   C736      1.0  0.57614  0.31296  0.56421  1.0000
  C   C737      1.0  0.57835  0.31882  0.58519  1.0000
  C   C738      1.0  0.58409  0.30274  0.60077  1.0000
  H   H739      1.0  0.58827  0.25740  0.57037  1.0000
  H   H740      1.0  0.57812  0.28576  0.54307  1.0000
  H   H741      1.0  0.57571  0.33600  0.58943  1.0000
  H   H742      1.0  0.58574  0.30759  0.61676  1.0000
  C   C739      1.0  0.67158  0.40508  0.73936  1.0000
  C   C740      1.0  0.80975  0.12115  0.57547  1.0000
  C   C741      1.0  0.86545  0.09417  0.54271  1.0000
  C   C742      1.0  0.81551  0.01557  0.69982  1.0000
  C   C743      1.0  0.99584  0.24235  0.72029  1.0000
  H   H743      1.0  0.69330  0.21704  0.71863  1.0000
  H   H744      1.0  0.72647  0.17881  0.65815  1.0000
  C   C744      1.0  0.91807  0.19092  0.71949  1.0000
  C   C745      1.0  0.63469  0.31572  0.73693  1.0000
  C   C746      1.0  0.67460  0.33831  0.74274  1.0000
  C   C747      1.0  0.65667  0.17662  0.68809  1.0000
  C   C748      1.0  0.65920  0.17293  0.66674  1.0000
  C   C749      1.0  0.67430  0.15634  0.65956  1.0000
  C   C750      1.0  0.68745  0.14343  0.67350  1.0000
  C   C751      1.0  0.68492  0.14712  0.69484  1.0000
  C   C752      1.0  0.66952  0.16341  0.70204  1.0000
  H   H745      1.0  0.64941  0.18274  0.65577  1.0000
  H   H746      1.0  0.67590  0.15357  0.64304  1.0000
  H   H747      1.0  0.69456  0.13720  0.70585  1.0000
  H   H748      1.0  0.66763  0.16592  0.71858  1.0000
  H   H749      1.0  0.98391  0.05959  0.54648  1.0000
  H   H750      1.0  0.77835  0.03058  0.63873  1.0000
  N   N65       1.0  0.52990  0.27702  0.64086  1.0000
  H   H751      1.0  0.80795  0.03732  0.66399  1.0000
  C   C753      1.0  0.80468  0.06269  0.55890  1.0000
  C   C754      1.0  0.82310  0.05598  0.57074  1.0000
  C   C755      1.0  0.82249  0.05790  0.59262  1.0000
  C   C756      1.0  0.80356  0.06661  0.60303  1.0000
  C   C757      1.0  0.78498  0.07291  0.59124  1.0000
  C   C758      1.0  0.78555  0.07088  0.56936  1.0000
  H   H752      1.0  0.83783  0.04940  0.56304  1.0000
  H   H753      1.0  0.83692  0.05281  0.60154  1.0000
  H   H754      1.0  0.77025  0.07955  0.59892  1.0000
  H   H755      1.0  0.77114  0.07601  0.56042  1.0000
  C   C759      1.0  0.72619  0.47528  0.72414  1.0000
  H   H756      1.0  0.67195  0.37654  0.69499  1.0000
  C   C760      1.0  0.65059  0.31643  0.72083  1.0000
  H   H757      1.0  0.86134  0.07685  0.53865  1.0000
  H   H758      1.0  0.60726  0.36636  0.54029  1.0000
  C   C761      1.0  0.74353  0.16444  0.69399  1.0000
  C   C762      1.0  0.62233  0.39894  0.53859  1.0000
  C   C763      1.0  0.51673  0.25363  0.72123  1.0000
  H   H759      1.0  0.79461  0.12449  0.54531  1.0000
  H   H760      1.0  0.54551  0.22321  0.63411  1.0000
  H   H761      1.0  0.73540  0.14812  0.69238  1.0000
  H   H762      1.0  0.71394  0.39753  0.72308  1.0000
  N   N66       1.0  0.61881  0.42138  0.53564  1.0000
  C   C764      1.0  0.71778  0.19286  0.70791  1.0000
  H   H763      1.0  0.93192  0.20229  0.71979  1.0000
  H   H764      1.0  0.73377  0.00782  0.71208  1.0000
  H   H765      1.0  0.53596  0.22637  0.73443  1.0000
  H   H766      1.0  0.52763  0.30204  0.61671  1.0000
  C   C765      1.0  0.63778  0.43638  0.53634  1.0000
  Fe  Fe131     1.0  0.83215  0.05371  0.50683  1.0000
  H   H767      1.0  0.64661  0.43415  0.55132  1.0000
  C   C766      1.0  0.57979  0.41540  0.53079  1.0000
  C   C767      1.0  0.88294  0.16158  0.71947  1.0000
  C   C768      1.0  0.82475  0.16911  0.73134  1.0000
  H   H768      1.0  0.51674  0.30818  0.65170  1.0000
  H   H769      1.0  0.63256  0.45421  0.53467  1.0000
  N   N67       1.0  0.79800  0.01109  0.68492  1.0000
  C   C769      1.0  0.54105  0.24773  0.60939  1.0000
  H   H770      1.0  0.86922  0.10377  0.52810  1.0000
  C   C770      1.0  0.52005  0.23512  0.73459  1.0000
  C   C771      1.0  0.98578  0.05657  0.52997  1.0000
  C   C772      1.0  0.77973  0.02011  0.65270  1.0000
  C   C773      1.0  0.96991  0.10649  0.49830  1.0000
  H   H771      1.0  0.86123  0.09908  0.58389  1.0000
  H   H772      1.0  0.59514  0.44739  0.52868  1.0000
  C   C774      1.0  0.72001  0.18793  0.67138  1.0000
  H   H773      1.0  0.89803  0.21216  0.69943  1.0000
  H   H774      1.0  0.99438  0.25913  0.71384  1.0000
  H   H775      1.0  0.53992  0.29639  0.66605  1.0000
  H   H776      1.0  0.69754  0.20824  0.65265  1.0000
  H   H777      1.0  0.82746  0.10929  0.52659  1.0000
  C   C775      1.0  0.97840  0.23373  0.73296  1.0000
  C   C776      1.0  0.76464  0.00309  0.65667  1.0000
  C   C777      1.0  0.54066  0.24027  0.63012  1.0000
  H   H778      1.0  0.93354  0.16687  0.74017  1.0000
  H   H779      1.0  0.63895  0.39230  0.54137  1.0000
  H   H780      1.0  0.83173  0.00881  0.69416  1.0000
  H   H781      1.0  0.91494  0.12421  0.73650  1.0000
  C   C778      1.0  0.67065  0.32756  0.72392  1.0000
  C   C779      1.0  0.64533  0.37644  0.71755  1.0000
  N   N68       1.0  0.72707  0.18252  0.69104  1.0000
  H   H782      1.0  0.98268  0.11386  0.50747  1.0000
  S   S260      1.0  0.53615  0.36530  0.50386  1.0000
  S   S261      1.0  0.91025  0.07732  0.50961  1.0000
  H   H783      1.0  0.51270  0.28464  0.66903  1.0000
  H   H784      1.0  0.56935  0.38127  0.53341  1.0000
  C   C780      1.0  0.70125  0.20939  0.70526  1.0000
  H   H785      1.0  0.70427  0.39785  0.69666  1.0000
  H   H786      1.0  0.75141  0.16476  0.70953  1.0000
  H   H787      1.0  0.61917  0.30728  0.73472  1.0000
  C   C781      1.0  0.58320  0.39256  0.53406  1.0000
  C   C782      1.0  0.91888  0.17087  0.73105  1.0000
  C   C783      1.0  0.82859  0.11392  0.58631  1.0000
  H   H788      1.0  0.82852  0.11393  0.60321  1.0000
  C   C784      1.0  0.52452  0.29241  0.65764  1.0000
  C   C785      1.0  0.60457  0.38420  0.53794  1.0000
  H   H789      1.0  0.56335  0.42193  0.52697  1.0000
  C   C786      1.0  0.89909  0.19641  0.70806  1.0000
  H   H790      1.0  0.75722  0.16575  0.68221  1.0000
  C   C787      1.0  0.84700  0.10545  0.57527  1.0000
  H   H791      1.0  0.64958  0.43298  0.52326  1.0000
  N   N69       1.0  0.84666  0.10433  0.55403  1.0000
  H   H792      1.0  0.94802  0.10019  0.52464  1.0000
  H   H793      1.0  0.79506  0.12693  0.58392  1.0000
  H   H794      1.0  0.81986  0.18362  0.72205  1.0000
  C   C788      1.0  0.69420  0.21524  0.68525  1.0000
  C   C789      1.0  0.70074  0.40409  0.71251  1.0000
  C   C790      1.0  0.59787  0.42970  0.53174  1.0000
  C   C791      1.0  0.76150  0.01065  0.73256  1.0000
  H   H795      1.0  0.68303  0.32816  0.71154  1.0000
  C   C792      1.0  0.88141  0.18164  0.70798  1.0000
  C   C793      1.0  0.99934  0.19923  0.73700  1.0000
  H   H796      1.0  0.70180  0.42258  0.71186  1.0000
  H   H797      1.0  0.96376  0.24389  0.73618  1.0000
  H   H798      1.0  0.81701  0.11316  0.73483  1.0000
  H   H799      1.0  0.53505  0.24937  0.66187  1.0000
  C   C794      1.0  0.53498  0.25522  0.64575  1.0000
  C   C795      1.0  0.72843  0.49831  0.71928  1.0000
  N   N70       1.0  0.90133  0.15666  0.73116  1.0000
  C   C796      1.0  0.93354  0.08891  0.49634  1.0000
  C   C797      1.0  0.96774  0.04923  0.51871  1.0000
  H   H800      1.0  0.95165  0.04678  0.52630  1.0000
  C   C798      1.0  0.97010  0.04621  0.49734  1.0000
  C   C799      1.0  0.90265  0.13589  0.74359  1.0000
  H   H801      1.0  0.62254  0.37789  0.74371  1.0000
  H   H802      1.0  0.59748  0.36257  0.90396  1.0000
  S   S262      1.0  0.66121  0.35384  0.78140  1.0000
  S   S263      1.0  0.94781  0.11513  0.96042  1.0000
  C   C800      1.0  0.60219  0.37391  0.91651  1.0000
  C   C801      1.0  0.68341  0.36929  0.97830  1.0000
  Fe  Fe132     1.0  0.92273  0.14239  0.96673  1.0000
  S   S264      1.0  0.90178  0.16082  0.94182  1.0000
  H   H803      1.0  0.77320  0.37929  0.83605  1.0000
  H   H804      1.0  0.64588  0.40371  0.76321  1.0000
  Fe  Fe133     1.0  0.64218  0.41485  0.97005  1.0000
  C   C802      1.0  0.74644  0.34565  0.84902  1.0000
  S   S265      1.0  0.64936  0.39441  0.94085  1.0000
  C   C803      1.0  0.71041  0.39688  0.98641  1.0000
  H   H805      1.0  0.61261  0.38719  0.90915  1.0000
  S   S266      1.0  0.61269  0.43838  0.97115  1.0000
  H   H806      1.0  0.52937  0.37089  0.94043  1.0000
  C   C804      1.0  0.56329  0.37164  0.92857  1.0000
  Fe  Fe134     1.0  0.90926  0.20837  0.82095  1.0000
  S   S267      1.0  0.92041  0.23663  0.79945  1.0000
  S   S268      1.0  0.92815  0.19937  0.85093  1.0000
  Fe  Fe135     1.0  0.88198  0.18764  0.78636  1.0000
  S   S269      1.0  0.89169  0.21367  0.76255  1.0000
  H   H807      1.0  0.73112  0.47622  0.77667  1.0000
  Fe  Fe136     1.0  0.92656  0.21094  0.77496  1.0000
  C   C805      1.0  0.56557  0.41295  0.94668  1.0000
  Fe  Fe137     1.0  0.88453  0.23782  0.78857  1.0000
  S   S270      1.0  0.86551  0.26931  0.77724  1.0000
  S   S271      1.0  0.91703  0.18294  0.79693  1.0000
  S   S272      1.0  0.87304  0.21139  0.81189  1.0000
  Fe  Fe138     1.0  0.74239  0.36956  0.80263  1.0000
  S   S273      1.0  0.70772  0.36693  0.81985  1.0000
  S   S274      1.0  0.78753  0.33311  0.81289  1.0000
  Fe  Fe139     1.0  0.72092  0.41362  0.77852  1.0000
  S   S275      1.0  0.68775  0.41104  0.79510  1.0000
  H   H808      1.0  0.74243  0.36100  0.85776  1.0000
  Fe  Fe140     1.0  0.70724  0.40363  0.82427  1.0000
  S   S276      1.0  0.70117  0.42041  0.85565  1.0000
  Fe  Fe141     1.0  0.69121  0.37431  0.78940  1.0000
  H   H809      1.0  0.99606  0.08557  0.98935  1.0000
  S   S277      1.0  0.74050  0.40822  0.80793  1.0000
  S   S278      1.0  0.72338  0.37679  0.77158  1.0000
  H   H810      1.0  0.96515  0.20191  0.80345  1.0000
  C   C806      1.0  0.50279  0.22788  0.74826  1.0000
  H   H811      1.0  0.84505  0.18787  0.75193  1.0000
  C   C807      1.0  0.54573  0.40125  0.94791  1.0000
  C   C808      1.0  0.76720  0.36963  0.82335  1.0000
  C   C809      1.0  0.84292  0.28585  0.78731  1.0000
  C   C810      1.0  0.83177  0.30106  0.77383  1.0000
  C   C811      1.0  0.81443  0.31521  0.78116  1.0000
  C   C812      1.0  0.80828  0.31469  0.80226  1.0000
  C   C813      1.0  0.81940  0.29946  0.81574  1.0000
  C   C814      1.0  0.83642  0.28500  0.80832  1.0000
  H   H812      1.0  0.83668  0.30198  0.75757  1.0000
  H   H813      1.0  0.80625  0.32681  0.77054  1.0000
  H   H814      1.0  0.81490  0.29889  0.83209  1.0000
  H   H815      1.0  0.84486  0.27356  0.81895  1.0000
  H   H816      1.0  0.56236  0.35524  0.92197  1.0000
  H   H817      1.0  0.78786  0.00774  0.75493  1.0000
  H   H818      1.0  0.78813  0.38696  0.79843  1.0000
  H   H819      1.0  0.73442  0.32270  0.81457  1.0000
  C   C815      1.0  0.84552  0.15292  0.76033  1.0000
  H   H820      1.0  0.73173  0.33472  0.85014  1.0000
  H   H821      1.0  0.76082  0.33672  0.85630  1.0000
  C   C816      1.0  0.97632  0.21305  0.81184  1.0000
  H   H822      1.0  0.62589  0.32651  0.76781  1.0000
  H   H823      1.0  0.53148  0.40805  0.95637  1.0000
  N   N71       1.0  0.58253  0.38350  0.92696  1.0000
  C   C817      1.0  0.76883  0.35951  0.78422  1.0000
  C   C818      1.0  0.73027  0.48217  0.76068  1.0000
  C   C819      1.0  0.75297  0.34080  0.78888  1.0000
  C   C820      1.0  0.66363  0.40211  0.91719  1.0000
  C   C821      1.0  0.66509  0.38675  0.90096  1.0000
  C   C822      1.0  0.67629  0.39205  0.88200  1.0000
  C   C823      1.0  0.68636  0.41278  0.87905  1.0000
  C   C824      1.0  0.68495  0.42806  0.89534  1.0000
  C   C825      1.0  0.67364  0.42283  0.91423  1.0000
  H   H824      1.0  0.65753  0.37062  0.90302  1.0000
  H   H825      1.0  0.67719  0.38009  0.86970  1.0000
  H   H826      1.0  0.69262  0.44416  0.89327  1.0000
  H   H827      1.0  0.67269  0.43490  0.92645  1.0000
  C   C826      1.0  0.88255  0.17963  0.99127  1.0000
  C   C827      1.0  0.86474  0.03450  0.99197  1.0000
  H   H828      1.0  0.87604  0.16946  0.97911  1.0000
  S   S279      1.0  0.86470  0.15506  0.78082  1.0000
  S   S280      1.0  0.50545  0.33887  0.97979  1.0000
  C   C828      1.0  0.65835  0.33825  0.75855  1.0000
  C   C829      1.0  0.90961  0.17223  0.91691  1.0000
  C   C830      1.0  0.89289  0.18062  0.90354  1.0000
  C   C831      1.0  0.89816  0.18909  0.88338  1.0000
  C   C832      1.0  0.92034  0.18957  0.87641  1.0000
  C   C833      1.0  0.93707  0.18153  0.88992  1.0000
  C   C834      1.0  0.93177  0.17278  0.90997  1.0000
  H   H829      1.0  0.87569  0.18042  0.90875  1.0000
  H   H830      1.0  0.88509  0.19541  0.87333  1.0000
  H   H831      1.0  0.95430  0.18189  0.88479  1.0000
  H   H832      1.0  0.94486  0.16649  0.92003  1.0000
  H   H833      1.0  0.74847  0.32956  0.77676  1.0000
  N   N72       1.0  0.89032  0.14256  0.85635  1.0000
  C   C835      1.0  0.87561  0.13669  0.87192  1.0000
  C   C836      1.0  0.91273  0.13946  0.85900  1.0000
  C   C837      1.0  0.88324  0.12717  0.89067  1.0000
  C   C838      1.0  0.92092  0.12990  0.87751  1.0000
  C   C839      1.0  0.90605  0.12379  0.89344  1.0000
  C   C840      1.0  0.88236  0.15370  0.83724  1.0000
  H   H834      1.0  0.85790  0.13979  0.87009  1.0000
  H   H835      1.0  0.92442  0.14520  0.84708  1.0000
  H   H836      1.0  0.87166  0.12309  0.90324  1.0000
  H   H837      1.0  0.93871  0.12813  0.87984  1.0000
  H   H838      1.0  0.91221  0.11721  0.90822  1.0000
  H   H839      1.0  0.89076  0.14662  0.82329  1.0000
  H   H840      1.0  0.86417  0.15174  0.83513  1.0000
  H   H841      1.0  0.88593  0.17176  0.83772  1.0000
  S   S281      1.0  0.94289  0.15781  0.99193  1.0000
  H   H842      1.0  0.56679  0.42886  0.95423  1.0000
  H   H843      1.0  0.92021  0.01286  0.96793  1.0000
  C   C841      1.0  0.69668  0.38714  0.97202  1.0000
  H   H844      1.0  0.72044  0.41106  0.98178  1.0000
  H   H845      1.0  0.88624  0.12761  0.74488  1.0000
  C   C842      1.0  0.90289  0.04132  0.98062  1.0000
  H   H846      1.0  0.96977  0.25340  0.79417  1.0000
  H   H847      1.0  0.77572  0.36188  0.76867  1.0000
  S   S282      1.0  0.95936  0.20056  0.75859  1.0000
  Fe  Fe142     1.0  0.92960  0.09501  0.98511  1.0000
  C   C843      1.0  0.88679  0.00443  0.97747  1.0000
  C   C844      1.0  0.98525  0.24542  0.78927  1.0000
  H   H848      1.0  0.99413  0.27273  0.76836  1.0000
  S   S283      1.0  0.92700  0.05789  0.97924  1.0000
  H   H849      1.0  0.61260  0.36457  0.92805  1.0000
  C   C845      1.0  0.74471  0.33694  0.81091  1.0000
  C   C846      1.0  0.54455  0.38042  0.93890  1.0000
  C   C847      1.0  0.77602  0.37408  0.80146  1.0000
  C   C848      1.0  0.90469  0.01903  0.97455  1.0000
  S   S284      1.0  0.72477  0.43741  0.74981  1.0000
  H   H850      1.0  0.67243  0.36187  0.96725  1.0000
  H   H851      1.0  0.59943  0.41283  0.93527  1.0000
  H   H852      1.0  0.84227  0.11738  0.76474  1.0000
  H   H853      1.0  0.69599  0.39363  0.95609  1.0000
  C   C849      1.0  0.63853  0.32668  0.75565  1.0000
  H   H854      1.0  0.50574  0.21361  0.75852  1.0000
  H   H855      1.0  0.57785  0.37258  0.99209  1.0000
  N   N73       1.0  0.75215  0.35131  0.82731  1.0000
  C   C850      1.0  0.89811  0.19593  0.98588  1.0000
  C   C851      1.0  0.83740  0.13189  0.75545  1.0000
  C   C852      1.0  0.58395  0.40376  0.93609  1.0000
  S   S285      1.0  0.63758  0.49716  0.98393  1.0000
  S   S286      1.0  0.90314  0.12128  0.98993  1.0000
  S   S287      1.0  0.66425  0.43788  0.98704  1.0000
  C   C853      1.0  0.52259  0.36082  0.98732  1.0000
  H   H856      1.0  0.90761  0.13946  0.75975  1.0000
  C   C854      1.0  0.72712  0.46694  0.74486  1.0000
  C   C855      1.0  0.55996  0.37493  0.99280  1.0000
  H   H857      1.0  0.90346  0.19831  0.96977  1.0000
  Fe  Fe143     1.0  0.96668  0.12862  0.98713  1.0000
  C   C856      1.0  0.86683  0.01200  0.98650  1.0000
  H   H858      1.0  0.96582  0.22493  0.82089  1.0000
  H   H859      1.0  0.55301  0.34251  0.98084  1.0000
  H   H860      1.0  0.98603  0.20289  0.82331  1.0000
  N   N74       1.0  0.99105  0.22466  0.79690  1.0000
  H   H861      1.0  0.68991  0.34714  0.74476  1.0000
  C   C857      1.0  0.54586  0.35794  0.98645  1.0000
  Fe  Fe144     1.0  0.63388  0.46013  0.99024  1.0000
  H   H862      1.0  0.68185  0.41613  0.74807  1.0000
  C   C858      1.0  0.99897  0.25648  0.77471  1.0000
  H   H863      1.0  0.51458  0.26934  0.77033  1.0000
  C   C859      1.0  0.88270  0.04913  0.98906  1.0000
  C   C860      1.0  0.83901  0.17157  0.74829  1.0000
  C   C861      1.0  0.65111  0.39842  0.74785  1.0000
  H   H864      1.0  0.88106  0.06628  0.99372  1.0000
  S   S288      1.0  0.86359  0.93738  0.01742  1.0000
  Fe  Fe145     1.0  0.83678  0.91257  0.01289  1.0000
  S   S289      1.0  0.81886  0.89224  0.03873  1.0000
  Fe  Fe146     1.0  0.56550  0.65218  0.01224  1.0000
  S   S290      1.0  0.58260  0.67691  0.03335  1.0000
  S   S291      1.0  0.54051  0.62596  0.02059  1.0000
  Fe  Fe147     1.0  0.78919  0.87335  0.19056  1.0000
  S   S292      1.0  0.75996  0.87581  0.21245  1.0000
  S   S293      1.0  0.82067  0.85188  0.19318  1.0000
  Fe  Fe148     1.0  0.76594  0.90069  0.15653  1.0000
  S   S294      1.0  0.73430  0.90465  0.17607  1.0000
  S   S295      1.0  0.77289  0.91933  0.12551  1.0000
  Fe  Fe149     1.0  0.75729  0.91224  0.20249  1.0000
  S   S296      1.0  0.74784  0.93756  0.22796  1.0000
  Fe  Fe150     1.0  0.73882  0.86801  0.18487  1.0000
  S   S297      1.0  0.71522  0.83900  0.19345  1.0000
  S   S298      1.0  0.78841  0.91012  0.18261  1.0000
  S   S299      1.0  0.76860  0.86384  0.16337  1.0000
  Fe  Fe151     1.0  0.62026  0.70373  0.19221  1.0000
  S   S300      1.0  0.60946  0.73400  0.21020  1.0000
  S   S301      1.0  0.64679  0.67650  0.19716  1.0000
  Fe  Fe152     1.0  0.58786  0.71407  0.15599  1.0000
  S   S302      1.0  0.57517  0.74544  0.17117  1.0000
  S   S303      1.0  0.57042  0.69415  0.13101  1.0000
  Fe  Fe153     1.0  0.61145  0.75195  0.17875  1.0000
  S   S304      1.0  0.62637  0.78644  0.17083  1.0000
  Fe  Fe154     1.0  0.57395  0.72573  0.20150  1.0000
  S   S305      1.0  0.54252  0.71758  0.22141  1.0000
  S   S306      1.0  0.62377  0.72189  0.16125  1.0000
  S   S307      1.0  0.58528  0.69425  0.18594  1.0000
  N   N75       1.0  0.69186  0.88590  0.22201  1.0000
  H   H865      1.0  0.67666  0.64010  0.20697  1.0000
  H   H866      1.0  0.70125  0.94102  0.21494  1.0000
  C   C862      1.0  0.98760  0.76475  0.18141  1.0000
  C   C863      1.0  0.52488  0.71355  0.16539  1.0000
  H   H867      1.0  0.61611  0.65426  0.17036  1.0000
  C   C864      1.0  0.81202  0.77950  0.22661  1.0000
  H   H868      1.0  0.67781  0.93496  0.18405  1.0000
  C   C865      1.0  0.89431  0.99055  0.02711  1.0000
  C   C866      1.0  0.69456  0.92467  0.21218  1.0000
  H   H869      1.0  0.52698  0.75612  0.18704  1.0000
  H   H870      1.0  0.51846  0.58035  0.02203  1.0000
  H   H871      1.0  0.67574  0.51076  0.01216  1.0000
  C   C867      1.0  0.50657  0.68183  0.18119  1.0000
  C   C868      1.0  0.85527  0.81541  0.23640  1.0000
  C   C869      1.0  0.83103  0.84169  0.21729  1.0000
  H   H872      1.0  0.95619  0.76611  0.19831  1.0000
  H   H873      1.0  0.81084  0.86752  0.00071  1.0000
  H   H874      1.0  0.81820  0.77282  0.21207  1.0000
  H   H875      1.0  0.98365  0.78560  0.01522  1.0000
  C   C870      1.0  0.52283  0.69046  0.16770  1.0000
  C   C871      1.0  0.76788  0.97931  0.22133  1.0000
  C   C872      1.0  0.69103  0.82411  0.18602  1.0000
  C   C873      1.0  0.67679  0.83181  0.17024  1.0000
  C   C874      1.0  0.65726  0.82002  0.16580  1.0000
  C   C875      1.0  0.65176  0.80015  0.17676  1.0000
  C   C876      1.0  0.66617  0.79233  0.19237  1.0000
  C   C877      1.0  0.68549  0.80431  0.19704  1.0000
  H   H876      1.0  0.68067  0.84693  0.16154  1.0000
  H   H877      1.0  0.64633  0.82630  0.15370  1.0000
  H   H878      1.0  0.66225  0.77720  0.20104  1.0000
  H   H879      1.0  0.69625  0.79813  0.20931  1.0000
  H   H880      1.0  0.59018  0.65471  0.15680  1.0000
  H   H881      1.0  0.98296  0.75035  0.17272  1.0000
  H   H882      1.0  0.77518  0.97259  0.20729  1.0000
  H   H883      1.0  0.52259  0.54298  0.00714  1.0000
  C   C878      1.0  0.57846  0.68193  0.06041  1.0000
  C   C879      1.0  0.59094  0.69851  0.06981  1.0000
  C   C880      1.0  0.58858  0.70275  0.09129  1.0000
  C   C881      1.0  0.57367  0.69040  0.10367  1.0000
  C   C882      1.0  0.56112  0.67391  0.09425  1.0000
  C   C883      1.0  0.56352  0.66964  0.07281  1.0000
  H   H884      1.0  0.60252  0.70818  0.06040  1.0000
  H   H885      1.0  0.59833  0.71552  0.09823  1.0000
  H   H886      1.0  0.54948  0.66428  0.10360  1.0000
  H   H887      1.0  0.55378  0.65687  0.06586  1.0000
  H   H888      1.0  0.85323  0.81780  0.20291  1.0000
  H   H889      1.0  0.52296  0.76283  0.22614  1.0000
  H   H890      1.0  0.53413  0.67944  0.15935  1.0000
  C   C884      1.0  0.80592  0.90022  0.06267  1.0000
  C   C885      1.0  0.80275  0.92254  0.06795  1.0000
  C   C886      1.0  0.79234  0.92798  0.08707  1.0000
  C   C887      1.0  0.78535  0.91127  0.10139  1.0000
  C   C888      1.0  0.78860  0.88894  0.09615  1.0000
  C   C889      1.0  0.79863  0.88349  0.07684  1.0000
  H   H891      1.0  0.80810  0.93563  0.05723  1.0000
  H   H892      1.0  0.78979  0.94531  0.09087  1.0000
  H   H893      1.0  0.78315  0.87588  0.10685  1.0000
  H   H894      1.0  0.80083  0.86617  0.07290  1.0000
  H   H895      1.0  0.68877  0.85194  0.23270  1.0000
  C   C890      1.0  0.64567  0.67148  0.24023  1.0000
  C   C891      1.0  0.69973  0.90668  0.22561  1.0000
  N   N76       1.0  0.83400  0.87318  0.13110  1.0000
  C   C892      1.0  0.82865  0.88997  0.14436  1.0000
  C   C893      1.0  0.84132  0.87798  0.11123  1.0000
  C   C894      1.0  0.82990  0.91227  0.13768  1.0000
  C   C895      1.0  0.84307  0.90012  0.10412  1.0000
  C   C896      1.0  0.83711  0.91733  0.11741  1.0000
  C   C897      1.0  0.83188  0.85002  0.13853  1.0000
  H   H896      1.0  0.82305  0.88608  0.16012  1.0000
  H   H897      1.0  0.84528  0.86475  0.10055  1.0000
  H   H898      1.0  0.82459  0.92549  0.14795  1.0000
  H   H899      1.0  0.84805  0.90387  0.08812  1.0000
  H   H900      1.0  0.83735  0.93452  0.11180  1.0000
  H   H901      1.0  0.83463  0.83796  0.12589  1.0000
  H   H902      1.0  0.84405  0.84633  0.15108  1.0000
  H   H903      1.0  0.81488  0.84734  0.14513  1.0000
  C   C898      1.0  0.58353  0.54793  0.00329  1.0000
  H   H904      1.0  0.75701  0.92443  0.00355  1.0000
  C   C899      1.0  0.98265  0.73203  0.22882  1.0000
  H   H905      1.0  0.64269  0.67567  0.15283  1.0000
  C   C900      1.0  0.67903  0.88237  0.20501  1.0000
  C   C901      1.0  0.59784  0.50953  0.00307  1.0000
  H   H906      1.0  0.79300  0.80617  0.21182  1.0000
  C   C902      1.0  0.68148  0.92124  0.19483  1.0000
  C   C903      1.0  0.93132  0.98698  0.01241  1.0000
  H   H907      1.0  0.50518  0.66395  0.18351  1.0000
  H   H908      1.0  0.63996  0.51436  0.02689  1.0000
  H   H909      1.0  0.90761  0.96052  0.01362  1.0000
  C   C904      1.0  0.58180  0.52539  0.00950  1.0000
  C   C905      1.0  0.66991  0.64612  0.22152  1.0000
  H   H910      1.0  0.53782  0.72006  0.15511  1.0000
  H   H911      1.0  0.61191  0.50435  0.05375  1.0000
  C   C906      1.0  0.50650  0.54855  0.01319  1.0000
  C   C907      1.0  0.97234  0.77363  0.19579  1.0000
  C   C908      1.0  0.75416  0.96588  0.23400  1.0000
  C   C909      1.0  0.00001  0.79394  0.01428  1.0000
  C   C910      1.0  0.84715  0.82441  0.21746  1.0000
  Fe  Fe155     1.0  0.56074  0.60313  0.00004  1.0000
  C   C911      1.0  0.67368  0.89994  0.19116  1.0000
  H   H912      1.0  0.60810  0.63004  0.15672  1.0000
  H   H913      1.0  0.52151  0.75696  0.15946  1.0000
  H   H914      1.0  0.56798  0.52018  0.01932  1.0000
  C   C912      1.0  0.69790  0.86734  0.23620  1.0000
  N   N77       1.0  0.61858  0.65690  0.13703  1.0000
  C   C913      1.0  0.61055  0.65087  0.11822  1.0000
  C   C914      1.0  0.63629  0.67085  0.13794  1.0000
  C   C915      1.0  0.62029  0.65882  0.09964  1.0000
  C   C916      1.0  0.64618  0.67944  0.11967  1.0000
  C   C917      1.0  0.63807  0.67339  0.10041  1.0000
  H   H915      1.0  0.68914  0.62262  0.24040  1.0000
  H   H916      1.0  0.59611  0.64034  0.11750  1.0000
  H   H917      1.0  0.61061  0.67611  0.99564  1.0000
  H   H918      1.0  0.61348  0.65445  0.08474  1.0000
  H   H919      1.0  0.65984  0.69096  0.12051  1.0000
  H   H920      1.0  0.64525  0.68025  0.08610  1.0000
  H   H921      1.0  0.00002  0.86826  0.05795  1.0000
  C   C918      1.0  0.60773  0.64853  0.15617  1.0000
  C   C919      1.0  0.51147  0.75083  0.23274  1.0000
  S   S308      1.0  0.56333  0.56732  0.01233  1.0000
  C   C920      1.0  0.97861  0.79131  0.20796  1.0000
  H   H922      1.0  0.96774  0.82471  0.01647  1.0000
  C   C921      1.0  0.65430  0.66388  0.22133  1.0000
  H   H923      1.0  0.66385  0.89693  0.17752  1.0000
  H   H924      1.0  0.78174  0.89227  0.01203  1.0000
  H   H925      1.0  0.73480  0.65789  0.21891  1.0000
  H   H926      1.0  0.63363  0.68511  0.24029  1.0000
  C   C922      1.0  0.98171  0.82811  0.02637  1.0000
  C   C923      1.0  0.67701  0.63616  0.24044  1.0000
  C   C924      1.0  0.99991  0.80000  0.20554  1.0000
  H   H927      1.0  0.71596  0.86338  0.23444  1.0000
  C   C925      1.0  0.74823  0.50672  0.23953  1.0000
  H   H928      1.0  0.87798  0.98369  0.03034  1.0000
  H   H929      1.0  0.81111  0.86364  0.23623  1.0000
  C   C926      1.0  0.79779  0.79813  0.22646  1.0000
  H   H930      1.0  0.70210  0.68191  0.22813  1.0000
  N   N78       1.0  0.99974  0.81388  0.02702  1.0000
  C   C927      1.0  0.82337  0.85022  0.23617  1.0000
  C   C928      1.0  0.51725  0.72812  0.23297  1.0000
  C   C929      1.0  0.50407  0.56972  0.02163  1.0000
  H   H931      1.0  0.96732  0.79759  0.21987  1.0000
  H   H932      1.0  0.97401  0.71914  0.22089  1.0000
  C   C930      1.0  0.98152  0.84787  0.03746  1.0000
  H   H933      1.0  0.71041  0.90940  0.23876  1.0000
  S   S309      1.0  0.92087  0.91705  0.00126  1.0000
  H   H934      1.0  0.67316  0.86582  0.20188  1.0000
  H   H935      1.0  0.86753  0.80199  0.23639  1.0000
  C   C931      1.0  0.91084  0.97761  0.01756  1.0000
  H   H936      1.0  0.96752  0.85951  0.03614  1.0000
  H   H937      1.0  0.75825  0.52148  0.23999  1.0000
  C   C932      1.0  0.73147  0.66200  0.23501  1.0000
  H   H938      1.0  0.99605  0.88442  0.99556  1.0000
  H   H939      1.0  0.96819  0.91371  0.00486  1.0000
  C   C933      1.0  0.99981  0.85285  0.04952  1.0000
  C   C934      1.0  0.71321  0.67558  0.24016  1.0000
  N   N79       1.0  0.51108  0.72766  0.17617  1.0000
  C   C935      1.0  0.51480  0.75173  0.17500  1.0000
  H   H940      1.0  0.50621  0.69531  0.24219  1.0000
  C   C936      1.0  0.77820  0.89630  0.99584  1.0000
  C   C937      1.0  0.96277  0.89855  0.99789  1.0000
  C   C938      1.0  0.77214  0.00158  0.22677  1.0000
  H   H941      1.0  0.94399  0.97709  0.00449  1.0000
  C   C939      1.0  0.50201  0.71291  0.24191  1.0000
  H   H942      1.0  0.58110  0.70545  0.99420  1.0000
  C   C940      1.0  0.59895  0.60277  0.44050  1.0000
  C   C941      1.0  0.74485  0.97522  0.25218  1.0000
  S   S310      1.0  0.93836  0.86451  0.45993  1.0000
  N   N80       1.0  0.81148  0.77879  0.26403  1.0000
  Fe  Fe156     1.0  0.91806  0.83342  0.45821  1.0000
  S   S311      1.0  0.89973  0.82811  0.42769  1.0000
  Fe  Fe157     1.0  0.96410  0.84227  0.47508  1.0000
  H   H943      1.0  0.61674  0.60578  0.43992  1.0000
  H   H944      1.0  0.79221  0.80434  0.27859  1.0000
  H   H945      1.0  0.92078  0.85271  0.38741  1.0000
  S   S312      1.0  0.61862  0.53097  0.46786  1.0000
  S   S313      1.0  0.94253  0.73818  0.24998  1.0000
  H   H946      1.0  0.54886  0.63366  0.49145  1.0000
  Fe  Fe158     1.0  0.64551  0.55659  0.46519  1.0000
  S   S314      1.0  0.65051  0.57123  0.43189  1.0000
  S   S315      1.0  0.99796  0.84663  0.45962  1.0000
  Fe  Fe159     1.0  0.72707  0.58247  0.32609  1.0000
  S   S316      1.0  0.75485  0.56885  0.30560  1.0000
  S   S317      1.0  0.72685  0.57127  0.36062  1.0000
  Fe  Fe160     1.0  0.70617  0.60794  0.28903  1.0000
  S   S318      1.0  0.73178  0.59550  0.26605  1.0000
  S   S319      1.0  0.67789  0.63310  0.28364  1.0000
  Fe  Fe161     1.0  0.72834  0.56164  0.28225  1.0000
  S   S320      1.0  0.72081  0.52637  0.27027  1.0000
  Fe  Fe162     1.0  0.75654  0.60362  0.29102  1.0000
  S   S321      1.0  0.78884  0.62159  0.28083  1.0000
  S   S322      1.0  0.70061  0.57397  0.30356  1.0000
  S   S323      1.0  0.73090  0.61750  0.31321  1.0000
  Fe  Fe163     1.0  0.87881  0.78223  0.28478  1.0000
  S   S324      1.0  0.87977  0.75161  0.26543  1.0000
  S   S325      1.0  0.85672  0.81296  0.27954  1.0000
  Fe  Fe164     1.0  0.90560  0.76019  0.32026  1.0000
  S   S326      1.0  0.90808  0.72753  0.30335  1.0000
  S   S327      1.0  0.92130  0.76243  0.35259  1.0000
  Fe  Fe165     1.0  0.91623  0.74890  0.27469  1.0000
  S   S328      1.0  0.62877  0.57827  0.48937  1.0000
  Fe  Fe166     1.0  0.87175  0.73249  0.29520  1.0000
  S   S329      1.0  0.84044  0.71135  0.30200  1.0000
  S   S330      1.0  0.91550  0.78115  0.29207  1.0000
  S   S331      1.0  0.86917  0.76353  0.31418  1.0000
  H   H947      1.0  0.55897  0.54884  0.42458  1.0000
  H   H948      1.0  0.73206  0.67540  0.30792  1.0000
  H   H949      1.0  0.98214  0.90057  0.46558  1.0000
  C   C942      1.0  0.88126  0.72338  0.36529  1.0000
  C   C943      1.0  0.80283  0.64669  0.28707  1.0000
  C   C944      1.0  0.82260  0.65222  0.27618  1.0000
  C   C945      1.0  0.83426  0.67187  0.28036  1.0000
  C   C946      1.0  0.82627  0.68645  0.29553  1.0000
  C   C947      1.0  0.80651  0.68093  0.30646  1.0000
  C   C948      1.0  0.79490  0.66123  0.30233  1.0000
  C   C949      1.0  0.99263  0.90698  0.47758  1.0000
  H   H950      1.0  0.84941  0.67570  0.27180  1.0000
  H   H951      1.0  0.80014  0.69192  0.31831  1.0000
  H   H952      1.0  0.77994  0.65721  0.31110  1.0000
  C   C950      1.0  0.83178  0.84149  0.25507  1.0000
  H   H953      1.0  0.97459  0.76969  0.26688  1.0000
  H   H954      1.0  0.53605  0.59105  0.44298  1.0000
  H   H955      1.0  0.83033  0.97388  0.43481  1.0000
  C   C951      1.0  0.54230  0.61704  0.49064  1.0000
  C   C952      1.0  0.56093  0.61626  0.44230  1.0000
  C   C953      1.0  0.58370  0.62050  0.44169  1.0000
  C   C954      1.0  0.89405  0.69171  0.34574  1.0000
  C   C955      1.0  0.95278  0.82342  0.37909  1.0000
  C   C956      1.0  0.65273  0.66150  0.25913  1.0000
  C   C957      1.0  0.96726  0.80489  0.37913  1.0000
  H   H956      1.0  0.69381  0.68966  0.26502  1.0000
  C   C958      1.0  0.93655  0.85659  0.39532  1.0000
  C   C959      1.0  0.74018  0.65831  0.27145  1.0000
  Fe  Fe167     1.0  0.60351  0.55142  0.49336  1.0000
  C   C960      1.0  0.84760  0.82395  0.25528  1.0000
  C   C961      1.0  0.67212  0.57097  0.41240  1.0000
  C   C962      1.0  0.69333  0.56176  0.41602  1.0000
  C   C963      1.0  0.70988  0.56234  0.40012  1.0000
  C   C964      1.0  0.70550  0.57194  0.38032  1.0000
  C   C965      1.0  0.68421  0.58092  0.37662  1.0000
  C   C966      1.0  0.66773  0.58050  0.39257  1.0000
  H   H957      1.0  0.69708  0.55442  0.43114  1.0000
  H   H958      1.0  0.72624  0.55532  0.40323  1.0000
  H   H959      1.0  0.68048  0.58829  0.36152  1.0000
  H   H960      1.0  0.65145  0.58773  0.38953  1.0000
  C   C967      1.0  0.70866  0.68002  0.26108  1.0000
  N   N81       1.0  0.95160  0.83709  0.39582  1.0000
  H   H961      1.0  0.69412  0.87171  0.25257  1.0000
  H   H962      1.0  0.51889  0.55755  0.48793  1.0000
  N   N82       1.0  0.87251  0.68617  0.34201  1.0000
  C   C968      1.0  0.56108  0.55391  0.44090  1.0000
  H   H963      1.0  0.83817  0.69502  0.34602  1.0000
  N   N83       1.0  0.72225  0.67163  0.27639  1.0000
  C   C969      1.0  0.90503  0.80872  0.40753  1.0000
  C   C970      1.0  0.92036  0.79100  0.40967  1.0000
  C   C971      1.0  0.92460  0.77664  0.39291  1.0000
  C   C972      1.0  0.91388  0.77997  0.37370  1.0000
  C   C973      1.0  0.89832  0.79746  0.37167  1.0000
  C   C974      1.0  0.89387  0.81165  0.38850  1.0000
  H   H964      1.0  0.92900  0.78840  0.42420  1.0000
  H   H965      1.0  0.93660  0.76311  0.39474  1.0000
  H   H966      1.0  0.88985  0.80024  0.35705  1.0000
  H   H967      1.0  0.88186  0.82518  0.38668  1.0000
  C   C975      1.0  0.86815  0.66720  0.32881  1.0000
  H   H968      1.0  0.90776  0.68203  0.33921  1.0000
  H   H969      1.0  0.85045  0.66210  0.32992  1.0000
  H   H970      1.0  0.87178  0.67188  0.31227  1.0000
  H   H971      1.0  0.87864  0.65253  0.33341  1.0000
  H   H972      1.0  0.73423  0.96514  0.26219  1.0000
  C   C976      1.0  0.98064  0.80049  0.39638  1.0000
  C   C977      1.0  0.81839  0.98821  0.43358  1.0000
  H   H973      1.0  0.87094  0.93970  0.45475  1.0000
  C   C978      1.0  0.55672  0.59841  0.49307  1.0000
  C   C979      1.0  0.81805  0.76837  0.28393  1.0000
  H   H974      1.0  0.71816  0.52085  0.36977  1.0000
  C   C980      1.0  0.66852  0.64391  0.25935  1.0000
  H   H975      1.0  0.73392  0.51992  0.31350  1.0000
  C   C981      1.0  0.74915  0.99747  0.25764  1.0000
  H   H976      1.0  0.80158  0.98184  0.43041  1.0000
  H   H977      1.0  0.88475  0.73817  0.37401  1.0000
  C   C982      1.0  0.59119  0.58096  0.44018  1.0000
  H   H978      1.0  0.70874  0.69253  0.30001  1.0000
  H   H979      1.0  0.83238  0.75662  0.28201  1.0000
  H   H980      1.0  0.64602  0.66755  0.27369  1.0000
  S   S332      1.0  0.66741  0.53877  0.48893  1.0000
  H   H981      1.0  0.67963  0.52716  0.38259  1.0000
  H   H982      1.0  0.60318  0.56731  0.43913  1.0000
  C   C983      1.0  0.72933  0.50500  0.25248  1.0000
  C   C984      1.0  0.98290  0.76039  0.25474  1.0000
  C   C985      1.0  0.69215  0.52181  0.32385  1.0000
  H   H983      1.0  0.94469  0.87080  0.38710  1.0000
  S   S333      1.0  0.86151  0.98362  0.46935  1.0000
  H   H984      1.0  0.58954  0.63747  0.44220  1.0000
  C   C986      1.0  0.97962  0.81476  0.41320  1.0000
  C   C987      1.0  0.79750  0.79704  0.26402  1.0000
  C   C988      1.0  0.70468  0.52161  0.35872  1.0000
  H   H985      1.0  0.89252  0.90736  0.46924  1.0000
  C   C989      1.0  0.85935  0.71774  0.36128  1.0000
  H   H986      1.0  0.54887  0.62988  0.44354  1.0000
  C   C990      1.0  0.96502  0.83316  0.41258  1.0000
  C   C991      1.0  0.73218  0.51718  0.33063  1.0000
  C   C992      1.0  0.55376  0.59422  0.44201  1.0000
  C   C993      1.0  0.87923  0.94112  0.46947  1.0000
  C   C994      1.0  0.87755  0.96123  0.48022  1.0000
  H   H987      1.0  0.75069  0.65124  0.28355  1.0000
  H   H988      1.0  0.99163  0.78596  0.39679  1.0000
  H   H989      1.0  0.96439  0.84412  0.42573  1.0000
  H   H990      1.0  0.94198  0.82635  0.36588  1.0000
  H   H991      1.0  0.64882  0.53115  0.35735  1.0000
  H   H992      1.0  0.96748  0.79363  0.36615  1.0000
  C   C995      1.0  0.89147  0.92274  0.47764  1.0000
  H   H993      1.0  0.91585  0.71489  0.36018  1.0000
  H   H994      1.0  0.54508  0.55211  0.44965  1.0000
  S   S334      1.0  0.94448  0.81092  0.47191  1.0000
  S   S335      1.0  0.90129  0.83962  0.48940  1.0000
  N   N84       1.0  0.70910  0.52035  0.33783  1.0000
  H   H995      1.0  0.82589  0.84829  0.26963  1.0000
  H   H996      1.0  0.80400  0.75893  0.29096  1.0000
  C   C996      1.0  0.89874  0.71027  0.35755  1.0000
  C   C997      1.0  0.85524  0.69892  0.34959  1.0000
  N   N85       1.0  0.56887  0.57690  0.44135  1.0000
  C   C998      1.0  0.51953  0.61427  0.48691  1.0000
  H   H997      1.0  0.84566  0.72814  0.36680  1.0000
  H   H998      1.0  0.74308  0.52942  0.33804  1.0000
  H   H999      1.0  0.57309  0.54227  0.44874  1.0000
  C   C999      1.0  0.71685  0.67591  0.29827  1.0000
  H   H1000     1.0  0.93162  0.86155  0.41132  1.0000
  C   C1000     1.0  0.66564  0.52760  0.35187  1.0000
  C   C1001     1.0  0.68291  0.52526  0.36605  1.0000
  H   H1001     1.0  0.75921  0.64246  0.24707  1.0000
  H   H1002     1.0  0.98994  0.81163  0.42675  1.0000
  H   H1003     1.0  0.70527  0.66302  0.30446  1.0000
  C   C1002     1.0  0.52551  0.57416  0.48868  1.0000
  C   C1003     1.0  0.54835  0.57688  0.49201  1.0000
  C   C1004     1.0  0.51117  0.59275  0.48602  1.0000
  C   C1005     1.0  0.67021  0.52570  0.33062  1.0000
  H   H1004     1.0  0.65698  0.52763  0.31938  1.0000
  H   H1005     1.0  0.69557  0.52057  0.30729  1.0000
  H   H1006     1.0  0.82900  0.64116  0.26438  1.0000
  Fe  Fe168     1.0  0.63897  0.51457  0.49288  1.0000
  H   H1007     1.0  0.81755  0.99630  0.44897  1.0000
  Fe  Fe169     1.0  0.92423  0.86863  0.49203  1.0000
  H   H1008     1.0  0.82337  0.78126  0.29488  1.0000
  H   H1009     1.0  0.77983  0.82179  0.24525  1.0000
  C   C1006     1.0  0.74509  0.65332  0.25074  1.0000
  H   H1010     1.0  0.79985  0.99742  0.39648  1.0000
  C   C1007     1.0  0.79039  0.80693  0.24526  1.0000
  C   C1008     1.0  0.97131  0.74391  0.24456  1.0000
  S   S336      1.0  0.50200  0.63797  0.48348  1.0000
  C   C1009     1.0  0.81867  0.76991  0.24566  1.0000
  H   H1011     1.0  0.82987  0.75553  0.24566  1.0000
  Fe  Fe170     1.0  0.92937  0.81916  0.50349  1.0000
  S   S337      1.0  0.92054  0.79183  0.52782  1.0000
  S   S338      1.0  0.95160  0.84848  0.50762  1.0000
  Fe  Fe171     1.0  0.91920  0.75414  0.69924  1.0000
  S   S339      1.0  0.90380  0.78540  0.68488  1.0000
  S   S340      1.0  0.95120  0.76168  0.71747  1.0000
  Fe  Fe172     1.0  0.88151  0.72555  0.68140  1.0000
  S   S341      1.0  0.86502  0.75510  0.66540  1.0000
  S   S342      1.0  0.86720  0.68998  0.68352  1.0000
  Fe  Fe173     1.0  0.89948  0.76604  0.65562  1.0000
  S   S343      1.0  0.90963  0.78832  0.62729  1.0000
  Fe  Fe174     1.0  0.87070  0.77248  0.69548  1.0000
  S   S344      1.0  0.83959  0.79077  0.70706  1.0000
  S   S345      1.0  0.91627  0.73507  0.66951  1.0000
  S   S346      1.0  0.88591  0.74261  0.71199  1.0000
  Fe  Fe175     1.0  0.69968  0.60533  0.69046  1.0000
  S   S347      1.0  0.73006  0.60387  0.71023  1.0000
  S   S348      1.0  0.66590  0.62007  0.69928  1.0000
  Fe  Fe176     1.0  0.72181  0.57842  0.65570  1.0000
  S   S349      1.0  0.75417  0.57491  0.67342  1.0000
  S   S350      1.0  0.71597  0.56041  0.62511  1.0000
  Fe  Fe177     1.0  0.73233  0.56736  0.70183  1.0000
  S   S351      1.0  0.73595  0.54278  0.72995  1.0000
  Fe  Fe178     1.0  0.74948  0.61160  0.68057  1.0000
  S   S352      1.0  0.77213  0.64232  0.67549  1.0000
  S   S353      1.0  0.70073  0.56880  0.68364  1.0000
  S   S354      1.0  0.71831  0.61506  0.66116  1.0000
  Fe  Fe179     1.0  0.64892  0.55870  0.51353  1.0000
  S   S355      1.0  0.66228  0.57920  0.54057  1.0000
  H   H1012     1.0  0.64872  0.53311  0.60259  1.0000
  S   S356      1.0  0.62218  0.53320  0.51885  1.0000
  H   H1013     1.0  0.75092  0.63976  0.63365  1.0000
  C   C1010     1.0  0.79394  0.61131  0.63635  1.0000
  H   H1014     1.0  0.72784  0.50424  0.70327  1.0000
  H   H1015     1.0  0.96912  0.89984  0.50244  1.0000
  H   H1016     1.0  0.51414  0.71653  0.69934  1.0000
  H   H1017     1.0  0.62766  0.64010  0.71941  1.0000
  C   C1011     1.0  0.70223  0.56642  0.60107  1.0000
  C   C1012     1.0  0.69872  0.54890  0.58734  1.0000
  C   C1013     1.0  0.68700  0.55250  0.56860  1.0000
  C   C1014     1.0  0.67882  0.57380  0.56313  1.0000
  C   C1015     1.0  0.68289  0.59144  0.57659  1.0000
  C   C1016     1.0  0.69437  0.58780  0.59547  1.0000
  H   H1018     1.0  0.70484  0.53231  0.59137  1.0000
  H   H1019     1.0  0.68416  0.53876  0.55844  1.0000
  H   H1020     1.0  0.67677  0.60801  0.57251  1.0000
  H   H1021     1.0  0.69704  0.60152  0.60566  1.0000
  C   C1017     1.0  0.97591  0.75131  0.73005  1.0000
  C   C1018     1.0  0.82604  0.72902  0.71448  1.0000
  H   H1022     1.0  0.81775  0.58700  0.64821  1.0000
  H   H1023     1.0  0.60721  0.69865  0.73092  1.0000
  C   C1019     1.0  0.84039  0.67734  0.68155  1.0000
  C   C1020     1.0  0.82154  0.68894  0.67413  1.0000
  C   C1021     1.0  0.80091  0.67802  0.67255  1.0000
  C   C1022     1.0  0.79861  0.65536  0.67848  1.0000
  C   C1023     1.0  0.81742  0.64379  0.68595  1.0000
  C   C1024     1.0  0.83808  0.65466  0.68737  1.0000
  H   H1024     1.0  0.82291  0.70626  0.66931  1.0000
  H   H1025     1.0  0.78661  0.68723  0.66664  1.0000
  H   H1026     1.0  0.81613  0.62641  0.69060  1.0000
  H   H1027     1.0  0.85244  0.64540  0.69311  1.0000
  H   H1028     1.0  0.75495  0.97660  0.67808  1.0000
  C   C1025     1.0  0.90040  0.94437  0.50753  1.0000
  S   S357      1.0  0.91707  0.90138  0.50805  1.0000
  C   C1026     1.0  0.64229  0.64546  0.72739  1.0000
  C   C1027     1.0  0.76358  0.59732  0.61768  1.0000
  H   H1029     1.0  0.76301  0.56165  0.61405  1.0000
  N   N86       1.0  0.77470  0.61489  0.62551  1.0000
  C   C1028     1.0  0.81653  0.82123  0.73037  1.0000
  C   C1029     1.0  0.68230  0.64534  0.73088  1.0000
  C   C1030     1.0  0.66351  0.63837  0.72043  1.0000
  N   N87       1.0  0.88204  0.84398  0.55449  1.0000
  S   S358      1.0  0.53972  0.72289  0.73616  1.0000
  C   C1031     1.0  0.79167  0.57177  0.63106  1.0000
  H   H1030     1.0  0.60695  0.72746  0.72288  1.0000
  H   H1031     1.0  0.98411  0.77622  0.68791  1.0000
  C   C1032     1.0  0.77200  0.57555  0.62015  1.0000
  H   H1032     1.0  0.79809  0.55490  0.63346  1.0000
  C   C1033     1.0  0.87219  0.82843  0.58817  1.0000
  H   H1033     1.0  0.81191  0.71836  0.71038  1.0000
  C   C1034     1.0  0.98313  0.73333  0.67794  1.0000
  H   H1034     1.0  0.77771  0.65037  0.62666  1.0000
  C   C1035     1.0  0.91936  0.79059  0.55562  1.0000
  C   C1036     1.0  0.92557  0.80841  0.56778  1.0000
  C   C1037     1.0  0.92294  0.80712  0.58967  1.0000
  C   C1038     1.0  0.91399  0.78810  0.59975  1.0000
  C   C1039     1.0  0.90827  0.77007  0.58765  1.0000
  C   C1040     1.0  0.91096  0.77134  0.56576  1.0000
  H   H1035     1.0  0.93220  0.82326  0.56030  1.0000
  H   H1036     1.0  0.92752  0.82116  0.59882  1.0000
  H   H1037     1.0  0.90142  0.75530  0.59509  1.0000
  H   H1038     1.0  0.90615  0.75740  0.55656  1.0000
  C   C1041     1.0  0.87537  0.82495  0.54529  1.0000
  C   C1042     1.0  0.80269  0.58974  0.63931  1.0000
  H   H1039     1.0  0.98789  0.78430  0.73545  1.0000
  C   C1043     1.0  0.96853  0.74940  0.64537  1.0000
  H   H1040     1.0  0.96673  0.73270  0.63963  1.0000
  C   C1044     1.0  0.96163  0.76755  0.63287  1.0000
  C   C1045     1.0  0.97106  0.79218  0.66034  1.0000
  C   C1046     1.0  0.96288  0.78905  0.64046  1.0000
  C   C1047     1.0  0.88070  0.84582  0.57567  1.0000
  H   H1041     1.0  0.65236  0.60840  0.64939  1.0000
  H   H1042     1.0  0.87183  0.82955  0.60502  1.0000
  H   H1043     1.0  0.99414  0.91293  0.52993  1.0000
  C   C1048     1.0  0.98543  0.90634  0.49832  1.0000
  H   H1044     1.0  0.90941  0.85702  0.53724  1.0000
  C   C1049     1.0  0.86522  0.80905  0.57889  1.0000
  C   C1050     1.0  0.85537  0.81644  0.73900  1.0000
  N   N88       1.0  0.65004  0.58212  0.62742  1.0000
  C   C1051     1.0  0.63931  0.59556  0.61310  1.0000
  C   C1052     1.0  0.65331  0.55991  0.62386  1.0000
  C   C1053     1.0  0.63126  0.58673  0.59477  1.0000
  C   C1054     1.0  0.64538  0.55053  0.60574  1.0000
  C   C1055     1.0  0.67949  0.57324  0.73944  1.0000
  C   C1056     1.0  0.65964  0.59170  0.64596  1.0000
  H   H1045     1.0  0.63745  0.61331  0.61551  1.0000
  H   H1046     1.0  0.66290  0.54953  0.63466  1.0000
  H   H1047     1.0  0.62911  0.55728  0.57648  1.0000
  H   H1048     1.0  0.72484  0.96912  0.72387  1.0000
  C   C1057     1.0  0.98079  0.72852  0.73267  1.0000
  H   H1049     1.0  0.62354  0.59749  0.58301  1.0000
  C   C1058     1.0  0.79891  0.75490  0.72996  1.0000
  C   C1059     1.0  0.90203  0.92425  0.49679  1.0000
  H   H1050     1.0  0.58322  0.75473  0.73970  1.0000
  C   C1060     1.0  0.76537  0.63752  0.62289  1.0000
  H   H1051     1.0  0.80246  0.62514  0.64309  1.0000
  H   H1052     1.0  0.67790  0.59335  0.64363  1.0000
  H   H1053     1.0  0.76000  0.64067  0.60660  1.0000
  C   C1061     1.0  0.73869  0.97745  0.73066  1.0000
  H   H1054     1.0  0.86229  0.79192  0.54997  1.0000
  C   C1062     1.0  0.99136  0.76662  0.73734  1.0000
  C   C1063     1.0  0.83738  0.81100  0.72663  1.0000
  H   H1055     1.0  0.69873  0.64018  0.72563  1.0000
  C   C1064     1.0  0.71058  0.85413  0.74062  1.0000
  C   C1065     1.0  0.76669  0.98977  0.67467  1.0000
  H   H1056     1.0  0.74795  0.59999  0.60963  1.0000
  H   H1057     1.0  0.95453  0.76498  0.61769  1.0000
  H   H1058     1.0  0.87742  0.82300  0.52863  1.0000
  H   H1059     1.0  0.88666  0.86057  0.58307  1.0000
  H   H1060     1.0  0.69452  0.56791  0.73046  1.0000
  H   H1061     1.0  0.57428  0.60068  0.49568  1.0000
  H   H1062     1.0  0.83172  0.73840  0.70030  1.0000
  H   H1063     1.0  0.65655  0.58087  0.65995  1.0000
  C   C1066     1.0  0.63433  0.56407  0.59111  1.0000
  H   H1064     1.0  0.97144  0.80875  0.66666  1.0000
  H   H1065     1.0  0.90845  0.94568  0.52238  1.0000
  H   H1066     1.0  0.83983  0.71763  0.71959  1.0000
  C   C1067     1.0  0.73196  0.51349  0.73508  1.0000
  C   C1068     1.0  0.59616  0.71311  0.72689  1.0000
  N   N89       1.0  0.97691  0.75263  0.66472  1.0000
  H   H1067     1.0  0.96918  0.71644  0.72727  1.0000
  C   C1069     1.0  0.88830  0.96282  0.49927  1.0000
  H   H1068     1.0  0.80254  0.81715  0.72087  1.0000
  H   H1069     1.0  0.88243  0.86487  0.52714  1.0000
  C   C1070     1.0  0.86674  0.80728  0.55731  1.0000
  C   C1071     1.0  0.97813  0.77367  0.67231  1.0000
  H   H1070     1.0  0.58618  0.70924  0.71307  1.0000
  H   H1071     1.0  0.72882  0.85687  0.74068  1.0000
  C   C1072     1.0  0.89204  0.86177  0.54161  1.0000
  H   H1072     1.0  0.95675  0.80316  0.63118  1.0000
  H   H1073     1.0  0.87150  0.80868  0.73630  1.0000
  H   H1074     1.0  0.85944  0.79511  0.58849  1.0000
  C   C1073     1.0  0.51035  0.72498  0.73164  1.0000
  H   H1075     1.0  0.89235  0.87787  0.54977  1.0000
  H   H1076     1.0  0.70437  0.85607  0.72450  1.0000
  N   N90       1.0  0.81947  0.74476  0.73066  1.0000
  H   H1077     1.0  0.78744  0.75109  0.71774  1.0000
  H   H1078     1.0  0.78507  0.98356  0.70265  1.0000
  C   C1074     1.0  0.78375  0.99385  0.68858  1.0000
  H   H1079     1.0  0.96825  0.72757  0.68691  1.0000
  C   C1075     1.0  0.74369  0.99949  0.72394  1.0000
  H   H1080     1.0  0.51273  0.59494  0.53093  1.0000
  H   H1081     1.0  0.50488  0.63540  0.52804  1.0000
  H   H1082     1.0  0.66768  0.58092  0.72808  1.0000
  C   C1076     1.0  0.00074  0.72125  0.74236  1.0000
  H   H1083     1.0  0.88706  0.97814  0.50774  1.0000
  H   H1084     1.0  0.98985  0.71940  0.66853  1.0000
  H   H1085     1.0  0.99618  0.73766  0.68918  1.0000
  H   H1086     1.0  0.75134  0.00033  0.64585  1.0000
  H   H1087     1.0  0.77647  0.77908  0.74384  1.0000
  C   C1077     1.0  0.50242  0.72096  0.71155  1.0000
  C   C1078     1.0  0.99944  0.91376  0.51373  1.0000
  S   S359      1.0  0.56562  0.55285  0.49422  1.0000
  C   C1079     1.0  0.76901  0.90711  0.95461  1.0000
  H   H1088     1.0  0.78860  0.94287  0.88829  1.0000
  Fe  Fe180     1.0  0.84359  0.91388  0.96482  1.0000
  H   H1089     1.0  0.70822  0.83663  0.74628  1.0000
  S   S360      1.0  0.83297  0.89428  0.93626  1.0000
  C   C1080     1.0  0.99591  0.70705  0.79529  1.0000
  H   H1090     1.0  0.91575  0.87375  0.98193  1.0000
  N   N91       1.0  0.59779  0.70706  0.94358  1.0000
  S   S361      1.0  0.87121  0.93893  0.96610  1.0000
  C   C1081     1.0  0.59289  0.71902  0.92395  1.0000
  H   H1091     1.0  0.65475  0.87259  0.78740  1.0000
  H   H1092     1.0  0.57463  0.71994  0.92140  1.0000
  S   S362      1.0  0.54186  0.61188  0.97091  1.0000
  H   H1093     1.0  0.79005  0.87897  0.94757  1.0000
  Fe  Fe181     1.0  0.56674  0.63935  0.96578  1.0000
  S   S363      1.0  0.58700  0.64540  0.93562  1.0000
  C   C1082     1.0  0.61442  0.69118  0.94436  1.0000
  H   H1094     1.0  0.80330  0.78939  0.77083  1.0000
  C   C1083     1.0  0.71179  0.60524  0.77777  1.0000
  Fe  Fe182     1.0  0.59329  0.71298  0.82322  1.0000
  S   S364      1.0  0.58184  0.74358  0.80502  1.0000
  S   S365      1.0  0.57261  0.70574  0.85296  1.0000
  Fe  Fe183     1.0  0.62750  0.70204  0.78924  1.0000
  S   S366      1.0  0.61799  0.73179  0.76939  1.0000
  C   C1084     1.0  0.55249  0.70424  0.77150  1.0000
  Fe  Fe184     1.0  0.61828  0.75048  0.79919  1.0000
  S   S367      1.0  0.63055  0.78629  0.80326  1.0000
  Fe  Fe185     1.0  0.58038  0.72274  0.77492  1.0000
  H   H1095     1.0  0.54366  0.69067  0.77912  1.0000
  S   S368      1.0  0.62956  0.72112  0.81903  1.0000
  S   S369      1.0  0.59227  0.69161  0.79503  1.0000
  Fe  Fe186     1.0  0.79417  0.87629  0.78680  1.0000
  S   S370      1.0  0.76375  0.87711  0.76710  1.0000
  C   C1085     1.0  0.60729  0.68505  0.98109  1.0000
  Fe  Fe187     1.0  0.77026  0.89870  0.82309  1.0000
  S   S371      1.0  0.73741  0.90054  0.80586  1.0000
  S   S372      1.0  0.77607  0.91604  0.85413  1.0000
  Fe  Fe188     1.0  0.74536  0.86524  0.79608  1.0000
  S   S373      1.0  0.72495  0.83389  0.78984  1.0000
  Fe  Fe189     1.0  0.75784  0.91229  0.77790  1.0000
  H   H1096     1.0  0.59955  0.73614  0.92416  1.0000
  S   S374      1.0  0.77659  0.86274  0.81536  1.0000
  S   S375      1.0  0.78987  0.91229  0.79548  1.0000
  H   H1097     1.0  0.88858  0.98721  0.97307  1.0000
  C   C1086     1.0  0.68032  0.86335  0.76514  1.0000
  H   H1098     1.0  0.65161  0.60146  0.75826  1.0000
  H   H1099     1.0  0.73559  0.51657  0.76821  1.0000
  H   H1100     1.0  0.74912  0.93434  0.96646  1.0000
  S   S376      1.0  0.54672  0.66456  0.98387  1.0000
  H   H1101     1.0  0.57283  0.72492  0.96061  1.0000
  C   C1087     1.0  0.61927  0.67981  0.96306  1.0000
  H   H1102     1.0  0.81079  0.93535  0.92018  1.0000
  H   H1103     1.0  0.67447  0.84640  0.76423  1.0000
  H   H1104     1.0  0.60030  0.71039  0.91031  1.0000
  H   H1105     1.0  0.53349  0.73156  0.78773  1.0000
  C   C1088     1.0  0.65752  0.79843  0.80069  1.0000
  C   C1089     1.0  0.67504  0.78833  0.78960  1.0000
  C   C1090     1.0  0.69557  0.79927  0.78682  1.0000
  C   C1091     1.0  0.69914  0.82029  0.79535  1.0000
  C   C1092     1.0  0.68181  0.83019  0.80686  1.0000
  C   C1093     1.0  0.66110  0.81946  0.80925  1.0000
  H   H1106     1.0  0.67264  0.77223  0.78285  1.0000
  H   H1107     1.0  0.70879  0.79136  0.77792  1.0000
  H   H1108     1.0  0.68424  0.84623  0.81369  1.0000
  H   H1109     1.0  0.64774  0.82745  0.81792  1.0000
  N   N92       1.0  0.68504  0.58915  0.75541  1.0000
  S   S377      1.0  0.82838  0.86174  0.77885  1.0000
  C   C1094     1.0  0.80302  0.86550  0.98529  1.0000
  H   H1110     1.0  0.98233  0.74868  0.78486  1.0000
  C   C1095     1.0  0.57563  0.74132  0.74869  1.0000
  H   H1111     1.0  0.94363  0.84423  0.97296  1.0000
  H   H1112     1.0  0.69451  0.66377  0.75661  1.0000
  H   H1113     1.0  0.85097  0.74302  0.74555  1.0000
  C   C1096     1.0  0.82871  0.76632  0.76027  1.0000
  C   C1097     1.0  0.58208  0.66148  0.91236  1.0000
  C   C1098     1.0  0.56252  0.67406  0.90929  1.0000
  C   C1099     1.0  0.55987  0.68723  0.89092  1.0000
  C   C1100     1.0  0.57670  0.68811  0.87540  1.0000
  C   C1101     1.0  0.59623  0.67547  0.87847  1.0000
  C   C1102     1.0  0.59885  0.66225  0.89681  1.0000
  H   H1114     1.0  0.54945  0.67365  0.92104  1.0000
  H   H1115     1.0  0.54467  0.69688  0.88871  1.0000
  H   H1116     1.0  0.60932  0.67591  0.86674  1.0000
  H   H1117     1.0  0.61403  0.65255  0.89896  1.0000
  C   C1103     1.0  0.67324  0.61706  0.77958  1.0000
  C   C1104     1.0  0.67662  0.89987  0.77980  1.0000
  H   H1118     1.0  0.63170  0.54397  0.97486  1.0000
  C   C1105     1.0  0.80767  0.77650  0.75985  1.0000
  H   H1119     1.0  0.66022  0.62782  0.78593  1.0000
  C   C1106     1.0  0.65868  0.66551  0.75565  1.0000
  C   C1107     1.0  0.57027  0.69964  0.75509  1.0000
  C   C1108     1.0  0.81650  0.90067  0.91389  1.0000
  C   C1109     1.0  0.81220  0.88361  0.89990  1.0000
  C   C1110     1.0  0.79983  0.88788  0.88163  1.0000
  C   C1111     1.0  0.79131  0.90931  0.87719  1.0000
  C   C1112     1.0  0.79520  0.92625  0.89144  1.0000
  C   C1113     1.0  0.80776  0.92203  0.90960  1.0000
  H   H1120     1.0  0.81869  0.86696  0.90308  1.0000
  H   H1121     1.0  0.79690  0.87461  0.87097  1.0000
  H   H1122     1.0  0.79741  0.84433  0.74904  1.0000
  N   N93       1.0  0.83817  0.91048  0.84452  1.0000
  C   C1114     1.0  0.83780  0.89447  0.82974  1.0000
  C   C1115     1.0  0.84736  0.90585  0.86353  1.0000
  C   C1116     1.0  0.84591  0.87291  0.83412  1.0000
  C   C1117     1.0  0.85575  0.88449  0.86842  1.0000
  C   C1118     1.0  0.85483  0.86790  0.85364  1.0000
  C   C1119     1.0  0.82963  0.93301  0.83963  1.0000
  H   H1123     1.0  0.83113  0.89818  0.81443  1.0000
  H   H1124     1.0  0.84764  0.91850  0.87530  1.0000
  H   H1125     1.0  0.84515  0.86023  0.82238  1.0000
  H   H1126     1.0  0.86237  0.88077  0.88378  1.0000
  H   H1127     1.0  0.86097  0.85117  0.85732  1.0000
  H   H1128     1.0  0.84289  0.94319  0.83213  1.0000
  H   H1129     1.0  0.81517  0.93247  0.82908  1.0000
  H   H1130     1.0  0.82332  0.94131  0.85389  1.0000
  H   H1131     1.0  0.66824  0.91145  0.79011  1.0000
  C   C1120     1.0  0.69507  0.61878  0.78634  1.0000
  N   N94       1.0  0.69891  0.86988  0.75422  1.0000
  H   H1132     1.0  0.84081  0.77131  0.77152  1.0000
  H   H1133     1.0  0.77891  0.96909  0.76673  1.0000
  C   C1121     1.0  0.75127  0.96618  0.74616  1.0000
  C   C1122     1.0  0.55813  0.74673  0.76491  1.0000
  C   C1123     1.0  0.54650  0.72796  0.77638  1.0000
  C   C1124     1.0  0.94904  0.85940  0.97991  1.0000
  C   C1125     1.0  0.59066  0.70153  0.98024  1.0000
  C   C1126     1.0  0.83152  0.84222  0.75868  1.0000
  S   S378      1.0  0.65649  0.67947  0.77955  1.0000
  H   H1134     1.0  0.55337  0.76389  0.76778  1.0000
  C   C1127     1.0  0.66904  0.87814  0.77826  1.0000
  S   S379      1.0  0.74415  0.93819  0.75382  1.0000
  H   H1135     1.0  0.72883  0.60639  0.78292  1.0000
  C   C1128     1.0  0.93321  0.87610  0.98496  1.0000
  C   C1129     1.0  0.75969  0.92004  0.97036  1.0000
  C   C1130     1.0  0.66851  0.60217  0.76390  1.0000
  C   C1131     1.0  0.58604  0.71239  0.96122  1.0000
  H   H1136     1.0  0.57394  0.68264  0.75075  1.0000
  C   C1132     1.0  0.69515  0.90660  0.76809  1.0000
  S   S380      1.0  0.99104  0.84055  0.97787  1.0000
  H   H1137     1.0  0.63166  0.66645  0.96337  1.0000
  C   C1133     1.0  0.76905  0.97736  0.75479  1.0000
  H   H1138     1.0  0.69898  0.63079  0.79804  1.0000
  H   H1139     1.0  0.79385  0.84961  0.98552  1.0000
  C   C1134     1.0  0.85243  0.83205  0.75493  1.0000
  C   C1135     1.0  0.70612  0.89132  0.75524  1.0000
  C   C1136     1.0  0.67987  0.65883  0.74838  1.0000
  H   H1140     1.0  0.62339  0.68651  0.93032  1.0000
  H   H1141     1.0  0.98250  0.70991  0.78375  1.0000
  H   H1142     1.0  0.76581  0.91124  0.93836  1.0000
  H   H1143     1.0  0.99660  0.78389  0.79812  1.0000
  C   C1137     1.0  0.70640  0.59025  0.76236  1.0000
  H   H1144     1.0  0.98925  0.69653  0.80831  1.0000
  H   H1145     1.0  0.67206  0.55815  0.74685  1.0000
  H   H1146     1.0  0.70124  0.92346  0.76914  1.0000
  C   C1138     1.0  0.97179  0.86231  0.98363  1.0000
  C   C1139     1.0  0.78288  0.88895  0.95990  1.0000
  H   H1147     1.0  0.86644  0.83629  0.76434  1.0000
  C   C1140     1.0  0.83438  0.75039  0.74547  1.0000
  N   N95       1.0  0.78785  0.88419  0.98025  1.0000
  C   C1141     1.0  0.97860  0.88197  0.99264  1.0000
  C   C1142     1.0  0.63986  0.65897  0.74494  1.0000
  C   C1143     1.0  0.81357  0.83664  0.74636  1.0000
  Fe  Fe190     1.0  0.52325  0.63623  0.99098  1.0000
  C   C1144     1.0  0.73280  0.50516  0.75579  1.0000
  C   C1145     1.0  0.60147  0.55451  0.99061  1.0000
  C   C1146     1.0  0.77407  0.99937  0.74805  1.0000
  H   H1148     1.0  0.72063  0.89668  0.74632  1.0000
  C   C1147     1.0  0.99532  0.74804  0.79642  1.0000
  H   H1149     1.0  0.62346  0.66366  0.75063  1.0000
  H   H1150     1.0  0.60299  0.57181  0.98575  1.0000
  S   S381      1.0  0.58713  0.62855  0.99372  1.0000
  C   C1148     1.0  0.61770  0.53869  0.98444  1.0000
  N   N96       1.0  0.58104  0.71814  0.74432  1.0000
  H   H1151     1.0  0.71947  0.57965  0.75587  1.0000
  Fe  Fe191     1.0  0.84946  0.95605  0.98979  1.0000
  C   C1149     1.0  0.61594  0.51616  0.99060  1.0000
  S   S382      1.0  0.82069  0.93252  0.98674  1.0000
  H   H1152     1.0  0.81688  0.86463  0.97362  1.0000
  S   S383      1.0  0.85819  0.89237  0.99088  1.0000
  C   C1150     1.0  0.76411  0.91450  0.99114  1.0000
  S   S384      1.0  0.84472  0.99358  0.99226  1.0000
  Fe  Fe192     1.0  0.88394  0.91874  0.99361  1.0000
  C   C1151     1.0  0.79262  0.77077  0.74463  1.0000
  C   C1152     1.0  0.94003  0.89576  0.99401  1.0000
