data_image0
_chemical_formula_structural       FeS2FeS2FeSFeS4CS2FeSFeS2HFeS2C8H4CNHC6H4C6H4C6H4C4HFeNC6H9CHC3FeNCFeH3CH2C2HCHCHCS2HCNH2NC6H9FeCSHCH2CH2C2HCHCH2CHCFeHC2H2C2SH2CFeS2FeS2FeSFeS4FeS2Fe2S2FeS2Fe2S2CHC6H4CH2SC6H4C6H4C3HC6H4NSC4FeNCHC2SH2NC6H2SH5CNC6HCH5C2NH2C2H3CSC2H2SH2SH2CH5C4HCHNH6CH4C2FeS2FeH2SHCSC2H2CSH2NC6H7C2HCNC6H5CH2C3HFeCSHFeSCFeCSC2S3H3NSC2SC6H4CH2SHCNH3CH2CHCH2FeH3C3H2CSH2FeS2FeSFeS3FeS2FeS2FeSFeS3FeHCFeSC6H4C3H2CNC2HC4H2C6H4C3HC7H6CHCH2FeH2CHNCH3CH2CH2CHC4HSHNC6H4C3SHCH4SH2FeS2CFeS2HCFeSFeS3HFeS2FeS2FeS2FeS2FeSFeS3CH2C6H4C6H4C7HCHCH2CHC6H4C2H3C2NHCH2C2H2CH3C3HN2CHCH2C2H3CH4CHFeCSH4NSH2CHFeH3SCH3CHFeS2CFeSFeS2FeS2FeSFeS3CHSC7H4C2H3C7H4C6H4C5H2SNCHC3H2CHCH2C2HNC4H3CFeH2NCHCHCFeHCH2SHC4HCHFeHNHSNH3FeC2HCHSCH2CH2SH4CHFeS2FeSHC2HFeS2FeS2FeSFeS3CFeS2FeHSC2FeC6H4C6H4CHSC4H5C7H7C2H2CHCH2CHNHCH2CHC3H2CHNC2NCH4SNHCH3CHC3H2CH3NH2C2HS2FeSC5HSCNCHS2H3NC7H6C3H2SFeSCHC2H6C2FeCSFeCSHCHSHCH2C6H4SCHNHCHCHC2HNCH5FeC4SCHSHCSCHCH4FeS2FeS2FeSFeS3FeSHCH2S2FeSFeS2FeSC6H4SC2SHCHC6H4C6H4C3H2C6H5FeSC2H2CH3CHCH2CHSC2HCH3C6HC2H3NH5C5HNH8C2H2SNH3NCFeH2C2NC2HCHCHCNCFeS2FeS2FeSFeS3FeHSHS2FeSH3FeS2Fe2S2CH2C7H4NC7H4C6H4C6H6CHCHCFeH2SHC2SNHCH2NCHSH2CHNC6H8C2HC2H3CSCHCSHCSC2NCH3CHCHCH2CH2C2SHCHCHNH3FeCHCHSC2HCHC3HCHCHCH
_chemical_formula_sum              "Fe96 S192 C576 H576 N48"
_cell_length_a       62.3297
_cell_length_b       62.5661
_cell_length_c       26.0677
_cell_angle_alpha    88.5392
_cell_angle_beta     88.681
_cell_angle_gamma    89.3778

_space_group_name_H-M_alt    "P 1"
_space_group_IT_number       1

loop_
  _space_group_symop_operation_xyz
  'x, y, z'

loop_
  _atom_site_type_symbol
  _atom_site_label
  _atom_site_symmetry_multiplicity
  _atom_site_fract_x
  _atom_site_fract_y
  _atom_site_fract_z
  _atom_site_occupancy
  Fe  Fe1       1.0  0.13419  0.16215  0.00013  1.0000
  S   S1        1.0  0.14496  0.14912  0.92437  1.0000
  S   S2        1.0  0.11915  0.19525  0.99599  1.0000
  Fe  Fe2       1.0  0.14552  0.12046  0.05821  1.0000
  S   S3        1.0  0.15693  0.10439  0.98609  1.0000
  S   S4        1.0  0.14817  0.10756  0.14081  1.0000
  Fe  Fe3       1.0  0.17311  0.13561  0.96693  1.0000
  S   S5        1.0  0.20563  0.13852  0.92703  1.0000
  Fe  Fe4       1.0  0.12765  0.11944  0.94940  1.0000
  S   S6        1.0  0.10875  0.10191  0.88990  1.0000
  S   S7        1.0  0.16377  0.15100  0.04088  1.0000
  S   S8        1.0  0.11488  0.13309  0.02322  1.0000
  S   S9        1.0  0.29163  0.13040  0.05094  1.0000
  C   C1        1.0  0.01447  0.24193  0.56012  1.0000
  S   S10       1.0  0.15709  0.02529  0.38509  1.0000
  S   S11       1.0  0.15466  0.01258  0.23504  1.0000
  Fe  Fe5       1.0  0.12787  0.00920  0.41926  1.0000
  S   S12       1.0  0.09583  0.02209  0.44770  1.0000
  Fe  Fe6       1.0  0.02556  0.13565  0.68079  1.0000
  S   S13       1.0  0.04272  0.15171  0.61413  1.0000
  S   S14       1.0  0.03382  0.14593  0.76095  1.0000
  H   H1        1.0  0.28620  0.05425  0.44993  1.0000
  Fe  Fe7       1.0  0.04675  0.11851  0.58463  1.0000
  S   S15       1.0  0.08068  0.10957  0.56041  1.0000
  S   S16       1.0  0.03158  0.10248  0.65379  1.0000
  C   C2        1.0  0.29772  0.00386  0.41138  1.0000
  C   C3        1.0  0.20784  0.23956  0.97950  1.0000
  C   C4        1.0  0.09227  0.04610  0.48059  1.0000
  C   C5        1.0  0.07132  0.05270  0.49375  1.0000
  C   C6        1.0  0.06762  0.07207  0.51865  1.0000
  C   C7        1.0  0.08489  0.08499  0.53029  1.0000
  C   C8        1.0  0.10589  0.07831  0.51751  1.0000
  C   C9        1.0  0.10961  0.05882  0.49291  1.0000
  H   H2        1.0  0.05785  0.04289  0.48427  1.0000
  H   H3        1.0  0.05141  0.07711  0.52842  1.0000
  H   H4        1.0  0.11930  0.08828  0.52655  1.0000
  H   H5        1.0  0.12583  0.05378  0.48314  1.0000
  C   C10       1.0  0.29557  0.04009  0.44074  1.0000
  N   N1        1.0  0.19195  0.20773  0.94816  1.0000
  H   H6        1.0  0.09319  0.07375  0.38677  1.0000
  C   C11       1.0  0.05468  0.13349  0.79631  1.0000
  C   C12       1.0  0.06335  0.11364  0.78281  1.0000
  C   C13       1.0  0.07945  0.10392  0.81272  1.0000
  C   C14       1.0  0.08754  0.11420  0.85545  1.0000
  C   C15       1.0  0.07897  0.13412  0.86873  1.0000
  C   C16       1.0  0.06242  0.14357  0.83965  1.0000
  H   H7        1.0  0.05758  0.10569  0.74957  1.0000
  H   H8        1.0  0.08603  0.08853  0.80209  1.0000
  H   H9        1.0  0.08501  0.14219  0.90161  1.0000
  H   H10       1.0  0.05577  0.15889  0.85058  1.0000
  C   C17       1.0  0.15118  0.08097  0.16530  1.0000
  C   C18       1.0  0.14940  0.06318  0.13435  1.0000
  C   C19       1.0  0.15107  0.04236  0.15612  1.0000
  C   C20       1.0  0.15424  0.03910  0.20906  1.0000
  C   C21       1.0  0.15627  0.05691  0.23987  1.0000
  C   C22       1.0  0.15486  0.07771  0.21800  1.0000
  H   H11       1.0  0.14644  0.06541  0.09382  1.0000
  H   H12       1.0  0.14948  0.02867  0.13200  1.0000
  H   H13       1.0  0.15884  0.05466  0.28054  1.0000
  H   H14       1.0  0.15634  0.09138  0.24224  1.0000
  C   C23       1.0  0.26828  0.13589  0.01570  1.0000
  C   C24       1.0  0.24847  0.13733  0.04229  1.0000
  C   C25       1.0  0.22915  0.13878  0.01555  1.0000
  C   C26       1.0  0.22956  0.13877  0.96192  1.0000
  C   C27       1.0  0.24939  0.13824  0.93527  1.0000
  C   C28       1.0  0.26873  0.13679  0.96205  1.0000
  H   H15       1.0  0.24805  0.13665  0.08382  1.0000
  H   H16       1.0  0.21397  0.13930  0.03645  1.0000
  H   H17       1.0  0.24980  0.13834  0.89374  1.0000
  H   H18       1.0  0.28390  0.13562  0.94125  1.0000
  C   C29       1.0  0.10444  0.08000  0.27110  1.0000
  C   C30       1.0  0.15222  0.21657  0.04037  1.0000
  C   C31       1.0  0.13362  0.21816  0.01155  1.0000
  C   C32       1.0  0.10568  0.04498  0.30837  1.0000
  H   H19       1.0  0.15768  0.20111  0.05459  1.0000
  Fe  Fe8       1.0  0.00013  0.10596  0.61267  1.0000
  N   N2        1.0  0.09781  0.14871  0.72001  1.0000
  C   C33       1.0  0.09722  0.13506  0.67988  1.0000
  C   C34       1.0  0.11090  0.14439  0.76051  1.0000
  C   C35       1.0  0.10941  0.11615  0.68046  1.0000
  C   C36       1.0  0.12334  0.12565  0.76229  1.0000
  C   C37       1.0  0.12245  0.11139  0.72212  1.0000
  C   C38       1.0  0.08503  0.16852  0.71850  1.0000
  H   H20       1.0  0.08717  0.13861  0.64723  1.0000
  H   H21       1.0  0.11132  0.15511  0.79253  1.0000
  H   H22       1.0  0.10858  0.10524  0.64881  1.0000
  H   H23       1.0  0.13304  0.12187  0.79551  1.0000
  H   H24       1.0  0.13171  0.09662  0.72352  1.0000
  H   H25       1.0  0.06950  0.16604  0.69951  1.0000
  H   H26       1.0  0.08085  0.17392  0.75783  1.0000
  H   H27       1.0  0.09399  0.18129  0.69719  1.0000
  H   H28       1.0  0.18207  0.18205  0.90219  1.0000
  C   C39       1.0  0.24445  0.01261  0.51749  1.0000
  H   H29       1.0  0.23807  0.02781  0.52994  1.0000
  C   C40       1.0  0.00698  0.24257  0.46972  1.0000
  C   C41       1.0  0.10205  0.04949  0.21680  1.0000
  C   C42       1.0  0.01197  0.21945  0.56265  1.0000
  Fe  Fe9       1.0  0.01097  0.15249  0.57550  1.0000
  N   N3        1.0  0.10630  0.06667  0.31329  1.0000
  C   C43       1.0  0.26533  0.00613  0.53211  1.0000
  Fe  Fe10      1.0  0.17629  0.99839  0.42331  1.0000
  H   H30       1.0  0.02465  0.06903  0.78419  1.0000
  H   H31       1.0  0.16124  0.19418  0.94153  1.0000
  H   H32       1.0  0.18173  0.23941  0.92732  1.0000
  C   C44       1.0  0.32018  0.23819  0.97934  1.0000
  H   H33       1.0  0.23065  0.19489  0.03287  1.0000
  H   H34       1.0  0.10134  0.04275  0.17894  1.0000
  C   C45       1.0  0.10852  0.07547  0.36445  1.0000
  C   C46       1.0  0.32398  0.22710  0.02558  1.0000
  H   H35       1.0  0.02415  0.09923  0.84362  1.0000
  C   C47       1.0  0.17581  0.19744  0.91741  1.0000
  H   H36       1.0  0.99964  0.21184  0.43844  1.0000
  C   C48       1.0  0.10229  0.07161  0.22224  1.0000
  H   H37       1.0  0.10173  0.08220  0.18860  1.0000
  C   C49       1.0  0.10371  0.03605  0.26009  1.0000
  S   S17       1.0  0.00090  0.18023  0.52084  1.0000
  S   S18       1.0  0.20555  0.00907  0.46925  1.0000
  H   H38       1.0  0.10429  0.01882  0.25608  1.0000
  C   C50       1.0  0.16368  0.23507  0.05115  1.0000
  N   N4        1.0  0.31931  0.00332  0.41976  1.0000
  H   H39       1.0  0.10511  0.09720  0.27473  1.0000
  H   H40       1.0  0.32413  0.20972  0.02696  1.0000
  N   N5        1.0  0.21857  0.08701  0.06130  1.0000
  C   C51       1.0  0.23717  0.08635  0.08822  1.0000
  C   C52       1.0  0.21923  0.08694  0.00877  1.0000
  C   C53       1.0  0.25710  0.08513  0.06256  1.0000
  C   C54       1.0  0.23888  0.08569  0.98190  1.0000
  C   C55       1.0  0.25791  0.08477  0.00907  1.0000
  C   C56       1.0  0.19790  0.08938  0.08865  1.0000
  H   H41       1.0  0.23672  0.08726  0.12973  1.0000
  H   H42       1.0  0.20458  0.08849  0.98724  1.0000
  H   H43       1.0  0.27189  0.08548  0.08374  1.0000
  H   H44       1.0  0.23937  0.08636  0.94025  1.0000
  H   H45       1.0  0.27332  0.08478  0.98878  1.0000
  H   H46       1.0  0.19828  0.08201  0.12791  1.0000
  H   H47       1.0  0.19363  0.10659  0.09192  1.0000
  H   H48       1.0  0.18488  0.08134  0.06832  1.0000
  H   H49       1.0  0.11291  0.09265  0.36263  1.0000
  Fe  Fe11      1.0  0.15369  0.00279  0.32015  1.0000
  C   C57       1.0  0.01182  0.09836  0.81504  1.0000
  S   S19       1.0  0.01617  0.11985  0.54069  1.0000
  H   H50       1.0  0.20392  0.17812  0.97868  1.0000
  C   C58       1.0  0.32927  0.02074  0.43869  1.0000
  H   H51       1.0  0.17807  0.23372  0.07351  1.0000
  H   H52       1.0  0.31717  0.05867  0.81780  1.0000
  C   C59       1.0  0.22153  0.22708  0.00980  1.0000
  H   H53       1.0  0.10708  0.03445  0.34183  1.0000
  H   H54       1.0  0.31731  0.22907  0.94536  1.0000
  C   C60       1.0  0.19294  0.22956  0.94899  1.0000
  C   C61       1.0  0.00395  0.22015  0.47254  1.0000
  H   H55       1.0  0.26831  0.02237  0.41600  1.0000
  C   C62       1.0  0.31759  0.03938  0.44939  1.0000
  H   H56       1.0  0.27480  0.01637  0.55533  1.0000
  C   C63       1.0  0.20514  0.19539  0.97824  1.0000
  H   H57       1.0  0.12139  0.06677  0.38553  1.0000
  H   H58       1.0  0.11351  0.00743  0.54374  1.0000
  C   C64       1.0  0.01218  0.08121  0.78159  1.0000
  H   H59       1.0  0.17113  0.20771  0.88407  1.0000
  C   C65       1.0  0.00642  0.20836  0.51895  1.0000
  Fe  Fe12      1.0  0.32574  0.13399  0.01897  1.0000
  H   H60       1.0  0.01377  0.21079  0.59875  1.0000
  C   C66       1.0  0.12645  0.23839  0.99417  1.0000
  C   C67       1.0  0.22023  0.20483  0.00919  1.0000
  H   H61       1.0  0.11199  0.23970  0.97205  1.0000
  H   H62       1.0  0.01193  0.13393  0.86442  1.0000
  C   C68       1.0  0.28556  0.02228  0.42130  1.0000
  C   C69       1.0  0.32898  0.23849  0.06896  1.0000
  S   S20       1.0  0.33146  0.02803  0.58688  1.0000
  H   H63       1.0  0.32561  0.05300  0.46507  1.0000
  H   H64       1.0  0.23283  0.23470  0.03440  1.0000
  C   C70       1.0  0.23172  0.99964  0.48706  1.0000
  Fe  Fe13      1.0  0.14151  0.35140  0.06698  1.0000
  S   S21       1.0  0.13255  0.32831  0.00594  1.0000
  S   S22       1.0  0.12142  0.36553  0.13261  1.0000
  Fe  Fe14      1.0  0.18840  0.35400  0.02715  1.0000
  S   S23       1.0  0.18289  0.33112  0.96440  1.0000
  S   S24       1.0  0.22017  0.37022  0.03921  1.0000
  Fe  Fe15      1.0  0.15230  0.34972  0.95153  1.0000
  S   S25       1.0  0.14587  0.35831  0.86738  1.0000
  Fe  Fe16      1.0  0.16409  0.31201  0.02371  1.0000
  S   S26       1.0  0.17328  0.27747  0.04202  1.0000
  S   S27       1.0  0.15892  0.37382  0.01120  1.0000
  S   S28       1.0  0.17180  0.33386  0.08774  1.0000
  S   S29       1.0  0.30631  0.32519  0.96100  1.0000
  Fe  Fe17      1.0  0.15571  0.46055  0.67988  1.0000
  S   S30       1.0  0.17769  0.44393  0.62418  1.0000
  S   S31       1.0  0.15399  0.45179  0.76550  1.0000
  Fe  Fe18      1.0  0.18620  0.47669  0.59278  1.0000
  Fe  Fe19      1.0  0.14951  0.44609  0.57154  1.0000
  S   S32       1.0  0.14232  0.41714  0.52453  1.0000
  S   S33       1.0  0.12683  0.46048  0.62948  1.0000
  Fe  Fe20      1.0  0.03817  0.32896  0.35650  1.0000
  S   S34       1.0  0.05081  0.32291  0.43620  1.0000
  S   S35       1.0  0.05502  0.31740  0.28331  1.0000
  Fe  Fe21      1.0  0.01761  0.31056  0.45579  1.0000
  Fe  Fe22      1.0  0.03736  0.35563  0.45313  1.0000
  S   S36       1.0  0.04753  0.38338  0.50092  1.0000
  S   S37       1.0  0.02765  0.36258  0.37195  1.0000
  C   C71       1.0  0.26359  0.49140  0.54866  1.0000
  H   H65       1.0  0.30150  0.27910  0.92831  1.0000
  C   C72       1.0  0.11587  0.40828  0.51670  1.0000
  C   C73       1.0  0.11243  0.38950  0.48971  1.0000
  C   C74       1.0  0.09155  0.38160  0.48438  1.0000
  C   C75       1.0  0.07405  0.39240  0.50641  1.0000
  C   C76       1.0  0.07748  0.41125  0.53303  1.0000
  C   C77       1.0  0.09829  0.41925  0.53789  1.0000
  H   H66       1.0  0.12599  0.38096  0.47319  1.0000
  H   H67       1.0  0.08904  0.36709  0.46370  1.0000
  H   H68       1.0  0.06396  0.41976  0.54985  1.0000
  H   H69       1.0  0.10072  0.43389  0.55799  1.0000
  C   C78       1.0  0.25890  0.46855  0.45947  1.0000
  H   H70       1.0  0.02202  0.40706  0.29616  1.0000
  H   H71       1.0  0.32629  0.28868  0.01689  1.0000
  S   S38       1.0  0.00538  0.31534  0.37540  1.0000
  C   C79       1.0  0.10140  0.35287  0.17176  1.0000
  C   C80       1.0  0.09480  0.36236  0.21800  1.0000
  C   C81       1.0  0.07989  0.35219  0.25178  1.0000
  C   C82       1.0  0.07128  0.33248  0.23928  1.0000
  C   C83       1.0  0.07720  0.32346  0.19207  1.0000
  C   C84       1.0  0.09225  0.33353  0.15855  1.0000
  H   H72       1.0  0.10173  0.37739  0.22831  1.0000
  H   H73       1.0  0.07556  0.35923  0.28809  1.0000
  H   H74       1.0  0.07042  0.30835  0.18180  1.0000
  H   H75       1.0  0.09688  0.32624  0.12271  1.0000
  C   C85       1.0  0.14925  0.38435  0.83994  1.0000
  C   C86       1.0  0.14874  0.40255  0.86996  1.0000
  C   C87       1.0  0.15027  0.42305  0.84651  1.0000
  C   C88       1.0  0.15255  0.42559  0.79292  1.0000
  C   C89       1.0  0.15348  0.40737  0.76289  1.0000
  C   C90       1.0  0.15176  0.38687  0.78634  1.0000
  H   H76       1.0  0.14667  0.40089  0.91118  1.0000
  H   H77       1.0  0.14949  0.43705  0.87007  1.0000
  H   H78       1.0  0.15538  0.40907  0.72162  1.0000
  H   H79       1.0  0.15234  0.37287  0.76280  1.0000
  C   C91       1.0  0.15695  0.25520  0.03220  1.0000
  C   C92       1.0  0.13816  0.25688  0.00415  1.0000
  C   C93       1.0  0.30760  0.40631  0.21477  1.0000
  H   H80       1.0  0.13282  0.27232  0.98944  1.0000
  C   C94       1.0  0.24407  0.35726  0.01859  1.0000
  C   C95       1.0  0.24351  0.33865  0.99008  1.0000
  C   C96       1.0  0.26272  0.32901  0.97265  1.0000
  C   C97       1.0  0.28263  0.33771  0.98419  1.0000
  C   C98       1.0  0.28326  0.35618  0.01324  1.0000
  C   C99       1.0  0.26400  0.36601  0.03006  1.0000
  H   H81       1.0  0.22833  0.33166  0.98130  1.0000
  H   H82       1.0  0.26212  0.31472  0.95026  1.0000
  H   H83       1.0  0.29855  0.36301  0.02226  1.0000
  H   H84       1.0  0.26456  0.38039  0.05212  1.0000
  N   N6        1.0  0.03306  0.41468  0.37039  1.0000
  S   S39       1.0  0.01377  0.28234  0.51424  1.0000
  C   C100      1.0  0.05046  0.41832  0.39988  1.0000
  C   C101      1.0  0.05646  0.40729  0.29818  1.0000
  C   C102      1.0  0.07131  0.41595  0.37965  1.0000
  C   C103      1.0  0.07429  0.41022  0.32857  1.0000
  Fe  Fe23      1.0  0.13822  0.49243  0.59792  1.0000
  N   N7        1.0  0.20452  0.40477  0.90821  1.0000
  C   C104      1.0  0.31853  0.45066  0.30437  1.0000
  H   H85       1.0  0.20235  0.41999  0.78284  1.0000
  C   C105      1.0  0.27925  0.47689  0.46990  1.0000
  C   C106      1.0  0.24110  0.47142  0.49346  1.0000
  S   S40       1.0  0.00508  0.34318  0.47876  1.0000
  H   H86       1.0  0.22571  0.46475  0.48474  1.0000
  H   H87       1.0  0.20362  0.43520  0.86914  1.0000
  N   N8        1.0  0.10388  0.40526  0.72493  1.0000
  C   C107      1.0  0.10725  0.40345  0.67315  1.0000
  C   C108      1.0  0.10267  0.38736  0.75613  1.0000
  C   C109      1.0  0.11003  0.38336  0.65146  1.0000
  C   C110      1.0  0.10550  0.36701  0.73580  1.0000
  C   C111      1.0  0.10919  0.36505  0.68308  1.0000
  C   C112      1.0  0.10077  0.42648  0.74668  1.0000
  H   H88       1.0  0.10797  0.41757  0.64824  1.0000
  H   H89       1.0  0.10018  0.38873  0.79729  1.0000
  S   S41       1.0  0.15942  0.47773  0.53600  1.0000
  H   H90       1.0  0.10518  0.35292  0.76101  1.0000
  H   H91       1.0  0.11145  0.34938  0.66673  1.0000
  H   H92       1.0  0.10468  0.42643  0.78812  1.0000
  H   H93       1.0  0.11172  0.43828  0.72750  1.0000
  H   H94       1.0  0.08392  0.43197  0.74190  1.0000
  C   C113      1.0  0.20471  0.38305  0.90339  1.0000
  N   N9        1.0  0.12077  0.30108  0.23191  1.0000
  C   C114      1.0  0.13423  0.30493  0.19055  1.0000
  C   C115      1.0  0.10707  0.28411  0.23246  1.0000
  C   C116      1.0  0.13397  0.29177  0.14800  1.0000
  C   C117      1.0  0.10642  0.27063  0.19046  1.0000
  C   C118      1.0  0.12002  0.27450  0.14802  1.0000
  C   C119      1.0  0.12163  0.31479  0.27659  1.0000
  H   H95       1.0  0.14491  0.31853  0.18975  1.0000
  C   C120      1.0  0.30776  0.41869  0.25877  1.0000
  H   H96       1.0  0.31942  0.26093  0.89447  1.0000
  H   H97       1.0  0.14444  0.29502  0.11503  1.0000
  H   H98       1.0  0.99961  0.40685  0.37171  1.0000
  H   H99       1.0  0.20816  0.25689  0.98108  1.0000
  H   H100      1.0  0.12475  0.33166  0.26438  1.0000
  C   C121      1.0  0.32751  0.43386  0.16885  1.0000
  C   C122      1.0  0.31767  0.41393  0.16967  1.0000
  N   N10       1.0  0.31789  0.43801  0.25789  1.0000
  H   H101      1.0  0.30014  0.39072  0.21579  1.0000
  H   H102      1.0  0.08504  0.41815  0.40388  1.0000
  C   C123      1.0  0.20340  0.40946  0.81650  1.0000
  C   C124      1.0  0.32742  0.44580  0.21355  1.0000
  H   H103      1.0  0.11972  0.26423  0.11504  1.0000
  H   H104      1.0  0.09530  0.25740  0.19065  1.0000
  H   H105      1.0  0.25689  0.45969  0.42484  1.0000
  C   C125      1.0  0.01199  0.25371  0.51375  1.0000
  S   S42       1.0  0.30100  0.47298  0.42464  1.0000
  C   C126      1.0  0.24329  0.48293  0.53838  1.0000
  C   C127      1.0  0.03581  0.40984  0.31969  1.0000
  H   H106      1.0  0.09614  0.28128  0.26492  1.0000
  H   H107      1.0  0.20329  0.35676  0.85164  1.0000
  S   S43       1.0  0.16573  0.49367  0.65258  1.0000
  H   H108      1.0  0.09038  0.40795  0.31266  1.0000
  H   H109      1.0  0.10607  0.31483  0.29846  1.0000
  S   S44       1.0  0.22123  0.48804  0.58195  1.0000
  H   H110      1.0  0.22204  0.41134  0.97459  1.0000
  H   H111      1.0  0.20220  0.38052  0.77362  1.0000
  C   C128      1.0  0.31775  0.27160  0.92777  1.0000
  H   H112      1.0  0.11289  0.38206  0.61037  1.0000
  H   H113      1.0  0.05861  0.40264  0.25851  1.0000
  H   H114      1.0  0.19418  0.40547  0.98646  1.0000
  H   H115      1.0  0.20533  0.37261  0.93713  1.0000
  H   H116      1.0  0.20146  0.43103  0.95939  1.0000
  C   C129      1.0  0.20562  0.41373  0.95949  1.0000
  C   C130      1.0  0.20329  0.38732  0.81133  1.0000
  C   C131      1.0  0.20389  0.37399  0.85501  1.0000
  C   C132      1.0  0.20399  0.41798  0.86555  1.0000
  H   H117      1.0  0.13452  0.30911  0.30240  1.0000
  C   C133      1.0  0.28144  0.48831  0.51497  1.0000
  H   H118      1.0  0.30009  0.41258  0.29383  1.0000
  N   N11       1.0  0.32135  0.26003  0.97648  1.0000
  H   H119      1.0  0.04828  0.42244  0.43988  1.0000
  H   H120      1.0  0.01825  0.25027  0.59456  1.0000
  H   H121      1.0  0.01117  0.40915  0.43317  1.0000
  H   H122      1.0  0.00503  0.25123  0.43368  1.0000
  H   H123      1.0  0.32974  0.28454  0.92192  1.0000
  H   H124      1.0  0.29686  0.49490  0.52372  1.0000
  C   C134      1.0  0.32558  0.27136  0.01920  1.0000
  H   H125      1.0  0.31420  0.44111  0.33962  1.0000
  H   H126      1.0  0.31836  0.40412  0.13584  1.0000
  H   H127      1.0  0.30722  0.46448  0.30168  1.0000
  H   H128      1.0  0.00599  0.43308  0.39448  1.0000
  C   C135      1.0  0.01139  0.41613  0.39341  1.0000
  C   C136      1.0  0.32969  0.26078  0.06592  1.0000
  Fe  Fe24      1.0  0.02577  0.61391  0.62018  1.0000
  S   S45       1.0  0.01808  0.62064  0.53773  1.0000
  S   S46       1.0  0.05781  0.59882  0.64646  1.0000
  Fe  Fe25      1.0  0.00487  0.65285  0.56106  1.0000
  H   H129      1.0  0.04183  0.65305  0.45966  1.0000
  H   H130      1.0  0.14574  0.54872  0.59408  1.0000
  S   S47       1.0  0.01520  0.64739  0.64273  1.0000
  H   H131      1.0  0.02003  0.71153  0.58324  1.0000
  C   C137      1.0  0.01032  0.70983  0.50486  1.0000
  S   S48       1.0  0.11400  0.51814  0.56938  1.0000
  C   C138      1.0  0.19322  0.51816  0.47785  1.0000
  C   C139      1.0  0.17884  0.55092  0.61535  1.0000
  H   H132      1.0  0.17513  0.55862  0.65136  1.0000
  H   H133      1.0  0.05989  0.63104  0.47113  1.0000
  C   C140      1.0  0.16723  0.53465  0.53790  1.0000
  S   S49       1.0  0.00850  0.68132  0.50334  1.0000
  H   H134      1.0  0.07108  0.68010  0.65649  1.0000
  H   H135      1.0  0.15415  0.52975  0.51419  1.0000
  N   N12       1.0  0.18810  0.53007  0.52437  1.0000
  C   C141      1.0  0.07225  0.57545  0.62582  1.0000
  C   C142      1.0  0.08858  0.56671  0.65680  1.0000
  C   C143      1.0  0.10104  0.54884  0.64116  1.0000
  C   C144      1.0  0.09769  0.53966  0.59355  1.0000
  C   C145      1.0  0.08143  0.54849  0.56249  1.0000
  C   C146      1.0  0.06868  0.56606  0.57860  1.0000
  H   H136      1.0  0.09157  0.57376  0.69339  1.0000
  H   H137      1.0  0.11338  0.54235  0.66574  1.0000
  H   H138      1.0  0.07863  0.54165  0.52557  1.0000
  H   H139      1.0  0.05628  0.57250  0.55410  1.0000
  H   H140      1.0  0.21304  0.54995  0.62643  1.0000
  H   H141      1.0  0.22093  0.53173  0.54509  1.0000
  H   H142      1.0  0.20594  0.52640  0.45455  1.0000
  C   C147      1.0  0.20005  0.54617  0.60131  1.0000
  C   C148      1.0  0.20442  0.53586  0.55518  1.0000
  H   H143      1.0  0.07002  0.65562  0.44275  1.0000
  C   C149      1.0  0.16232  0.54531  0.58329  1.0000
  N   N13       1.0  0.06233  0.65721  0.52231  1.0000
  C   C150      1.0  0.06025  0.67873  0.52940  1.0000
  C   C151      1.0  0.06790  0.64379  0.56225  1.0000
  C   C152      1.0  0.06345  0.68732  0.57761  1.0000
  C   C153      1.0  0.07129  0.65186  0.61094  1.0000
  C   C154      1.0  0.06893  0.67374  0.61864  1.0000
  C   C155      1.0  0.05842  0.64876  0.47145  1.0000
  H   H144      1.0  0.05544  0.68931  0.49795  1.0000
  H   H145      1.0  0.06935  0.62666  0.55711  1.0000
  H   H146      1.0  0.06130  0.70435  0.58314  1.0000
  H   H147      1.0  0.07525  0.64107  0.64272  1.0000
  H   H148      1.0  0.19918  0.50187  0.48867  1.0000
  C   C156      1.0  0.01692  0.72054  0.54820  1.0000
  H   H149      1.0  0.17898  0.51638  0.45350  1.0000
  H   H150      1.0  0.00124  0.71397  0.42586  1.0000
  C   C157      1.0  0.00625  0.72200  0.45979  1.0000
  C   C158      1.0  0.02006  0.74292  0.54580  1.0000
  C   C159      1.0  0.00871  0.74446  0.45789  1.0000
  H   H151      1.0  0.26557  0.50034  0.58316  1.0000
  Fe  Fe26      1.0  0.01933  0.85691  0.40236  1.0000
  C   C160      1.0  0.03231  0.83788  0.22427  1.0000
  S   S50       1.0  0.03869  0.88770  0.38497  1.0000
  H   H152      1.0  0.07419  0.92824  0.48300  1.0000
  Fe  Fe27      1.0  0.00928  0.81092  0.44571  1.0000
  S   S51       1.0  0.02403  0.82375  0.37082  1.0000
  C   C161      1.0  0.27389  0.98647  0.51656  1.0000
  Fe  Fe28      1.0  0.14293  0.96426  0.39287  1.0000
  C   C162      1.0  0.10276  0.93824  0.52021  1.0000
  S   S52       1.0  0.13188  0.92951  0.40666  1.0000
  C   C163      1.0  0.24028  0.97998  0.47156  1.0000
  C   C164      1.0  0.08348  0.97829  0.52469  1.0000
  S   S53       1.0  0.17409  0.97643  0.35601  1.0000
  S   S54       1.0  0.30066  0.97781  0.53115  1.0000
  S   S55       1.0  0.12293  0.98865  0.35148  1.0000
  H   H153      1.0  0.26744  0.95820  0.47406  1.0000
  H   H154      1.0  0.02568  0.75088  0.57923  1.0000
  H   H155      1.0  0.23080  0.96974  0.44833  1.0000
  N   N14       1.0  0.01773  0.85620  0.23094  1.0000
  S   S56       1.0  0.14677  0.98429  0.46261  1.0000
  C   C165      1.0  0.01595  0.75509  0.50070  1.0000
  C   C166      1.0  0.26113  0.97347  0.48632  1.0000
  S   S57       1.0  0.01980  0.78339  0.50055  1.0000
  C   C167      1.0  0.06495  0.89866  0.39064  1.0000
  C   C168      1.0  0.06859  0.91985  0.37307  1.0000
  C   C169      1.0  0.08892  0.92945  0.37702  1.0000
  C   C170      1.0  0.10605  0.91796  0.39855  1.0000
  C   C171      1.0  0.10243  0.89674  0.41591  1.0000
  C   C172      1.0  0.08207  0.88716  0.41213  1.0000
  H   H156      1.0  0.05555  0.92898  0.35633  1.0000
  H   H157      1.0  0.09133  0.94575  0.36349  1.0000
  H   H158      1.0  0.11550  0.88762  0.43257  1.0000
  H   H159      1.0  0.07966  0.87088  0.42581  1.0000
  C   C173      1.0  0.08231  0.94136  0.50060  1.0000
  H   H160      1.0  0.12921  0.95278  0.55650  1.0000
  H   H161      1.0  0.04203  0.83490  0.25902  1.0000
  S   S58       1.0  0.00716  0.84402  0.47931  1.0000
  H   H162      1.0  0.05701  0.96425  0.48580  1.0000
  C   C174      1.0  0.00934  0.88984  0.26951  1.0000
  N   N15       1.0  0.10346  0.97505  0.54429  1.0000
  H   H163      1.0  0.02310  0.82300  0.21860  1.0000
  H   H164      1.0  0.04319  0.84081  0.19062  1.0000
  H   H165      1.0  0.32982  0.97277  0.44593  1.0000
  C   C175      1.0  0.07264  0.96154  0.50235  1.0000
  H   H166      1.0  0.11079  0.92282  0.51682  1.0000
  H   H167      1.0  0.28961  0.98973  0.39874  1.0000
  C   C176      1.0  0.02317  0.87234  0.26242  1.0000
  H   H168      1.0  0.03809  0.87159  0.28311  1.0000
  C   C177      1.0  0.11315  0.95533  0.54223  1.0000
  H   H169      1.0  0.13136  0.98924  0.57554  1.0000
  H   H170      1.0  0.32559  0.97503  0.37773  1.0000
  Fe  Fe29      1.0  0.32911  0.99307  0.57143  1.0000
  H   H171      1.0  0.01351  0.90225  0.29579  1.0000
  H   H172      1.0  0.07597  0.99402  0.52549  1.0000
  H   H173      1.0  0.00548  0.75347  0.42287  1.0000
  C   C178      1.0  0.99910  0.85741  0.20419  1.0000
  C   C179      1.0  0.11412  0.99279  0.56881  1.0000
  C   C180      1.0  0.33154  0.98350  0.41144  1.0000
  H   H174      1.0  0.10603  0.99622  0.60612  1.0000
  H   H175      1.0  0.40274  0.09308  0.61056  1.0000
  C   C181      1.0  0.37253  0.11999  0.75892  1.0000
  S   S59       1.0  0.60199  0.01945  0.41240  1.0000
  H   H176      1.0  0.37057  0.07139  0.59382  1.0000
  H   H177      1.0  0.33369  0.08301  0.87935  1.0000
  Fe  Fe30      1.0  0.37103  0.13385  0.06372  1.0000
  S   S60       1.0  0.38641  0.14210  0.98652  1.0000
  S   S61       1.0  0.38370  0.12820  0.14519  1.0000
  Fe  Fe31      1.0  0.35902  0.16551  0.97673  1.0000
  S   S62       1.0  0.36096  0.19851  0.93863  1.0000
  Fe  Fe32      1.0  0.36390  0.11809  0.95315  1.0000
  S   S63       1.0  0.37830  0.09644  0.89073  1.0000
  S   S64       1.0  0.34523  0.15915  0.05564  1.0000
  S   S65       1.0  0.35058  0.10803  0.03128  1.0000
  Fe  Fe33      1.0  0.52248  0.12514  0.40123  1.0000
  S   S66       1.0  0.50777  0.13741  0.47494  1.0000
  S   S67       1.0  0.55745  0.11275  0.39475  1.0000
  Fe  Fe34      1.0  0.48230  0.13832  0.34002  1.0000
  S   S68       1.0  0.46468  0.15075  0.40972  1.0000
  S   S69       1.0  0.47295  0.13988  0.25554  1.0000
  Fe  Fe35      1.0  0.49590  0.16632  0.43015  1.0000
  S   S70       1.0  0.49332  0.20131  0.45801  1.0000
  Fe  Fe36      1.0  0.47775  0.12123  0.44972  1.0000
  S   S71       1.0  0.46154  0.10073  0.51190  1.0000
  S   S72       1.0  0.51283  0.15541  0.35770  1.0000
  S   S73       1.0  0.49315  0.10744  0.37866  1.0000
  Fe  Fe37      1.0  0.34663  0.01816  0.66160  1.0000
  H   H178      1.0  0.42144  0.08168  0.35004  1.0000
  C   C182      1.0  0.37086  0.08137  0.62727  1.0000
  Fe  Fe38      1.0  0.36490  0.02564  0.55340  1.0000
  S   S74       1.0  0.37395  0.05091  0.49318  1.0000
  C   C183      1.0  0.43765  0.08644  0.50394  1.0000
  C   C184      1.0  0.43208  0.07045  0.54044  1.0000
  C   C185      1.0  0.41281  0.05920  0.53690  1.0000
  C   C186      1.0  0.39878  0.06406  0.49714  1.0000
  C   C187      1.0  0.40431  0.08005  0.46050  1.0000
  C   C188      1.0  0.42377  0.09115  0.46368  1.0000
  H   H179      1.0  0.44281  0.06671  0.57155  1.0000
  H   H180      1.0  0.40886  0.04681  0.56503  1.0000
  H   H181      1.0  0.39340  0.08403  0.42994  1.0000
  H   H182      1.0  0.42780  0.10368  0.43586  1.0000
  C   C189      1.0  0.50276  0.22518  0.48667  1.0000
  C   C190      1.0  0.52337  0.22660  0.50663  1.0000
  C   C191      1.0  0.40045  0.00365  0.80914  1.0000
  H   H183      1.0  0.55500  0.13757  0.49350  1.0000
  H   H184      1.0  0.53413  0.21302  0.50534  1.0000
  C   C192      1.0  0.38916  0.10605  0.68049  1.0000
  N   N16       1.0  0.37178  0.10665  0.71352  1.0000
  C   C193      1.0  0.36568  0.07891  0.84833  1.0000
  C   C194      1.0  0.35320  0.08211  0.66107  1.0000
  H   H185      1.0  0.39213  0.08192  0.28663  1.0000
  C   C195      1.0  0.34683  0.05142  0.77735  1.0000
  C   C196      1.0  0.36892  0.05519  0.77485  1.0000
  C   C197      1.0  0.37828  0.06872  0.81041  1.0000
  C   C198      1.0  0.38894  0.09348  0.63681  1.0000
  H   H186      1.0  0.37879  0.04760  0.74571  1.0000
  H   H187      1.0  0.39539  0.07147  0.80831  1.0000
  C   C199      1.0  0.40817  0.13480  0.17462  1.0000
  C   C200      1.0  0.42730  0.13768  0.14634  1.0000
  C   C201      1.0  0.44685  0.13994  0.17187  1.0000
  C   C202      1.0  0.44754  0.13939  0.22586  1.0000
  C   C203      1.0  0.42832  0.13718  0.25415  1.0000
  C   C204      1.0  0.40878  0.13493  0.22862  1.0000
  H   H188      1.0  0.42712  0.13756  0.10485  1.0000
  H   H189      1.0  0.46160  0.14174  0.14957  1.0000
  H   H190      1.0  0.42856  0.13679  0.29564  1.0000
  H   H191      1.0  0.39407  0.13271  0.25089  1.0000
  C   C205      1.0  0.37093  0.22060  0.97111  1.0000
  C   C206      1.0  0.37798  0.21872  0.02159  1.0000
  C   C207      1.0  0.35384  0.09510  0.70395  1.0000
  H   H192      1.0  0.37850  0.20318  0.04076  1.0000
  C   C208      1.0  0.34359  0.07527  0.85050  1.0000
  C   C209      1.0  0.59014  0.04568  0.40779  1.0000
  C   C210      1.0  0.56764  0.04785  0.41282  1.0000
  C   C211      1.0  0.55737  0.06811  0.40917  1.0000
  C   C212      1.0  0.56946  0.08662  0.40022  1.0000
  C   C213      1.0  0.59196  0.08448  0.39531  1.0000
  C   C214      1.0  0.60224  0.06421  0.39913  1.0000
  H   H193      1.0  0.55802  0.03373  0.41957  1.0000
  H   H194      1.0  0.54009  0.06937  0.41314  1.0000
  H   H195      1.0  0.60157  0.09858  0.38826  1.0000
  H   H196      1.0  0.61951  0.06293  0.39506  1.0000
  H   H197      1.0  0.45777  0.23291  0.60854  1.0000
  H   H198      1.0  0.57400  0.15594  0.51957  1.0000
  C   C215      1.0  0.54706  0.19126  0.40344  1.0000
  H   H199      1.0  0.53430  0.20318  0.40583  1.0000
  C   C216      1.0  0.57872  0.15992  0.39736  1.0000
  H   H200      1.0  0.54028  0.17770  0.47849  1.0000
  H   H201      1.0  0.47522  0.10002  0.19029  1.0000
  Fe  Fe39      1.0  0.63442  0.00114  0.41225  1.0000
  H   H202      1.0  0.34011  0.09533  0.73030  1.0000
  H   H203      1.0  0.55639  0.20021  0.32588  1.0000
  C   C217      1.0  0.33428  0.06148  0.81547  1.0000
  H   H204      1.0  0.38949  0.23551  0.08666  1.0000
  N   N17       1.0  0.56639  0.16161  0.44126  1.0000
  C   C218      1.0  0.48908  0.24324  0.48988  1.0000
  H   H205      1.0  0.38694  0.11587  0.78175  1.0000
  H   H206      1.0  0.40335  0.11527  0.68789  1.0000
  H   H207      1.0  0.59069  0.14728  0.39396  1.0000
  C   C219      1.0  0.53019  0.24571  0.52873  1.0000
  H   H208      1.0  0.58277  0.13504  0.47718  1.0000
  H   H209      1.0  0.37303  0.13718  0.74730  1.0000
  C   C220      1.0  0.57535  0.17376  0.35524  1.0000
  H   H210      1.0  0.41543  0.01066  0.82026  1.0000
  H   H211      1.0  0.36508  0.24237  0.90745  1.0000
  C   C221      1.0  0.37039  0.24084  0.94660  1.0000
  H   H212      1.0  0.48420  0.09374  0.25311  1.0000
  C   C222      1.0  0.38413  0.23707  0.04756  1.0000
  C   C223      1.0  0.55946  0.18958  0.35849  1.0000
  C   C224      1.0  0.56979  0.14692  0.48518  1.0000
  C   C225      1.0  0.55059  0.17688  0.44448  1.0000
  H   H213      1.0  0.47970  0.07225  0.20954  1.0000
  S   S75       1.0  0.38024  0.01848  0.62909  1.0000
  H   H214      1.0  0.58469  0.17189  0.32000  1.0000
  N   N18       1.0  0.45130  0.08646  0.24034  1.0000
  C   C226      1.0  0.43533  0.08618  0.20522  1.0000
  C   C227      1.0  0.44650  0.08459  0.29175  1.0000
  C   C228      1.0  0.41384  0.08432  0.22130  1.0000
  C   C229      1.0  0.42518  0.08276  0.30920  1.0000
  C   C230      1.0  0.40877  0.08273  0.27366  1.0000
  C   C231      1.0  0.47372  0.08803  0.22241  1.0000
  H   H215      1.0  0.43906  0.08816  0.16452  1.0000
  H   H216      1.0  0.45912  0.08485  0.31966  1.0000
  H   H217      1.0  0.40116  0.08514  0.19335  1.0000
  H   H218      1.0  0.38142  0.02265  0.86184  1.0000
  C   C232      1.0  0.49074  0.23780  0.62760  1.0000
  C   C233      1.0  0.36189  0.00202  0.81784  1.0000
  C   C234      1.0  0.38131  0.01043  0.83298  1.0000
  S   S76       1.0  0.33748  0.14220  0.93876  1.0000
  H   H219      1.0  0.35839  0.11749  0.78518  1.0000
  C   C235      1.0  0.46886  0.24266  0.62907  1.0000
  H   H220      1.0  0.33921  0.07241  0.65466  1.0000
  H   H221      1.0  0.47310  0.24246  0.47470  1.0000
  H   H222      1.0  0.49672  0.22439  0.60562  1.0000
  H   H223      1.0  0.34631  0.02026  0.44621  1.0000
  S   S77       1.0  0.33408  0.03427  0.73436  1.0000
  H   H224      1.0  0.34683  0.00772  0.83457  1.0000
  H   H225      1.0  0.33282  0.23000  0.10444  1.0000
  Fe  Fe40      1.0  0.64320  0.47849  0.61589  1.0000
  S   S78       1.0  0.65810  0.48342  0.53685  1.0000
  S   S79       1.0  0.62916  0.44591  0.64217  1.0000
  C   C236      1.0  0.43439  0.30095  0.10969  1.0000
  Fe  Fe41      1.0  0.38298  0.35293  0.96236  1.0000
  S   S80       1.0  0.39591  0.34336  0.04005  1.0000
  S   S81       1.0  0.40234  0.37057  0.89918  1.0000
  H   H226      1.0  0.47343  0.40641  0.47255  1.0000
  C   C237      1.0  0.38229  0.39276  0.72024  1.0000
  Fe  Fe42      1.0  0.36479  0.35657  0.07270  1.0000
  S   S82       1.0  0.35879  0.36981  0.15308  1.0000
  Fe  Fe43      1.0  0.37804  0.31273  0.02936  1.0000
  S   S83       1.0  0.38959  0.28023  0.05804  1.0000
  S   S84       1.0  0.35278  0.36835  0.99579  1.0000
  S   S85       1.0  0.36745  0.32130  0.94990  1.0000
  H   H227      1.0  0.49957  0.41674  0.56107  1.0000
  Fe  Fe44      1.0  0.38242  0.46585  0.45927  1.0000
  S   S86       1.0  0.39977  0.48162  0.39219  1.0000
  S   S87       1.0  0.40181  0.45336  0.52641  1.0000
  Fe  Fe45      1.0  0.37391  0.46740  0.34471  1.0000
  S   S88       1.0  0.38133  0.45636  0.26318  1.0000
  S   S89       1.0  0.35849  0.44919  0.41108  1.0000
  Fe  Fe46      1.0  0.51089  0.31937  0.58483  1.0000
  S   S90       1.0  0.52273  0.33576  0.65530  1.0000
  S   S91       1.0  0.52602  0.28695  0.56301  1.0000
  Fe  Fe47      1.0  0.47733  0.35489  0.56666  1.0000
  S   S92       1.0  0.48597  0.37302  0.63602  1.0000
  S   S93       1.0  0.45085  0.36424  0.51238  1.0000
  Fe  Fe48      1.0  0.52048  0.36712  0.61003  1.0000
  S   S94       1.0  0.54095  0.39753  0.59644  1.0000
  Fe  Fe49      1.0  0.48756  0.34067  0.67548  1.0000
  S   S95       1.0  0.47180  0.32743  0.74922  1.0000
  S   S96       1.0  0.51129  0.35023  0.53812  1.0000
  S   S97       1.0  0.47624  0.32291  0.60749  1.0000
  C   C238      1.0  0.51655  0.26375  0.53193  1.0000
  H   H228      1.0  0.40875  0.34666  0.75025  1.0000
  H   H229      1.0  0.42808  0.34964  0.61393  1.0000
  C   C239      1.0  0.41563  0.42876  0.52136  1.0000
  C   C240      1.0  0.43066  0.42285  0.55858  1.0000
  C   C241      1.0  0.44173  0.40320  0.55600  1.0000
  C   C242      1.0  0.43748  0.38913  0.51675  1.0000
  C   C243      1.0  0.42249  0.39505  0.47952  1.0000
  C   C244      1.0  0.41168  0.41487  0.48158  1.0000
  H   H230      1.0  0.43377  0.43356  0.58945  1.0000
  H   H231      1.0  0.45332  0.39889  0.58473  1.0000
  H   H232      1.0  0.41920  0.38429  0.44887  1.0000
  H   H233      1.0  0.40011  0.41928  0.45274  1.0000
  C   C245      1.0  0.42225  0.35847  0.85926  1.0000
  C   C246      1.0  0.42613  0.33641  0.86102  1.0000
  C   C247      1.0  0.44150  0.32728  0.82737  1.0000
  C   C248      1.0  0.45300  0.34000  0.79122  1.0000
  C   C249      1.0  0.44916  0.36208  0.78942  1.0000
  C   C250      1.0  0.43394  0.37125  0.82350  1.0000
  H   H234      1.0  0.41729  0.32637  0.88830  1.0000
  H   H235      1.0  0.44442  0.31020  0.82933  1.0000
  H   H236      1.0  0.45804  0.37212  0.76223  1.0000
  H   H237      1.0  0.43112  0.38835  0.82201  1.0000
  C   C251      1.0  0.36708  0.39325  0.18376  1.0000
  C   C252      1.0  0.36193  0.39555  0.23622  1.0000
  C   C253      1.0  0.36678  0.41446  0.26167  1.0000
  C   C254      1.0  0.37683  0.43134  0.23477  1.0000
  C   C255      1.0  0.38243  0.42884  0.18261  1.0000
  C   C256      1.0  0.37763  0.40989  0.15719  1.0000
  C   C257      1.0  0.37616  0.25919  0.97283  1.0000
  H   H238      1.0  0.36239  0.41614  0.30177  1.0000
  C   C258      1.0  0.40324  0.36021  0.72708  1.0000
  H   H239      1.0  0.38166  0.40839  0.11683  1.0000
  C   C259      1.0  0.40617  0.34387  0.18325  1.0000
  H   H240      1.0  0.52619  0.28641  0.67781  1.0000
  H   H241      1.0  0.37537  0.30148  0.22004  1.0000
  C   C260      1.0  0.38292  0.25739  0.02352  1.0000
  H   H242      1.0  0.37548  0.27468  0.95367  1.0000
  C   C261      1.0  0.60452  0.43275  0.62873  1.0000
  C   C262      1.0  0.58892  0.44196  0.59699  1.0000
  C   C263      1.0  0.56972  0.43094  0.58773  1.0000
  C   C264      1.0  0.56570  0.41051  0.60986  1.0000
  C   C265      1.0  0.58134  0.40125  0.64139  1.0000
  C   C266      1.0  0.60054  0.41229  0.65072  1.0000
  H   H243      1.0  0.59163  0.45763  0.57969  1.0000
  H   H244      1.0  0.55786  0.43841  0.56335  1.0000
  H   H245      1.0  0.57864  0.38561  0.65883  1.0000
  H   H246      1.0  0.61237  0.40492  0.67539  1.0000
  C   C267      1.0  0.40367  0.38025  0.64846  1.0000
  C   C268      1.0  0.52971  0.38453  0.43692  1.0000
  H   H247      1.0  0.40687  0.36110  0.18685  1.0000
  H   H248      1.0  0.47706  0.37703  0.41167  1.0000
  H   H249      1.0  0.40924  0.38244  0.60899  1.0000
  C   C269      1.0  0.48931  0.40046  0.46241  1.0000
  C   C270      1.0  0.38982  0.33241  0.20841  1.0000
  N   N19       1.0  0.41941  0.31155  0.14531  1.0000
  H   H250      1.0  0.35374  0.38277  0.25712  1.0000
  C   C271      1.0  0.38835  0.31044  0.20169  1.0000
  H   H251      1.0  0.51341  0.36277  0.38854  1.0000
  H   H252      1.0  0.45118  0.30560  0.11679  1.0000
  C   C272      1.0  0.51167  0.37592  0.41470  1.0000
  C   C273      1.0  0.49132  0.38394  0.42744  1.0000
  H   H253      1.0  0.50535  0.29653  0.71927  1.0000
  H   H254      1.0  0.42213  0.33131  0.66640  1.0000
  C   C274      1.0  0.49586  0.26235  0.51240  1.0000
  H   H255      1.0  0.54559  0.37813  0.42828  1.0000
  H   H256      1.0  0.43319  0.34224  0.13091  1.0000
  H   H257      1.0  0.38396  0.37301  0.78930  1.0000
  C   C275      1.0  0.50420  0.42478  0.52395  1.0000
  C   C276      1.0  0.52707  0.40095  0.47206  1.0000
  C   C277      1.0  0.42093  0.33312  0.15163  1.0000
  H   H258      1.0  0.49156  0.43662  0.51331  1.0000
  N   N20       1.0  0.41045  0.36301  0.67741  1.0000
  N   N21       1.0  0.50702  0.40867  0.48441  1.0000
  C   C278      1.0  0.46142  0.26026  0.65642  1.0000
  H   H259      1.0  0.44239  0.35133  0.67306  1.0000
  C   C279      1.0  0.40338  0.30019  0.16983  1.0000
  H   H260      1.0  0.48507  0.27597  0.51460  1.0000
  H   H261      1.0  0.44443  0.26419  0.65788  1.0000
  C   C280      1.0  0.42650  0.34810  0.65650  1.0000
  C   C281      1.0  0.38915  0.37505  0.74934  1.0000
  H   H262      1.0  0.33397  0.26983  0.09905  1.0000
  H   H263      1.0  0.38434  0.40911  0.64626  1.0000
  H   H264      1.0  0.54114  0.40710  0.49028  1.0000
  C   C282      1.0  0.51295  0.28160  0.70493  1.0000
  H   H265      1.0  0.39021  0.44182  0.16146  1.0000
  H   H266      1.0  0.52207  0.24752  0.64971  1.0000
  H   H267      1.0  0.37150  0.40448  0.73725  1.0000
  H   H268      1.0  0.37790  0.34072  0.23176  1.0000
  C   C283      1.0  0.38950  0.39537  0.66935  1.0000
  H   H269      1.0  0.47018  0.28652  0.70276  1.0000
  Fe  Fe50      1.0  0.33845  0.33574  0.98916  1.0000
  C   C284      1.0  0.47609  0.27288  0.68157  1.0000
  S   S98       1.0  0.36061  0.49402  0.47527  1.0000
  H   H270      1.0  0.43027  0.30541  0.06949  1.0000
  H   H271      1.0  0.40179  0.28318  0.16377  1.0000
  H   H272      1.0  0.43344  0.28322  0.11346  1.0000
  H   H273      1.0  0.51930  0.43357  0.52994  1.0000
  N   N22       1.0  0.49759  0.26826  0.67889  1.0000
  S   S99       1.0  0.34813  0.32497  0.06762  1.0000
  H   H274      1.0  0.66234  0.43179  0.56896  1.0000
  H   H275      1.0  0.33499  0.45671  0.30956  1.0000
  C   C285      1.0  0.50498  0.25090  0.65271  1.0000
  H   H276      1.0  0.51975  0.27264  0.73816  1.0000
  Fe  Fe51      1.0  0.33759  0.47865  0.42206  1.0000
  H   H277      1.0  0.33589  0.43967  0.13441  1.0000
  H   H278      1.0  0.33581  0.46093  0.21321  1.0000
  H   H279      1.0  0.54619  0.24648  0.54380  1.0000
  S   S100      1.0  0.35216  0.49614  0.35293  1.0000
  C   C286      1.0  0.39550  0.56465  0.52972  1.0000
  H   H280      1.0  0.63964  0.55531  0.38478  1.0000
  H   H281      1.0  0.61596  0.68914  0.99964  1.0000
  H   H282      1.0  0.58762  0.59407  0.29107  1.0000
  C   C287      1.0  0.46522  0.61241  0.27521  1.0000
  H   H283      1.0  0.41629  0.59182  0.53432  1.0000
  Fe  Fe52      1.0  0.64439  0.63567  0.06511  1.0000
  S   S101      1.0  0.62959  0.64812  0.13985  1.0000
  S   S102      1.0  0.62984  0.63976  0.98722  1.0000
  C   C288      1.0  0.59258  0.61447  0.35484  1.0000
  Fe  Fe53      1.0  0.64237  0.51602  0.54104  1.0000
  S   S103      1.0  0.62299  0.52976  0.47559  1.0000
  Fe  Fe54      1.0  0.49958  0.61722  0.42540  1.0000
  S   S104      1.0  0.51267  0.63760  0.48821  1.0000
  S   S105      1.0  0.47953  0.58642  0.43391  1.0000
  Fe  Fe55      1.0  0.53412  0.63384  0.34637  1.0000
  S   S106      1.0  0.54966  0.65493  0.40304  1.0000
  S   S107      1.0  0.54404  0.62339  0.26600  1.0000
  Fe  Fe56      1.0  0.54546  0.62732  0.45931  1.0000
  S   S108      1.0  0.57213  0.61660  0.51248  1.0000
  Fe  Fe57      1.0  0.51592  0.66433  0.42802  1.0000
  S   S109      1.0  0.50753  0.70048  0.43168  1.0000
  S   S110      1.0  0.53248  0.60585  0.40111  1.0000
  S   S111      1.0  0.50042  0.64447  0.36683  1.0000
  C   C289      1.0  0.48536  0.60301  0.28352  1.0000
  H   H284      1.0  0.62426  0.54393  0.87031  1.0000
  S   S112      1.0  0.38751  0.54427  0.40282  1.0000
  C   C290      1.0  0.65292  0.55996  0.76347  1.0000
  C   C291      1.0  0.45389  0.57529  0.42247  1.0000
  C   C292      1.0  0.45184  0.55287  0.42394  1.0000
  C   C293      1.0  0.43186  0.54310  0.41655  1.0000
  C   C294      1.0  0.41349  0.55565  0.40819  1.0000
  C   C295      1.0  0.41558  0.57807  0.40598  1.0000
  C   C296      1.0  0.43563  0.58786  0.41296  1.0000
  H   H285      1.0  0.46584  0.54295  0.43112  1.0000
  H   H286      1.0  0.43060  0.52586  0.41807  1.0000
  H   H287      1.0  0.40151  0.58797  0.39951  1.0000
  H   H288      1.0  0.43687  0.60510  0.41169  1.0000
  C   C297      1.0  0.51110  0.72244  0.47382  1.0000
  C   C298      1.0  0.51411  0.71959  0.52669  1.0000
  H   H289      1.0  0.62886  0.73052  0.17938  1.0000
  H   H290      1.0  0.65848  0.57664  0.37011  1.0000
  H   H291      1.0  0.51509  0.70356  0.54306  1.0000
  C   C299      1.0  0.61414  0.58312  0.33759  1.0000
  C   C300      1.0  0.60862  0.55354  0.48745  1.0000
  C   C301      1.0  0.59102  0.55898  0.45710  1.0000
  C   C302      1.0  0.57968  0.57821  0.46455  1.0000
  C   C303      1.0  0.58617  0.59241  0.50159  1.0000
  C   C304      1.0  0.60408  0.58715  0.53124  1.0000
  C   C305      1.0  0.61508  0.56762  0.52480  1.0000
  H   H292      1.0  0.58604  0.54819  0.42793  1.0000
  H   H293      1.0  0.56602  0.58198  0.44141  1.0000
  H   H294      1.0  0.60948  0.59818  0.55939  1.0000
  H   H295      1.0  0.62884  0.56367  0.54796  1.0000
  C   C306      1.0  0.60566  0.64091  0.17387  1.0000
  C   C307      1.0  0.60020  0.65166  0.21917  1.0000
  C   C308      1.0  0.58133  0.64665  0.24754  1.0000
  C   C309      1.0  0.56774  0.63071  0.23102  1.0000
  C   C310      1.0  0.57316  0.61999  0.18564  1.0000
  C   C311      1.0  0.59203  0.62505  0.15714  1.0000
  H   H296      1.0  0.61062  0.66401  0.23232  1.0000
  H   H297      1.0  0.57723  0.65530  0.28188  1.0000
  H   H298      1.0  0.56272  0.60769  0.17236  1.0000
  H   H299      1.0  0.59601  0.61669  0.12230  1.0000
  C   C312      1.0  0.64100  0.57388  0.86278  1.0000
  C   C313      1.0  0.61278  0.72694  0.03786  1.0000
  C   C314      1.0  0.63413  0.55403  0.84532  1.0000
  C   C315      1.0  0.62416  0.72966  0.13970  1.0000
  C   C316      1.0  0.65949  0.57992  0.78070  1.0000
  H   H300      1.0  0.65077  0.73226  0.88824  1.0000
  H   H301      1.0  0.61568  0.54883  0.68810  1.0000
  S   S113      1.0  0.66100  0.55240  0.70086  1.0000
  N   N23       1.0  0.48714  0.58173  0.29630  1.0000
  C   C317      1.0  0.44885  0.57813  0.29247  1.0000
  H   H302      1.0  0.57924  0.62503  0.34562  1.0000
  C   C318      1.0  0.41515  0.57453  0.53666  1.0000
  C   C319      1.0  0.62202  0.60429  0.40900  1.0000
  C   C320      1.0  0.39452  0.54232  0.53044  1.0000
  H   H303      1.0  0.49952  0.61292  0.28008  1.0000
  H   H304      1.0  0.62083  0.58631  0.71352  1.0000
  C   C321      1.0  0.41135  0.50684  0.53573  1.0000
  H   H305      1.0  0.54370  0.55846  0.61508  1.0000
  C   C322      1.0  0.64384  0.57214  0.39272  1.0000
  H   H306      1.0  0.62617  0.69532  0.13855  1.0000
  H   H307      1.0  0.43465  0.56830  0.29731  1.0000
  C   C323      1.0  0.44687  0.59985  0.27981  1.0000
  C   C324      1.0  0.60513  0.61834  0.39711  1.0000
  H   H308      1.0  0.43112  0.60697  0.27423  1.0000
  N   N24       1.0  0.57422  0.57214  0.62550  1.0000
  C   C325      1.0  0.57665  0.59283  0.64012  1.0000
  C   C326      1.0  0.58788  0.55642  0.64275  1.0000
  C   C327      1.0  0.60473  0.56128  0.67484  1.0000
  C   C328      1.0  0.55663  0.56650  0.59214  1.0000
  H   H309      1.0  0.56599  0.60537  0.62597  1.0000
  H   H310      1.0  0.54975  0.58087  0.57221  1.0000
  H   H311      1.0  0.37937  0.53479  0.52262  1.0000
  C   C329      1.0  0.51516  0.73749  0.55878  1.0000
  Fe  Fe58      1.0  0.65655  0.52360  0.64987  1.0000
  H   H312      1.0  0.58600  0.54003  0.63110  1.0000
  H   H313      1.0  0.63146  0.60720  0.44251  1.0000
  N   N25       1.0  0.41258  0.53017  0.53828  1.0000
  C   C330      1.0  0.46923  0.56932  0.30102  1.0000
  H   H314      1.0  0.38127  0.57416  0.52153  1.0000
  C   C331      1.0  0.65365  0.58684  0.83011  1.0000
  H   H315      1.0  0.61761  0.56945  0.31392  1.0000
  C   C332      1.0  0.64011  0.54704  0.79592  1.0000
  Fe  Fe59      1.0  0.64838  0.61005  0.96531  1.0000
  H   H316      1.0  0.47057  0.55260  0.31268  1.0000
  C   C333      1.0  0.43195  0.53971  0.54481  1.0000
  H   H317      1.0  0.46392  0.62937  0.26586  1.0000
  H   H318      1.0  0.51036  0.55686  0.28744  1.0000
  S   S114      1.0  0.62614  0.51049  0.61790  1.0000
  H   H319      1.0  0.64740  0.57238  0.43434  1.0000
  C   C334      1.0  0.59344  0.59826  0.67194  1.0000
  C   C335      1.0  0.60758  0.58235  0.68924  1.0000
  C   C336      1.0  0.65497  0.73221  0.92830  1.0000
  C   C337      1.0  0.61670  0.68780  0.04221  1.0000
  H   H320      1.0  0.59563  0.61473  0.68260  1.0000
  C   C338      1.0  0.59718  0.59691  0.32449  1.0000
  H   H321      1.0  0.60145  0.63183  0.42132  1.0000
  Fe  Fe60      1.0  0.37707  0.50904  0.40532  1.0000
  H   H322      1.0  0.63154  0.67860  0.05112  1.0000
  N   N26       1.0  0.61737  0.70874  0.06591  1.0000
  H   H323      1.0  0.56260  0.55568  0.56162  1.0000
  S   S115      1.0  0.63405  0.58150  0.92609  1.0000
  N   N27       1.0  0.62606  0.58672  0.37991  1.0000
  H   H324      1.0  0.52151  0.58288  0.29450  1.0000
  H   H325      1.0  0.63485  0.53168  0.78308  1.0000
  H   H326      1.0  0.50941  0.56930  0.34953  1.0000
  Fe  Fe61      1.0  0.66023  0.65714  0.96539  1.0000
  C   C339      1.0  0.62267  0.70984  0.11639  1.0000
  C   C340      1.0  0.50816  0.57221  0.30744  1.0000
  H   H327      1.0  0.60897  0.72610  0.99758  1.0000
  C   C341      1.0  0.50969  0.74358  0.45376  1.0000
  H   H328      1.0  0.60272  0.67859  0.05758  1.0000
  S   S116      1.0  0.65796  0.68863  0.92079  1.0000
  C   C342      1.0  0.43353  0.56202  0.54426  1.0000
  H   H329      1.0  0.51697  0.73489  0.59963  1.0000
  H   H330      1.0  0.44642  0.53011  0.54898  1.0000
  C   C343      1.0  0.65934  0.71273  0.95411  1.0000
  H   H331      1.0  0.65898  0.60217  0.84293  1.0000
  H   H332      1.0  0.44902  0.56957  0.54757  1.0000
  S   S117      1.0  0.66056  0.60445  0.04551  1.0000
  H   H333      1.0  0.41168  0.50199  0.49502  1.0000
  H   H334      1.0  0.42483  0.49865  0.55561  1.0000
  H   H335      1.0  0.39628  0.50082  0.55440  1.0000
  H   H336      1.0  0.66257  0.54193  0.93688  1.0000
  C   C344      1.0  0.66481  0.71284  0.00579  1.0000
  H   H337      1.0  0.50744  0.74611  0.41302  1.0000
  Fe  Fe62      1.0  0.64269  0.83394  0.90538  1.0000
  S   S118      1.0  0.62891  0.82585  0.98408  1.0000
  S   S119      1.0  0.62849  0.82951  0.82619  1.0000
  Fe  Fe63      1.0  0.65920  0.80704  0.99730  1.0000
  S   S120      1.0  0.63042  0.87440  0.06974  1.0000
  H   H338      1.0  0.65674  0.96037  0.58390  1.0000
  C   C345      1.0  0.57014  0.97326  0.45694  1.0000
  C   C346      1.0  0.55370  0.95821  0.46170  1.0000
  H   H339      1.0  0.52279  0.80862  0.76637  1.0000
  Fe  Fe64      1.0  0.52701  0.85183  0.65512  1.0000
  S   S121      1.0  0.54534  0.83416  0.59405  1.0000
  S   S122      1.0  0.53740  0.85605  0.73730  1.0000
  Fe  Fe65      1.0  0.48777  0.86079  0.58759  1.0000
  S   S123      1.0  0.50320  0.84279  0.52181  1.0000
  S   S124      1.0  0.45360  0.87453  0.57592  1.0000
  Fe  Fe66      1.0  0.51417  0.81756  0.57904  1.0000
  S   S125      1.0  0.51353  0.78051  0.58209  1.0000
  Fe  Fe67      1.0  0.53314  0.86047  0.54144  1.0000
  S   S126      1.0  0.55140  0.87695  0.47588  1.0000
  S   S127      1.0  0.49631  0.83405  0.64366  1.0000
  S   S128      1.0  0.51722  0.87963  0.60361  1.0000
  C   C347      1.0  0.64205  0.94674  0.24454  1.0000
  Fe  Fe68      1.0  0.64533  0.95724  0.46035  1.0000
  S   S129      1.0  0.63341  0.93245  0.51857  1.0000
  S   S130      1.0  0.62957  0.96718  0.38711  1.0000
  Fe  Fe69      1.0  0.37534  0.98360  0.61083  1.0000
  H   H340      1.0  0.46935  0.77096  0.53596  1.0000
  S   S131      1.0  0.40453  0.96243  0.63291  1.0000
  C   C348      1.0  0.57467  0.79383  0.78505  1.0000
  C   C349      1.0  0.65823  0.92095  0.19331  1.0000
  Fe  Fe70      1.0  0.64798  0.85394  0.01074  1.0000
  C   C350      1.0  0.44073  0.89956  0.59050  1.0000
  C   C351      1.0  0.44983  0.91451  0.62242  1.0000
  C   C352      1.0  0.43859  0.93361  0.63444  1.0000
  C   C353      1.0  0.41820  0.93831  0.61431  1.0000
  C   C354      1.0  0.40922  0.92349  0.58182  1.0000
  C   C355      1.0  0.42034  0.90426  0.57036  1.0000
  H   H341      1.0  0.46540  0.91123  0.63852  1.0000
  H   H342      1.0  0.44580  0.94483  0.65960  1.0000
  H   H343      1.0  0.39356  0.92668  0.56611  1.0000
  H   H344      1.0  0.41301  0.89289  0.54576  1.0000
  C   C356      1.0  0.57459  0.89172  0.48800  1.0000
  C   C357      1.0  0.58357  0.90469  0.44853  1.0000
  C   C358      1.0  0.60167  0.91719  0.45733  1.0000
  C   C359      1.0  0.61106  0.91657  0.50556  1.0000
  C   C360      1.0  0.60215  0.90350  0.54494  1.0000
  C   C361      1.0  0.58385  0.89123  0.53636  1.0000
  H   H345      1.0  0.57641  0.90514  0.41110  1.0000
  H   H346      1.0  0.60834  0.92724  0.42684  1.0000
  H   H347      1.0  0.60931  0.90296  0.58239  1.0000
  H   H348      1.0  0.57702  0.88129  0.56703  1.0000
  C   C362      1.0  0.51369  0.75859  0.53869  1.0000
  H   H349      1.0  0.43450  0.98474  0.77029  1.0000
  S   S132      1.0  0.36200  0.99116  0.53267  1.0000
  C   C363      1.0  0.58004  0.78827  0.73468  1.0000
  C   C364      1.0  0.64174  0.89082  0.11625  1.0000
  C   C365      1.0  0.62924  0.89696  0.15802  1.0000
  C   C366      1.0  0.63696  0.91070  0.19506  1.0000
  H   H350      1.0  0.44317  0.83048  0.58452  1.0000
  H   H351      1.0  0.62622  0.95318  0.25286  1.0000
  H   H352      1.0  0.47015  0.78150  0.62643  1.0000
  H   H353      1.0  0.61305  0.89089  0.16205  1.0000
  H   H354      1.0  0.62491  0.91329  0.22469  1.0000
  C   C367      1.0  0.44915  0.82025  0.55425  1.0000
  C   C368      1.0  0.60386  0.83934  0.80168  1.0000
  C   C369      1.0  0.58740  0.84715  0.83362  1.0000
  C   C370      1.0  0.56735  0.85285  0.81297  1.0000
  C   C371      1.0  0.56355  0.85080  0.76034  1.0000
  C   C372      1.0  0.58018  0.84348  0.72819  1.0000
  C   C373      1.0  0.60022  0.83777  0.74882  1.0000
  H   H355      1.0  0.58998  0.84843  0.87433  1.0000
  H   H356      1.0  0.55460  0.85858  0.83811  1.0000
  H   H357      1.0  0.57752  0.84192  0.68762  1.0000
  H   H358      1.0  0.61289  0.83182  0.72382  1.0000
  H   H359      1.0  0.44110  0.78227  0.62562  1.0000
  H   H360      1.0  0.58283  0.77082  0.64313  1.0000
  H   H361      1.0  0.53255  0.92126  0.47090  1.0000
  C   C374      1.0  0.65592  0.75163  0.95414  1.0000
  C   C375      1.0  0.63850  0.91858  0.32116  1.0000
  H   H362      1.0  0.51968  0.93751  0.51970  1.0000
  H   H363      1.0  0.65185  0.97171  0.17452  1.0000
  C   C376      1.0  0.44957  0.82825  0.50363  1.0000
  H   H364      1.0  0.56622  0.93477  0.57468  1.0000
  C   C377      1.0  0.45742  0.81537  0.46439  1.0000
  H   H365      1.0  0.34888  0.98670  0.40451  1.0000
  H   H366      1.0  0.65237  0.76657  0.93408  1.0000
  C   C378      1.0  0.53869  0.80213  0.75823  1.0000
  H   H367      1.0  0.64625  0.92207  0.35791  1.0000
  N   N28       1.0  0.45656  0.80005  0.56550  1.0000
  H   H368      1.0  0.59818  0.98579  0.49184  1.0000
  C   C379      1.0  0.54457  0.79634  0.70834  1.0000
  H   H369      1.0  0.54199  0.95747  0.43169  1.0000
  H   H370      1.0  0.59579  0.96079  0.56742  1.0000
  C   C380      1.0  0.46442  0.79458  0.47606  1.0000
  H   H371      1.0  0.51044  0.77749  0.46918  1.0000
  C   C381      1.0  0.38124  0.98039  0.75661  1.0000
  C   C382      1.0  0.51130  0.76148  0.48565  1.0000
  C   C383      1.0  0.46373  0.78709  0.52710  1.0000
  H   H372      1.0  0.44424  0.84454  0.49524  1.0000
  H   H373      1.0  0.58688  0.79381  0.81416  1.0000
  C   C384      1.0  0.58528  0.97429  0.49532  1.0000
  H   H374      1.0  0.53283  0.79792  0.67835  1.0000
  N   N29       1.0  0.40025  0.98858  0.77197  1.0000
  C   C385      1.0  0.36179  0.98695  0.77935  1.0000
  C   C386      1.0  0.61997  0.74835  0.11110  1.0000
  N   N30       1.0  0.56499  0.78934  0.69724  1.0000
  C   C387      1.0  0.57127  0.78444  0.64423  1.0000
  H   H375      1.0  0.54979  0.80630  0.83499  1.0000
  H   H376      1.0  0.47060  0.78438  0.44594  1.0000
  H   H377      1.0  0.57873  0.79872  0.62523  1.0000
  H   H378      1.0  0.45607  0.80499  0.64638  1.0000
  S   S133      1.0  0.34226  0.98287  0.64878  1.0000
  N   N31       1.0  0.55245  0.94456  0.50351  1.0000
  H   H379      1.0  0.53821  0.91625  0.53665  1.0000
  C   C388      1.0  0.55386  0.80086  0.79675  1.0000
  H   H380      1.0  0.62178  0.76390  0.12797  1.0000
  H   H381      1.0  0.34668  0.98082  0.76639  1.0000
  H   H382      1.0  0.59650  0.78372  0.72551  1.0000
  C   C389      1.0  0.53481  0.92925  0.50801  1.0000
  H   H383      1.0  0.45821  0.82155  0.42513  1.0000
  C   C390      1.0  0.58378  0.96044  0.53799  1.0000
  C   C391      1.0  0.66129  0.75161  0.00592  1.0000
  C   C392      1.0  0.56708  0.94567  0.54168  1.0000
  H   H384      1.0  0.42016  0.96469  0.73775  1.0000
  H   H385      1.0  0.38101  0.96884  0.72622  1.0000
  C   C393      1.0  0.45585  0.79178  0.61863  1.0000
  H   H386      1.0  0.55716  0.77984  0.62166  1.0000
  H   H387      1.0  0.42237  0.99109  0.70922  1.0000
  H   H388      1.0  0.61138  0.76151  0.03717  1.0000
  N   N32       1.0  0.65160  0.92717  0.27833  1.0000
  H   H389      1.0  0.57122  0.98409  0.42376  1.0000
  H   H390      1.0  0.63694  0.90101  0.31790  1.0000
  C   C394      1.0  0.42035  0.98203  0.74627  1.0000
  C   C395      1.0  0.65768  0.95814  0.19681  1.0000
  H   H391      1.0  0.62219  0.92584  0.32160  1.0000
  S   S134      1.0  0.66227  0.77537  0.04029  1.0000
  S   S135      1.0  0.65983  0.86335  0.93060  1.0000
  Fe  Fe71      1.0  0.66313  0.96860  0.35409  1.0000
  S   S136      1.0  0.64882  0.99068  0.48751  1.0000
  C   C396      1.0  0.66235  0.89847  0.11178  1.0000
  C   C397      1.0  0.61401  0.74701  0.06004  1.0000
  C   C398      1.0  0.95610  0.03891  0.49097  1.0000
  C   C399      1.0  0.77353  0.99705  0.53184  1.0000
  C   C400      1.0  0.92175  0.05515  0.50217  1.0000
  H   H392      1.0  0.95202  0.08511  0.45399  1.0000
  S   S137      1.0  0.88699  0.03315  0.63016  1.0000
  C   C401      1.0  0.91203  0.03508  0.50401  1.0000
  N   N33       1.0  0.99653  0.11415  0.81081  1.0000
  C   C402      1.0  0.75194  0.00391  0.52650  1.0000
  H   H393      1.0  0.96895  0.09555  0.71102  1.0000
  S   S138      1.0  0.98107  0.07437  0.61267  1.0000
  S   S139      1.0  0.99283  0.13857  0.64507  1.0000
  H   H394      1.0  0.74600  0.01728  0.54840  1.0000
  H   H395      1.0  0.91180  0.06931  0.50719  1.0000
  H   H396      1.0  0.96917  0.12578  0.77063  1.0000
  N   N34       1.0  0.94354  0.05685  0.49617  1.0000
  C   C403      1.0  0.95332  0.07808  0.49333  1.0000
  C   C404      1.0  0.91343  0.04416  0.62865  1.0000
  C   C405      1.0  0.93193  0.03148  0.62281  1.0000
  C   C406      1.0  0.95240  0.04101  0.61927  1.0000
  C   C407      1.0  0.95480  0.06334  0.62140  1.0000
  C   C408      1.0  0.93635  0.07602  0.62816  1.0000
  C   C409      1.0  0.91586  0.06647  0.63183  1.0000
  H   H397      1.0  0.93045  0.01431  0.62062  1.0000
  H   H398      1.0  0.96650  0.03097  0.61426  1.0000
  H   H399      1.0  0.93778  0.09320  0.62988  1.0000
  H   H400      1.0  0.90172  0.07648  0.63657  1.0000
  H   H401      1.0  0.97055  0.07733  0.50367  1.0000
  H   H402      1.0  0.94536  0.08895  0.52118  1.0000
  C   C410      1.0  0.94689  0.01857  0.49266  1.0000
  C   C411      1.0  0.98118  0.11319  0.77426  1.0000
  C   C412      1.0  0.92471  0.01668  0.49935  1.0000
  H   H403      1.0  0.97339  0.04024  0.48659  1.0000
  H   H404      1.0  0.78390  0.00513  0.55764  1.0000
  S   S140      1.0  0.66731  0.00337  0.37319  1.0000
  Fe  Fe72      1.0  0.87494  0.99938  0.61327  1.0000
  S   S141      1.0  0.71068  0.00277  0.48943  1.0000
  C   C413      1.0  0.98095  0.09616  0.74049  1.0000
  H   H405      1.0  0.89484  0.03381  0.51102  1.0000
  C   C414      1.0  0.99605  0.13186  0.84663  1.0000
  C   C415      1.0  0.99657  0.08010  0.74424  1.0000
  H   H406      1.0  0.99255  0.14722  0.82587  1.0000
  H   H407      1.0  0.98370  0.12899  0.87730  1.0000
  H   H408      1.0  0.95687  0.00432  0.48963  1.0000
  H   H409      1.0  0.91744  0.00098  0.50188  1.0000
  H   H410      1.0  0.99676  0.06704  0.71755  1.0000
  H   H411      1.0  0.75596  0.48495  0.39438  1.0000
  C   C416      1.0  0.68586  0.43583  0.62705  1.0000
  C   C417      1.0  0.70743  0.43993  0.63640  1.0000
  Fe  Fe73      1.0  0.88502  0.47065  0.41923  1.0000
  C   C418      1.0  0.74114  0.48965  0.46915  1.0000
  S   S142      1.0  0.90900  0.44570  0.45186  1.0000
  Fe  Fe74      1.0  0.99584  0.34910  0.39704  1.0000
  C   C419      1.0  0.74444  0.44664  0.60779  1.0000
  S   S143      1.0  0.86094  0.47236  0.35548  1.0000
  H   H412      1.0  0.95719  0.28137  0.39115  1.0000
  C   C420      1.0  0.76582  0.49388  0.53804  1.0000
  H   H413      1.0  0.93128  0.33396  0.36132  1.0000
  S   S144      1.0  0.96597  0.36710  0.36762  1.0000
  H   H414      1.0  0.90758  0.48126  0.52410  1.0000
  C   C421      1.0  0.95594  0.29268  0.42197  1.0000
  H   H415      1.0  0.74556  0.46126  0.63097  1.0000
  H   H416      1.0  0.96970  0.27053  0.47749  1.0000
  C   C422      1.0  0.92537  0.42458  0.42634  1.0000
  C   C423      1.0  0.92279  0.41679  0.37700  1.0000
  C   C424      1.0  0.93548  0.39940  0.35967  1.0000
  C   C425      1.0  0.95117  0.38969  0.39093  1.0000
  C   C426      1.0  0.95406  0.39773  0.43990  1.0000
  C   C427      1.0  0.94116  0.41493  0.45750  1.0000
  H   H417      1.0  0.91074  0.42391  0.35249  1.0000
  H   H418      1.0  0.93302  0.39338  0.32173  1.0000
  H   H419      1.0  0.96594  0.39048  0.46465  1.0000
  H   H420      1.0  0.94330  0.42068  0.49581  1.0000
  S   S145      1.0  0.86137  0.48554  0.47584  1.0000
  C   C428      1.0  0.75883  0.48755  0.43450  1.0000
  H   H421      1.0  0.72494  0.48864  0.45552  1.0000
  N   N35       1.0  0.72190  0.44261  0.59656  1.0000
  H   H422      1.0  0.96875  0.29661  0.54731  1.0000
  C   C429      1.0  0.95445  0.32171  0.50058  1.0000
  H   H423      1.0  0.93210  0.30640  0.34370  1.0000
  C   C430      1.0  0.94145  0.31923  0.36117  1.0000
  H   H424      1.0  0.95436  0.33339  0.53064  1.0000
  C   C431      1.0  0.94730  0.32739  0.45155  1.0000
  C   C432      1.0  0.96305  0.28643  0.47062  1.0000
  H   H425      1.0  0.75426  0.44960  0.57220  1.0000
  N   N36       1.0  0.94801  0.31288  0.41307  1.0000
  C   C433      1.0  0.96242  0.30110  0.51001  1.0000
  H   H426      1.0  0.71247  0.44127  0.67571  1.0000
  H   H427      1.0  0.95592  0.32270  0.33673  1.0000
  H   H428      1.0  0.94156  0.34361  0.44428  1.0000
  H   H429      1.0  0.75147  0.43280  0.62915  1.0000
  H   H430      1.0  0.67429  0.43402  0.65862  1.0000
  Fe  Fe75      1.0  0.83844  0.48982  0.41054  1.0000
  C   C434      1.0  0.71539  0.44167  0.54685  1.0000
  C   C435      1.0  0.67913  0.43460  0.57659  1.0000
  C   C436      1.0  0.93978  0.49018  0.50312  1.0000
  C   C437      1.0  0.92068  0.49188  0.53201  1.0000
  S   S146      1.0  0.67260  0.49123  0.65447  1.0000
  C   C438      1.0  0.74451  0.49277  0.52134  1.0000
  H   H431      1.0  0.72667  0.44463  0.51521  1.0000
  S   S147      1.0  0.72302  0.49377  0.56811  1.0000
  H   H432      1.0  0.68870  0.43741  0.49676  1.0000
  C   C439      1.0  0.78015  0.48874  0.45119  1.0000
  S   S148      1.0  0.80184  0.48541  0.40563  1.0000
  C   C440      1.0  0.69392  0.43767  0.53614  1.0000
  H   H433      1.0  0.94125  0.47846  0.47316  1.0000
  C   C441      1.0  0.78349  0.49203  0.50331  1.0000
  H   H434      1.0  0.76873  0.49627  0.57824  1.0000
  H   H435      1.0  0.79970  0.49297  0.51699  1.0000
  H   H436      1.0  0.84185  0.49520  0.21917  1.0000
  H   H437      1.0  0.82128  0.49436  0.30213  1.0000
  Fe  Fe76      1.0  0.88455  0.62240  0.96260  1.0000
  S   S149      1.0  0.89507  0.63075  0.04188  1.0000
  S   S150      1.0  0.90865  0.60507  0.91057  1.0000
  Fe  Fe77      1.0  0.83981  0.64117  0.98068  1.0000
  S   S151      1.0  0.84730  0.65113  0.06009  1.0000
  S   S152      1.0  0.80804  0.65139  0.94652  1.0000
  Fe  Fe78      1.0  0.87856  0.66225  0.02566  1.0000
  S   S153      1.0  0.89354  0.69307  0.05021  1.0000
  Fe  Fe79      1.0  0.86292  0.61869  0.06995  1.0000
  S   S154      1.0  0.85464  0.60353  0.14869  1.0000
  S   S155      1.0  0.87023  0.65477  0.94506  1.0000
  S   S156      1.0  0.85326  0.60787  0.99188  1.0000
  Fe  Fe80      1.0  0.68883  0.62390  0.01751  1.0000
  S   S157      1.0  0.72173  0.61173  0.04024  1.0000
  H   H438      1.0  0.90478  0.54652  0.32172  1.0000
  C   C442      1.0  0.80430  0.54239  0.25335  1.0000
  H   H439      1.0  0.92106  0.69611  0.95339  1.0000
  H   H440      1.0  0.90035  0.73637  0.07864  1.0000
  S   S158      1.0  0.85082  0.52240  0.38689  1.0000
  S   S159      1.0  0.88372  0.51556  0.25491  1.0000
  Fe  Fe81      1.0  0.87515  0.51691  0.44810  1.0000
  S   S160      1.0  0.88215  0.54263  0.50451  1.0000
  Fe  Fe82      1.0  0.98235  0.63300  0.65710  1.0000
  S   S161      1.0  0.97174  0.63990  0.57600  1.0000
  S   S162      1.0  0.96032  0.64684  0.71996  1.0000
  Fe  Fe83      1.0  0.98558  0.60755  0.55892  1.0000
  S   S163      1.0  0.97424  0.58429  0.50039  1.0000
  C   C443      1.0  0.90805  0.55356  0.50473  1.0000
  C   C444      1.0  0.91310  0.56845  0.54190  1.0000
  C   C445      1.0  0.93353  0.57781  0.54183  1.0000
  C   C446      1.0  0.94889  0.57233  0.50438  1.0000
  C   C447      1.0  0.94389  0.55729  0.46768  1.0000
  C   C448      1.0  0.92356  0.54794  0.46786  1.0000
  H   H441      1.0  0.90113  0.57292  0.57052  1.0000
  H   H442      1.0  0.93729  0.58946  0.57022  1.0000
  H   H443      1.0  0.95576  0.55302  0.43866  1.0000
  H   H444      1.0  0.91989  0.53664  0.43897  1.0000
  S   S164      1.0  0.67400  0.65453  0.04380  1.0000
  C   C449      1.0  0.93148  0.68429  0.93557  1.0000
  C   C450      1.0  0.92771  0.58897  0.37080  1.0000
  S   S165      1.0  0.67758  0.62778  0.93649  1.0000
  H   H445      1.0  0.83602  0.70896  0.07676  1.0000
  C   C451      1.0  0.82416  0.70164  0.00270  1.0000
  H   H446      1.0  0.70716  0.56467  0.80018  1.0000
  C   C452      1.0  0.92126  0.61600  0.85407  1.0000
  C   C453      1.0  0.91581  0.63626  0.83420  1.0000
  C   C454      1.0  0.92727  0.64497  0.79146  1.0000
  C   C455      1.0  0.94437  0.63363  0.76819  1.0000
  C   C456      1.0  0.94943  0.61312  0.78716  1.0000
  C   C457      1.0  0.93793  0.60438  0.82986  1.0000
  H   H447      1.0  0.90297  0.64535  0.85217  1.0000
  H   H448      1.0  0.92317  0.66082  0.77702  1.0000
  H   H449      1.0  0.96257  0.60423  0.76981  1.0000
  H   H450      1.0  0.94221  0.58864  0.84476  1.0000
  C   C458      1.0  0.86458  0.57978  0.17835  1.0000
  C   C459      1.0  0.85852  0.57517  0.22974  1.0000
  C   C460      1.0  0.86447  0.55569  0.25388  1.0000
  C   C461      1.0  0.87671  0.54067  0.22689  1.0000
  C   C462      1.0  0.88310  0.54540  0.17583  1.0000
  C   C463      1.0  0.87703  0.56486  0.15155  1.0000
  H   H451      1.0  0.84881  0.58661  0.25065  1.0000
  H   H452      1.0  0.85927  0.55218  0.29299  1.0000
  H   H453      1.0  0.89257  0.53385  0.15465  1.0000
  H   H454      1.0  0.88170  0.56817  0.11192  1.0000
  C   C464      1.0  0.88828  0.71758  0.01764  1.0000
  C   C465      1.0  0.81957  0.50784  0.27540  1.0000
  C   C466      1.0  0.87946  0.71827  0.96878  1.0000
  H   H455      1.0  0.97158  0.50281  0.49036  1.0000
  H   H456      1.0  0.87569  0.70357  0.95016  1.0000
  C   C467      1.0  0.78413  0.64057  0.97354  1.0000
  C   C468      1.0  0.78464  0.62489  0.01269  1.0000
  C   C469      1.0  0.76538  0.61634  0.03304  1.0000
  C   C470      1.0  0.74547  0.62352  0.01481  1.0000
  C   C471      1.0  0.74491  0.63932  0.97590  1.0000
  C   C472      1.0  0.76421  0.64776  0.95523  1.0000
  H   H457      1.0  0.79990  0.61925  0.02706  1.0000
  H   H458      1.0  0.76592  0.60410  0.06305  1.0000
  H   H459      1.0  0.72966  0.64493  0.96151  1.0000
  H   H460      1.0  0.76371  0.65986  0.92489  1.0000
  H   H461      1.0  0.86880  0.73849  0.90592  1.0000
  Fe  Fe84      1.0  0.87433  0.50504  0.33637  1.0000
  S   S166      1.0  0.99364  0.59932  0.64090  1.0000
  C   C473      1.0  0.71838  0.58706  0.91389  1.0000
  C   C474      1.0  0.67599  0.54859  0.95866  1.0000
  H   H462      1.0  0.79746  0.52478  0.32460  1.0000
  H   H463      1.0  0.96575  0.63013  0.99029  1.0000
  C   C475      1.0  0.71960  0.58321  0.86142  1.0000
  H   H464      1.0  0.95501  0.61594  0.93686  1.0000
  H   H465      1.0  0.93877  0.61235  0.42362  1.0000
  H   H466      1.0  0.68467  0.53538  0.97870  1.0000
  C   C476      1.0  0.69232  0.55635  0.87359  1.0000
  H   H467      1.0  0.96199  0.67611  0.82782  1.0000
  C   C477      1.0  0.93522  0.51987  0.57989  1.0000
  H   H468      1.0  0.93750  0.62383  0.98760  1.0000
  H   H469      1.0  0.81343  0.69889  0.92538  1.0000
  C   C478      1.0  0.95802  0.65366  0.89151  1.0000
  H   H470      1.0  0.81398  0.57623  0.19164  1.0000
  S   S167      1.0  0.89977  0.50215  0.39580  1.0000
  C   C479      1.0  0.81286  0.56083  0.17148  1.0000
  C   C480      1.0  0.92537  0.60275  0.41207  1.0000
  H   H471      1.0  0.87424  0.59008  0.44818  1.0000
  C   C481      1.0  0.80619  0.52501  0.28800  1.0000
  H   H472      1.0  0.93107  0.55658  0.30915  1.0000
  H   H473      1.0  0.85222  0.74384  0.09253  1.0000
  H   H474      1.0  0.70764  0.72292  0.96389  1.0000
  C   C482      1.0  0.88916  0.59028  0.42585  1.0000
  C   C483      1.0  0.95189  0.62889  0.96464  1.0000
  C   C484      1.0  0.89208  0.57663  0.38453  1.0000
  C   C485      1.0  0.90598  0.60330  0.43983  1.0000
  C   C486      1.0  0.71033  0.73930  0.95070  1.0000
  C   C487      1.0  0.95471  0.67324  0.86562  1.0000
  H   H475      1.0  0.70680  0.73228  0.87094  1.0000
  C   C488      1.0  0.95457  0.51861  0.55175  1.0000
  C   C489      1.0  0.82857  0.52577  0.19479  1.0000
  H   H476      1.0  0.87908  0.56622  0.37467  1.0000
  H   H477      1.0  0.96753  0.52953  0.55910  1.0000
  H   H478      1.0  0.96803  0.64160  0.87328  1.0000
  N   N37       1.0  0.94801  0.64940  0.93787  1.0000
  H   H479      1.0  0.94296  0.58843  0.34997  1.0000
  H   H480      1.0  0.81618  0.73811  0.90617  1.0000
  H   H481      1.0  0.79707  0.56008  0.15277  1.0000
  H   H482      1.0  0.79389  0.55572  0.26339  1.0000
  H   H483      1.0  0.66929  0.59010  0.75571  1.0000
  C   C490      1.0  0.91402  0.56149  0.31487  1.0000
  C   C491      1.0  0.93517  0.66455  0.96039  1.0000
  C   C492      1.0  0.81867  0.70973  0.95442  1.0000
  C   C493      1.0  0.94120  0.68857  0.88772  1.0000
  C   C494      1.0  0.83088  0.50820  0.22860  1.0000
  H   H484      1.0  0.90831  0.56949  0.27906  1.0000
  N   N38       1.0  0.81551  0.54265  0.20754  1.0000
  H   H485      1.0  0.70291  0.57869  0.98592  1.0000
  H   H486      1.0  0.92753  0.66145  0.99763  1.0000
  H   H487      1.0  0.93815  0.70366  0.86768  1.0000
  H   H488      1.0  0.82568  0.56119  0.14104  1.0000
  H   H489      1.0  0.83780  0.52606  0.15896  1.0000
  H   H490      1.0  0.93349  0.53178  0.60929  1.0000
  H   H491      1.0  0.82291  0.68465  0.01117  1.0000
  H   H492      1.0  0.68207  0.54450  0.85729  1.0000
  C   C495      1.0  0.83133  0.71553  0.03970  1.0000
  C   C496      1.0  0.70385  0.57553  0.94520  1.0000
  H   H493      1.0  0.66842  0.55928  0.98752  1.0000
  H   H494      1.0  0.90421  0.61336  0.47301  1.0000
  S   S168      1.0  0.67142  0.53136  0.57215  1.0000
  N   N39       1.0  0.69084  0.56064  0.92479  1.0000
  H   H495      1.0  0.73062  0.59226  0.83667  1.0000
  H   H496      1.0  0.72847  0.59904  0.93030  1.0000
  H   H497      1.0  0.94929  0.74541  0.47802  1.0000
  N   N40       1.0  0.91129  0.57588  0.35810  1.0000
  C   C497      1.0  0.70655  0.56770  0.84104  1.0000
  Fe  Fe85      1.0  0.68627  0.49848  0.57491  1.0000
  H   H498      1.0  0.66838  0.69807  0.02603  1.0000
  H   H499      1.0  0.66998  0.73209  0.07165  1.0000
  C   C498      1.0  0.82010  0.73166  0.94384  1.0000
  C   C499      1.0  0.87562  0.73807  0.94374  1.0000
  N   N41       1.0  0.91849  0.50683  0.56926  1.0000
  C   C500      1.0  0.82698  0.74519  0.98201  1.0000
  C   C501      1.0  0.89330  0.73680  0.04107  1.0000
  H   H500      1.0  0.89943  0.49800  0.63470  1.0000
  C   C502      1.0  0.89842  0.50828  0.59950  1.0000
  H   H501      1.0  0.88452  0.50330  0.57676  1.0000
  C   C503      1.0  0.70988  0.74457  0.89843  1.0000
  H   H502      1.0  0.89500  0.52509  0.61027  1.0000
  C   C504      1.0  0.95677  0.50373  0.51295  1.0000
  N   N42       1.0  0.83273  0.73701  0.02900  1.0000
  C   C505      1.0  0.66580  0.73219  0.03158  1.0000
  Fe  Fe86      1.0  0.88344  0.84011  0.07034  1.0000
  S   S169      1.0  0.89798  0.83618  0.99093  1.0000
  S   S170      1.0  0.89844  0.84892  0.14610  1.0000
  Fe  Fe87      1.0  0.83726  0.84109  0.02918  1.0000
  S   S171      1.0  0.84824  0.83751  0.94734  1.0000
  S   S172      1.0  0.80315  0.84588  0.05911  1.0000
  Fe  Fe88      1.0  0.87109  0.81278  0.98057  1.0000
  S   S173      1.0  0.87269  0.78175  0.93733  1.0000
  Fe  Fe89      1.0  0.87394  0.86104  0.96409  1.0000
  S   S174      1.0  0.88379  0.89121  0.91894  1.0000
  S   S175      1.0  0.85823  0.81489  0.06164  1.0000
  S   S176      1.0  0.86124  0.86646  0.04378  1.0000
  Fe  Fe90      1.0  0.68775  0.84123  0.94786  1.0000
  H   H503      1.0  0.68033  0.90413  0.29650  1.0000
  S   S177      1.0  0.72202  0.84451  0.91721  1.0000
  H   H504      1.0  0.92491  0.77466  0.44749  1.0000
  S   S178      1.0  0.97566  0.81224  0.41700  1.0000
  S   S179      1.0  0.98091  0.81540  0.26602  1.0000
  Fe  Fe91      1.0  0.97432  0.84582  0.44590  1.0000
  S   S180      1.0  0.94515  0.85545  0.49437  1.0000
  H   H505      1.0  0.85521  0.96200  0.37586  1.0000
  H   H506      1.0  0.92105  0.90700  0.65314  1.0000
  H   H507      1.0  0.70850  0.92177  0.22170  1.0000
  Fe  Fe92      1.0  0.86187  0.95410  0.64923  1.0000
  S   S181      1.0  0.85640  0.94459  0.56804  1.0000
  S   S182      1.0  0.85302  0.92516  0.70040  1.0000
  Fe  Fe93      1.0  0.83855  0.97580  0.55740  1.0000
  Fe  Fe94      1.0  0.88657  0.96187  0.54785  1.0000
  S   S183      1.0  0.91223  0.95190  0.49052  1.0000
  S   S184      1.0  0.89393  0.96914  0.62928  1.0000
  C   C506      1.0  0.88118  0.90335  0.42579  1.0000
  H   H508      1.0  0.89607  0.89491  0.41672  1.0000
  H   H509      1.0  0.67394  0.92492  0.57125  1.0000
  C   C507      1.0  0.91998  0.88595  0.80656  1.0000
  C   C508      1.0  0.93668  0.88249  0.49416  1.0000
  C   C509      1.0  0.94614  0.89772  0.46090  1.0000
  C   C510      1.0  0.93868  0.91903  0.46060  1.0000
  C   C511      1.0  0.92188  0.92529  0.49387  1.0000
  C   C512      1.0  0.91248  0.91010  0.52743  1.0000
  C   C513      1.0  0.91981  0.88874  0.52738  1.0000
  H   H510      1.0  0.95915  0.89309  0.43522  1.0000
  H   H511      1.0  0.94600  0.93068  0.43447  1.0000
  H   H512      1.0  0.89936  0.91475  0.55276  1.0000
  H   H513      1.0  0.91237  0.87701  0.55304  1.0000
  N   N43       1.0  0.71597  0.77619  0.96956  1.0000
  C   C514      1.0  0.71908  0.79280  0.00724  1.0000
  C   C515      1.0  0.87346  0.90134  0.86039  1.0000
  C   C516      1.0  0.85920  0.88964  0.83185  1.0000
  C   C517      1.0  0.85266  0.89754  0.78356  1.0000
  C   C518      1.0  0.86038  0.91711  0.76322  1.0000
  C   C519      1.0  0.87434  0.92901  0.79216  1.0000
  C   C520      1.0  0.88079  0.92115  0.84061  1.0000
  H   H514      1.0  0.85366  0.87426  0.84638  1.0000
  H   H515      1.0  0.84188  0.88823  0.76130  1.0000
  H   H516      1.0  0.88029  0.94414  0.77708  1.0000
  H   H517      1.0  0.89182  0.93031  0.86256  1.0000
  C   C521      1.0  0.92131  0.83891  0.17866  1.0000
  C   C522      1.0  0.93494  0.82324  0.15813  1.0000
  C   C523      1.0  0.95301  0.81603  0.18556  1.0000
  C   C524      1.0  0.95755  0.82430  0.23377  1.0000
  C   C525      1.0  0.94396  0.84001  0.25419  1.0000
  C   C526      1.0  0.92598  0.84728  0.22670  1.0000
  H   H518      1.0  0.93156  0.81668  0.12121  1.0000
  H   H519      1.0  0.96345  0.80389  0.16940  1.0000
  H   H520      1.0  0.94730  0.84658  0.29111  1.0000
  H   H521      1.0  0.91553  0.85940  0.24285  1.0000
  C   C527      1.0  0.78069  0.84324  0.01994  1.0000
  C   C528      1.0  0.76007  0.84637  0.04148  1.0000
  C   C529      1.0  0.74185  0.84614  0.01068  1.0000
  C   C530      1.0  0.74419  0.84292  0.95798  1.0000
  C   C531      1.0  0.76476  0.83933  0.93659  1.0000
  C   C532      1.0  0.78297  0.83939  0.96749  1.0000
  H   H522      1.0  0.75821  0.84937  0.08206  1.0000
  H   H523      1.0  0.72609  0.84906  0.02748  1.0000
  H   H524      1.0  0.76665  0.83684  0.89581  1.0000
  H   H525      1.0  0.79877  0.83701  0.95051  1.0000
  H   H526      1.0  0.73618  0.79330  0.01815  1.0000
  H   H527      1.0  0.67943  0.99207  0.59820  1.0000
  C   C533      1.0  0.76781  0.96996  0.46953  1.0000
  H   H528      1.0  0.89241  0.77136  0.03548  1.0000
  C   C534      1.0  0.93600  0.77743  0.47805  1.0000
  H   H529      1.0  0.74992  0.96690  0.59899  1.0000
  C   C535      1.0  0.71645  0.78138  0.91823  1.0000
  Fe  Fe95      1.0  0.68139  0.99015  0.44715  1.0000
  H   H530      1.0  0.67233  0.89372  0.07939  1.0000
  H   H531      1.0  0.90841  0.85674  0.84235  1.0000
  S   S185      1.0  0.67728  0.83429  0.02950  1.0000
  H   H532      1.0  0.71354  0.92127  0.57454  1.0000
  C   C536      1.0  0.83940  0.75141  0.06904  1.0000
  C   C537      1.0  0.87985  0.75731  0.96802  1.0000
  S   S186      1.0  0.86890  0.99250  0.53043  1.0000
  N   N44       1.0  0.71841  0.95419  0.58967  1.0000
  H   H533      1.0  0.74623  0.93985  0.62197  1.0000
  C   C538      1.0  0.90852  0.86691  0.80792  1.0000
  H   H534      1.0  0.88716  0.84697  0.76699  1.0000
  H   H535      1.0  0.95313  0.81692  0.55339  1.0000
  N   N45       1.0  0.90693  0.89426  0.72220  1.0000
  C   C539      1.0  0.74180  0.95160  0.59128  1.0000
  H   H536      1.0  0.92874  0.89057  0.83997  1.0000
  S   S187      1.0  0.80890  0.97062  0.50748  1.0000
  H   H537      1.0  0.82839  0.76219  0.97324  1.0000
  H   H538      1.0  0.71442  0.80879  0.99148  1.0000
  C   C540      1.0  0.96426  0.76508  0.53355  1.0000
  H   H539      1.0  0.89209  0.90564  0.65324  1.0000
  N   N46       1.0  0.80752  0.89846  0.99634  1.0000
  C   C541      1.0  0.81847  0.89638  0.95055  1.0000
  C   C542      1.0  0.78576  0.89584  0.99918  1.0000
  C   C543      1.0  0.80746  0.89210  0.90580  1.0000
  C   C544      1.0  0.77425  0.89168  0.95515  1.0000
  C   C545      1.0  0.78521  0.88977  0.90823  1.0000
  C   C546      1.0  0.81899  0.90310  0.04318  1.0000
  H   H540      1.0  0.83582  0.89795  0.94836  1.0000
  H   H541      1.0  0.77724  0.89646  0.03589  1.0000
  H   H542      1.0  0.81613  0.89050  0.86955  1.0000
  H   H543      1.0  0.75703  0.88920  0.95769  1.0000
  H   H544      1.0  0.77648  0.88605  0.87408  1.0000
  H   H545      1.0  0.81903  0.88873  0.06920  1.0000
  H   H546      1.0  0.83593  0.90767  0.03477  1.0000
  H   H547      1.0  0.81108  0.91653  0.06352  1.0000
  C   C547      1.0  0.74615  0.97662  0.46474  1.0000
  C   C548      1.0  0.89588  0.87547  0.72290  1.0000
  H   H548      1.0  0.96953  0.87481  0.19134  1.0000
  C   C549      1.0  0.69219  0.92767  0.22559  1.0000
  C   C550      1.0  0.84517  0.90368  0.46174  1.0000
  H   H549      1.0  0.92765  0.91447  0.76273  1.0000
  H   H550      1.0  0.73579  0.96865  0.43869  1.0000
  H   H551      1.0  0.71890  0.79782  0.90514  1.0000
  C   C551      1.0  0.86406  0.89253  0.44955  1.0000
  S   S188      1.0  0.67864  0.95581  0.42596  1.0000
  C   C552      1.0  0.98990  0.89077  0.24396  1.0000
  H   H552      1.0  0.82908  0.93422  0.46023  1.0000
  C   C553      1.0  0.84378  0.92563  0.45035  1.0000
  S   S189      1.0  0.98580  0.86064  0.37120  1.0000
  H   H553      1.0  0.68656  0.91703  0.13735  1.0000
  C   C554      1.0  0.88887  0.75663  0.01664  1.0000
  S   S190      1.0  0.67659  0.95571  0.27875  1.0000
  C   C555      1.0  0.78169  0.98003  0.50321  1.0000
  C   C556      1.0  0.85930  0.95922  0.41672  1.0000
  N   N47       1.0  0.86087  0.93621  0.42827  1.0000
  C   C557      1.0  0.91910  0.89946  0.76301  1.0000
  H   H554      1.0  0.86550  0.87556  0.45863  1.0000
  H   H555      1.0  0.90445  0.92563  0.68927  1.0000
  H   H556      1.0  0.88603  0.87146  0.69083  1.0000
  C   C558      1.0  0.87925  0.92530  0.41511  1.0000
  H   H557      1.0  0.77385  0.95686  0.44687  1.0000
  C   C559      1.0  0.68671  0.97633  0.59464  1.0000
  H   H558      1.0  0.97877  0.90394  0.25021  1.0000
  C   C560      1.0  0.89648  0.86153  0.76576  1.0000
  H   H559      1.0  0.92680  0.81058  0.48627  1.0000
  H   H560      1.0  0.89281  0.93368  0.39760  1.0000
  C   C561      1.0  0.93698  0.79753  0.49988  1.0000
  H   H561      1.0  0.69386  0.95646  0.15968  1.0000
  H   H562      1.0  0.99107  0.80338  0.58077  1.0000
  C   C562      1.0  0.95199  0.80107  0.53775  1.0000
  C   C563      1.0  0.90621  0.90877  0.67716  1.0000
  S   S191      1.0  0.67156  0.81259  0.91726  1.0000
  H   H563      1.0  0.70874  0.78991  0.04204  1.0000
  C   C564      1.0  0.71308  0.76572  0.88195  1.0000
  H   H564      1.0  0.87472  0.96717  0.42453  1.0000
  C   C565      1.0  0.67404  0.95862  0.58596  1.0000
  H   H565      1.0  0.83173  0.89547  0.48029  1.0000
  N   N48       1.0  0.96549  0.78500  0.55378  1.0000
  H   H566      1.0  0.71268  0.77006  0.84142  1.0000
  H   H567      1.0  0.84676  0.96701  0.44114  1.0000
  H   H568      1.0  0.74814  0.94602  0.55371  1.0000
  Fe  Fe96      1.0  0.98977  0.82700  0.34474  1.0000
  C   C566      1.0  0.70610  0.93676  0.58068  1.0000
  H   H569      1.0  0.97481  0.75224  0.54641  1.0000
  C   C567      1.0  0.67499  0.91694  0.27117  1.0000
  H   H570      1.0  0.84617  0.76646  0.05211  1.0000
  S   S192      1.0  0.84288  0.98490  0.63980  1.0000
  C   C568      1.0  0.68374  0.93869  0.57885  1.0000
  C   C569      1.0  0.70900  0.97380  0.59669  1.0000
  H   H571      1.0  0.99478  0.84462  0.17916  1.0000
  C   C570      1.0  0.98475  0.87451  0.21086  1.0000
  H   H572      1.0  0.71283  0.75135  0.02670  1.0000
  C   C571      1.0  0.94969  0.76106  0.49502  1.0000
  C   C572      1.0  0.68325  0.94883  0.18779  1.0000
  C   C573      1.0  0.67024  0.91274  0.14766  1.0000
  H   H573      1.0  0.82547  0.75549  0.09435  1.0000
  C   C574      1.0  0.98115  0.78940  0.59315  1.0000
  H   H574      1.0  0.97282  0.79274  0.63019  1.0000
  C   C575      1.0  0.71333  0.75543  0.98599  1.0000
  H   H575      1.0  0.71871  0.98782  0.60212  1.0000
  C   C576      1.0  0.73804  0.99376  0.49303  1.0000
  H   H576      1.0  0.99251  0.77578  0.59902  1.0000
