data_image0
_chemical_formula_structural       HFeSH2SFe2S3FeS2FeS2FeSFeS3C3HCH3C6H6CHC6H4C3HCHNCNC5H8C4H2CHC2HCHCHCSCHSCH2CH2C2HCHNSC2HNCNC2FeSH3CH2C4H2CFeCHFeH2CH2C3FeS2FeSFeC2HCSCH2FeCSCS3H2CFeSCHCHCHC7H4CS2HC2HCH2CHCFeCSC6H6CN2CH4CHCHC3H2CHCSHCH7C2HSH2NFeS2FeS2FeSFeS4C2HFeSCS2FeSC3HCSC2HC6H4C6H4S3CHC2H2CHFeCHSH2FeHCSNFeC2HSCHC3HC6HNH3CH2CHNCFeCH10CH4CH3SHCFeS2FeS2FeSFeS3FeSCHCHFeSFeC6H4C6H4C3H7CHCH2SCH3C2HSC4H2C2SCSCHC2N2HCH3CHFeCH2CH2CHCH2NCH2C3HCHCHC2SNH2C3HNH2SHSH3S3HC6H4C3HC2H2C5FeC2HC6SH4S2H2FeHFeHNH2C2SCH3SCH4CHCHSHFeHC4H3CHNC5HNSC2SFeHFeSCH2FeS2FeS2FeSFeS3NCFeCSC2S2FeSC2H4CH4CHCH3C4HC6H4C6H4NHCHFeH3CFeH5C3H2C4H2CH3C2H2CNH2CNH2SNCHC4HCHC2HCHC2H2FeHSCHC2S2FeS2FeS2FeSFeS4HC2SH3C2HC3H2C3H2C6H4NHCHC7H4SCHCH2C2H2CHC3NHC2H2CNC2HS2H3C3H2FeHFeNC2FeHCH2CH3SCH3CHCH4C2HCH2CFeSHSH2NCHSFeSFeS2FeSCSHSCHSHC7H4C2SHC8HSH2SHSCFeC2H3CSCH4CHC2HCH2N3FeHC3HCH2CSCHCH2C2HFeHCHCH2CH2CHC2HC2SFeH2FeHSC2HCFeS2FeS2FeSFeS3FeSFeCSHCS2C6H4C2HC3H3CNC7H4C6H3CH2NC6H8CH4CH2SCHC3FeC2H2CHNH2C2NC4H2FeH3CSH3CHCH3C3HC2HC2SHNH5CSCSFeSFeSCFeS2FeS2FeSFeS3CSHCFeS2CH2NH2C6H4FeCHC6H4CNHCFeHSH2C3HCHFeH3CH3SH2C2HCHCSC3H5CHC3HCSH2NC6H6C2H3CHCNH2SCSH2CSH4SHSNCSC7H8C2FeHSC6H3CHC4HC3HNFeHCNHCH3CH4CHCH2FeCNSCFeSCSFeS2FeS2FeSFeS3FeCFeHSFeHS2CH3C2H2C6H6SH2FeC6H4CHCH2NH2CFeCSH2C3H3CH2CH2SNSC4SC2HCHNCSHCH2CHSC3HCH2CHCH2CSCH
_chemical_formula_sum              "H576 Fe96 S192 C576 N48"
_cell_length_a       35.1812
_cell_length_b       34.8052
_cell_length_c       76.3566
_cell_angle_alpha    88.9905
_cell_angle_beta     89.8844
_cell_angle_gamma    89.6412

_space_group_name_H-M_alt    "P 1"
_space_group_IT_number       1

loop_
  _space_group_symop_operation_xyz
  'x, y, z'

loop_
  _atom_site_type_symbol
  _atom_site_label
  _atom_site_symmetry_multiplicity
  _atom_site_fract_x
  _atom_site_fract_y
  _atom_site_fract_z
  _atom_site_occupancy
  H   H1        1.0  0.37216  0.27322  0.16797  1.0000
  Fe  Fe1       1.0  0.43803  0.29596  0.10687  1.0000
  S   S1        1.0  0.38533  0.26059  0.11292  1.0000
  H   H2        1.0  0.43026  0.16747  0.32789  1.0000
  H   H3        1.0  0.24268  0.44230  0.17545  1.0000
  S   S2        1.0  0.44405  0.32410  0.08030  1.0000
  Fe  Fe2       1.0  0.37952  0.22601  0.32786  1.0000
  Fe  Fe3       1.0  0.29661  0.21173  0.32109  1.0000
  S   S3        1.0  0.24729  0.21429  0.30220  1.0000
  S   S4        1.0  0.32793  0.26394  0.32982  1.0000
  S   S5        1.0  0.34888  0.17594  0.31657  1.0000
  Fe  Fe4       1.0  0.20333  0.30393  0.17833  1.0000
  S   S6        1.0  0.22927  0.35595  0.19009  1.0000
  S   S7        1.0  0.23242  0.26698  0.15794  1.0000
  Fe  Fe5       1.0  0.13173  0.30831  0.20191  1.0000
  S   S8        1.0  0.15403  0.35989  0.21589  1.0000
  S   S9        1.0  0.07465  0.28556  0.21159  1.0000
  Fe  Fe6       1.0  0.17020  0.38062  0.18901  1.0000
  S   S10       1.0  0.15309  0.43957  0.17935  1.0000
  Fe  Fe7       1.0  0.21065  0.32973  0.21587  1.0000
  S   S11       1.0  0.25494  0.33053  0.23734  1.0000
  S   S12       1.0  0.14514  0.33078  0.17491  1.0000
  S   S13       1.0  0.18744  0.27610  0.20423  1.0000
  C   C1        1.0  0.16780  0.47692  0.19282  1.0000
  C   C2        1.0  0.23701  0.30950  0.31889  1.0000
  C   C3        1.0  0.41510  0.07350  0.31576  1.0000
  H   H4        1.0  0.22099  0.28974  0.31099  1.0000
  C   C4        1.0  0.19127  0.46975  0.20731  1.0000
  H   H5        1.0  0.44845  0.41035  0.04272  1.0000
  H   H6        1.0  0.36904  0.24551  0.07541  1.0000
  H   H7        1.0  0.19906  0.44055  0.21093  1.0000
  C   C5        1.0  0.25069  0.24507  0.28365  1.0000
  C   C6        1.0  0.22026  0.24743  0.27181  1.0000
  C   C7        1.0  0.22135  0.27324  0.25743  1.0000
  C   C8        1.0  0.25280  0.29710  0.25493  1.0000
  C   C9        1.0  0.28334  0.29455  0.26670  1.0000
  C   C10       1.0  0.28238  0.26851  0.28099  1.0000
  H   H8        1.0  0.19560  0.22945  0.27383  1.0000
  H   H9        1.0  0.19763  0.27505  0.24844  1.0000
  H   H10       1.0  0.30781  0.31284  0.26480  1.0000
  H   H11       1.0  0.30602  0.26686  0.29001  1.0000
  H   H12       1.0  0.45020  0.30192  0.04297  1.0000
  H   H13       1.0  0.43998  0.07541  0.30683  1.0000
  C   C11       1.0  0.47298  0.19524  0.03013  1.0000
  H   H14       1.0  0.48066  0.20149  0.06476  1.0000
  C   C12       1.0  0.34303  0.26694  0.12536  1.0000
  C   C13       1.0  0.31651  0.23724  0.12478  1.0000
  C   C14       1.0  0.28295  0.23871  0.13460  1.0000
  C   C15       1.0  0.27498  0.26981  0.14539  1.0000
  C   C16       1.0  0.30132  0.30004  0.14613  1.0000
  C   C17       1.0  0.33533  0.29871  0.13601  1.0000
  H   H15       1.0  0.32196  0.21261  0.11667  1.0000
  H   H16       1.0  0.26296  0.21526  0.13387  1.0000
  H   H17       1.0  0.29552  0.32422  0.15445  1.0000
  H   H18       1.0  0.35561  0.32188  0.13658  1.0000
  C   C18       1.0  0.49182  0.46265  0.09462  1.0000
  C   C19       1.0  0.03077  0.29195  0.20044  1.0000
  C   C20       1.0  0.43197  0.49417  0.12509  1.0000
  H   H19       1.0  0.05504  0.31249  0.17618  1.0000
  C   C21       1.0  0.35353  0.04750  0.30656  1.0000
  H   H20       1.0  0.42503  0.06978  0.32951  1.0000
  N   N1        1.0  0.49993  0.38811  0.03200  1.0000
  C   C22       1.0  0.48736  0.14518  0.32628  1.0000
  N   N2        1.0  0.33454  0.24537  0.18585  1.0000
  C   C23       1.0  0.30090  0.22625  0.18417  1.0000
  C   C24       1.0  0.34198  0.26560  0.20065  1.0000
  C   C25       1.0  0.27366  0.22715  0.19752  1.0000
  C   C26       1.0  0.31537  0.26702  0.21428  1.0000
  C   C27       1.0  0.28108  0.24756  0.21269  1.0000
  H   H21       1.0  0.43200  0.22316  0.08597  1.0000
  H   H22       1.0  0.29443  0.21087  0.17232  1.0000
  H   H23       1.0  0.24660  0.21284  0.19589  1.0000
  H   H24       1.0  0.32091  0.28353  0.22594  1.0000
  H   H25       1.0  0.26004  0.24888  0.22309  1.0000
  H   H26       1.0  0.47881  0.50901  0.07650  1.0000
  H   H27       1.0  0.28356  0.07796  0.34137  1.0000
  H   H28       1.0  0.47022  0.20984  0.01710  1.0000
  C   C28       1.0  0.49369  0.50056  0.08836  1.0000
  C   C29       1.0  0.24545  0.47179  0.17077  1.0000
  C   C30       1.0  0.39011  0.23530  0.06612  1.0000
  C   C31       1.0  0.45359  0.49565  0.14035  1.0000
  H   H29       1.0  0.05522  0.41965  0.16889  1.0000
  H   H30       1.0  0.27834  0.48937  0.19283  1.0000
  C   C32       1.0  0.27717  0.36524  0.32067  1.0000
  H   H31       1.0  0.40329  0.22118  0.02265  1.0000
  C   C33       1.0  0.28110  0.01582  0.34041  1.0000
  C   C34       1.0  0.21901  0.27211  0.34510  1.0000
  H   H32       1.0  0.42418  0.46662  0.11970  1.0000
  C   C35       1.0  0.22719  0.48370  0.15540  1.0000
  H   H33       1.0  0.09256  0.39542  0.19423  1.0000
  C   C36       1.0  0.46907  0.21025  0.31789  1.0000
  H   H34       1.0  0.46272  0.46926  0.14689  1.0000
  C   C37       1.0  0.38201  0.23467  0.04824  1.0000
  S   S14       1.0  0.46237  0.34544  0.12141  1.0000
  C   C38       1.0  0.25643  0.33971  0.31059  1.0000
  H   H35       1.0  0.38866  0.22732  0.17666  1.0000
  S   S15       1.0  0.43499  0.24712  0.31709  1.0000
  C   C39       1.0  0.45929  0.17363  0.32421  1.0000
  H   H36       1.0  0.36852  0.28094  0.20196  1.0000
  H   H37       1.0  0.35249  0.22963  0.16005  1.0000
  C   C40       1.0  0.36338  0.24372  0.17198  1.0000
  H   H38       1.0  0.34152  0.07632  0.30659  1.0000
  H   H39       1.0  0.25568  0.34292  0.29642  1.0000
  C   C41       1.0  0.46666  0.29662  0.03129  1.0000
  C   C42       1.0  0.02904  0.30622  0.18322  1.0000
  H   H40       1.0  0.35450  0.24440  0.04348  1.0000
  C   C43       1.0  0.25764  0.33035  0.34671  1.0000
  H   H41       1.0  0.21860  0.24681  0.33638  1.0000
  N   N3        1.0  0.39071  0.04125  0.31109  1.0000
  S   S16       1.0  0.49415  0.26452  0.10456  1.0000
  C   C44       1.0  0.40969  0.22145  0.03656  1.0000
  C   C45       1.0  0.42561  0.22283  0.07208  1.0000
  H   H42       1.0  0.22457  0.49511  0.22779  1.0000
  N   N4        1.0  0.23874  0.30450  0.33668  1.0000
  C   C46       1.0  0.45280  0.21029  0.06003  1.0000
  N   N5        1.0  0.44469  0.20987  0.04251  1.0000
  C   C47       1.0  0.20575  0.50062  0.21682  1.0000
  C   C48       1.0  0.06181  0.39609  0.19492  1.0000
  Fe  Fe8       1.0  0.47346  0.37073  0.09464  1.0000
  S   S17       1.0  0.46213  0.43009  0.08423  1.0000
  H   H43       1.0  0.29284  0.38845  0.31439  1.0000
  H   H44       1.0  0.39964  0.10147  0.31509  1.0000
  H   H45       1.0  0.25175  0.01552  0.33618  1.0000
  C   C49       1.0  0.04070  0.40960  0.18064  1.0000
  H   H46       1.0  0.21034  0.46339  0.14813  1.0000
  H   H47       1.0  0.46939  0.16384  0.02855  1.0000
  C   C50       1.0  0.29904  0.05125  0.34333  1.0000
  C   C51       1.0  0.26537  0.49859  0.18057  1.0000
  C   C52       1.0  0.27755  0.36080  0.33888  1.0000
  C   C53       1.0  0.04320  0.38263  0.20992  1.0000
  H   H48       1.0  0.30011  0.02155  0.29964  1.0000
  H   H49       1.0  0.05950  0.37075  0.22083  1.0000
  C   C54       1.0  0.32992  0.01663  0.30260  1.0000
  Fe  Fe9       1.0  0.50193  0.29766  0.07911  1.0000
  C   C55       1.0  0.46338  0.40160  0.03094  1.0000
  H   H50       1.0  0.47994  0.11722  0.33157  1.0000
  Fe  Fe10      1.0  0.34198  0.15614  0.34455  1.0000
  H   H51       1.0  0.48560  0.28630  0.34628  1.0000
  H   H52       1.0  0.49825  0.37637  0.05936  1.0000
  C   C56       1.0  0.44915  0.29910  0.01473  1.0000
  H   H53       1.0  0.50237  0.20093  0.03475  1.0000
  H   H54       1.0  0.29345  0.38049  0.34692  1.0000
  C   C57       1.0  0.50473  0.28526  0.03271  1.0000
  C   C58       1.0  0.44464  0.40368  0.01478  1.0000
  C   C59       1.0  0.21349  0.29994  0.64828  1.0000
  Fe  Fe11      1.0  0.32565  0.22476  0.66884  1.0000
  S   S18       1.0  0.34336  0.45215  0.58285  1.0000
  S   S19       1.0  0.37816  0.18843  0.67235  1.0000
  Fe  Fe12      1.0  0.31558  0.46403  0.60878  1.0000
  S   S20       1.0  0.27542  0.42191  0.62216  1.0000
  Fe  Fe13      1.0  0.39674  0.46641  0.59708  1.0000
  C   C60       1.0  0.48027  0.47543  0.61707  1.0000
  C   C61       1.0  0.48556  0.44481  0.60570  1.0000
  H   H55       1.0  0.20829  0.35892  0.63936  1.0000
  C   C62       1.0  0.41886  0.50861  0.48537  1.0000
  S   S21       1.0  0.30788  0.24699  0.64193  1.0000
  C   C63       1.0  0.46857  0.49069  0.43583  1.0000
  H   H56       1.0  0.48586  0.43339  0.42899  1.0000
  H   H57       1.0  0.46154  0.50329  0.56885  1.0000
  Fe  Fe14      1.0  0.31647  0.51142  0.44989  1.0000
  C   C64       1.0  0.32530  0.04397  0.67830  1.0000
  S   S22       1.0  0.30347  0.27440  0.37996  1.0000
  C   C65       1.0  0.22448  0.27556  0.66209  1.0000
  S   S23       1.0  0.29101  0.48724  0.47517  1.0000
  S   S24       1.0  0.29029  0.51029  0.42280  1.0000
  S   S25       1.0  0.37039  0.48353  0.44091  1.0000
  H   H58       1.0  0.40764  0.35264  0.59729  1.0000
  H   H59       1.0  0.49517  0.40591  0.47018  1.0000
  C   C66       1.0  0.35655  0.01703  0.35144  1.0000
  Fe  Fe15      1.0  0.34678  0.48726  0.41364  1.0000
  S   S26       1.0  0.36226  0.44508  0.39220  1.0000
  C   C67       1.0  0.33690  0.05198  0.34887  1.0000
  H   H60       1.0  0.28164  0.45327  0.50957  1.0000
  C   C68       1.0  0.43539  0.39238  0.47100  1.0000
  H   H61       1.0  0.43943  0.36311  0.46665  1.0000
  C   C69       1.0  0.46665  0.41634  0.47301  1.0000
  H   H62       1.0  0.29826  0.47536  0.53940  1.0000
  C   C70       1.0  0.29690  0.47991  0.51105  1.0000
  C   C71       1.0  0.32086  0.32142  0.38352  1.0000
  C   C72       1.0  0.30686  0.34252  0.39772  1.0000
  C   C73       1.0  0.31920  0.38038  0.40063  1.0000
  C   C74       1.0  0.34567  0.39752  0.38930  1.0000
  C   C75       1.0  0.35951  0.37645  0.37505  1.0000
  C   C76       1.0  0.34721  0.33862  0.37216  1.0000
  H   H63       1.0  0.28634  0.32950  0.40654  1.0000
  H   H64       1.0  0.30825  0.39626  0.41161  1.0000
  H   H65       1.0  0.38000  0.38944  0.36622  1.0000
  H   H66       1.0  0.35818  0.32279  0.36116  1.0000
  C   C77       1.0  0.22864  0.35446  0.66600  1.0000
  S   S27       1.0  0.36147  0.09548  0.35221  1.0000
  S   S28       1.0  0.44744  0.42799  0.59344  1.0000
  H   H67       1.0  0.36579  0.45536  0.48199  1.0000
  C   C78       1.0  0.48752  0.16622  0.66856  1.0000
  C   C79       1.0  0.42831  0.36816  0.65026  1.0000
  H   H68       1.0  0.22430  0.24463  0.66050  1.0000
  C   C80       1.0  0.46088  0.45438  0.47809  1.0000
  H   H69       1.0  0.20475  0.28805  0.63590  1.0000
  H   H70       1.0  0.31075  0.06892  0.67287  1.0000
  C   C81       1.0  0.42592  0.33185  0.65822  1.0000
  H   H71       1.0  0.48531  0.47294  0.47930  1.0000
  C   C82       1.0  0.39892  0.40639  0.47444  1.0000
  Fe  Fe16      1.0  0.32237  0.23843  0.35687  1.0000
  C   C83       1.0  0.41439  0.37373  0.63325  1.0000
  S   S29       1.0  0.37668  0.20434  0.35558  1.0000
  C   C84       1.0  0.29187  0.37462  0.62657  1.0000
  C   C85       1.0  0.28319  0.34536  0.61492  1.0000
  C   C86       1.0  0.28944  0.30664  0.61967  1.0000
  C   C87       1.0  0.30372  0.29651  0.63626  1.0000
  C   C88       1.0  0.31331  0.32580  0.64781  1.0000
  C   C89       1.0  0.30757  0.36472  0.64294  1.0000
  H   H72       1.0  0.27030  0.35258  0.60242  1.0000
  H   H73       1.0  0.28190  0.28433  0.61062  1.0000
  H   H74       1.0  0.32445  0.31864  0.66059  1.0000
  H   H75       1.0  0.31370  0.38709  0.65217  1.0000
  H   H76       1.0  0.40797  0.27327  0.65520  1.0000
  H   H77       1.0  0.36384  0.32799  0.60269  1.0000
  C   C90       1.0  0.39425  0.44453  0.47957  1.0000
  N   N6        1.0  0.42493  0.46824  0.48089  1.0000
  N   N7        1.0  0.39815  0.34409  0.62450  1.0000
  C   C91       1.0  0.39656  0.30813  0.63203  1.0000
  H   H78       1.0  0.36743  0.37852  0.60603  1.0000
  H   H79       1.0  0.48909  0.15808  0.36431  1.0000
  H   H80       1.0  0.25787  0.32719  0.36086  1.0000
  H   H81       1.0  0.37431  0.38814  0.47285  1.0000
  C   C92       1.0  0.38360  0.35095  0.60673  1.0000
  H   H82       1.0  0.38377  0.28449  0.62512  1.0000
  C   C93       1.0  0.23742  0.29132  0.67769  1.0000
  H   H83       1.0  0.48069  0.45613  0.38516  1.0000
  C   C94       1.0  0.21544  0.33966  0.65023  1.0000
  C   C95       1.0  0.49903  0.23025  0.35718  1.0000
  C   C96       1.0  0.49344  0.45921  0.43584  1.0000
  H   H84       1.0  0.23112  0.38537  0.66713  1.0000
  H   H85       1.0  0.41650  0.40197  0.62709  1.0000
  C   C97       1.0  0.30635  0.49232  0.52799  1.0000
  H   H86       1.0  0.38580  0.01736  0.35578  1.0000
  C   C98       1.0  0.41012  0.30156  0.64906  1.0000
  S   S30       1.0  0.36960  0.47430  0.62323  1.0000
  H   H87       1.0  0.45238  0.48799  0.61881  1.0000
  C   C99       1.0  0.30641  0.50205  0.49611  1.0000
  H   H88       1.0  0.48210  0.15068  0.65626  1.0000
  H   H89       1.0  0.43630  0.32710  0.67148  1.0000
  H   H90       1.0  0.47010  0.22021  0.35567  1.0000
  H   H91       1.0  0.50369  0.45628  0.55465  1.0000
  H   H92       1.0  0.46325  0.18584  0.67123  1.0000
  H   H93       1.0  0.44073  0.39193  0.65720  1.0000
  H   H94       1.0  0.23385  0.26266  0.35733  1.0000
  C   C100      1.0  0.49195  0.50413  0.57113  1.0000
  C   C101      1.0  0.49289  0.48147  0.39097  1.0000
  H   H95       1.0  0.44251  0.48935  0.42851  1.0000
  S   S31       1.0  0.28689  0.18818  0.34840  1.0000
  H   H96       1.0  0.40904  0.51078  0.49916  1.0000
  H   H97       1.0  0.18937  0.28048  0.34833  1.0000
  N   N8        1.0  0.23951  0.33029  0.67945  1.0000
  Fe  Fe17      1.0  0.19917  0.32170  0.85087  1.0000
  S   S32       1.0  0.23186  0.32225  0.82584  1.0000
  S   S33       1.0  0.23067  0.32800  0.87676  1.0000
  Fe  Fe18      1.0  0.12130  0.32437  0.83155  1.0000
  S   S34       1.0  0.14972  0.32508  0.80503  1.0000
  S   S35       1.0  0.05836  0.34187  0.83291  1.0000
  Fe  Fe19      1.0  0.18903  0.28020  0.81643  1.0000
  S   S36       1.0  0.21397  0.23039  0.80146  1.0000
  Fe  Fe20      1.0  0.19045  0.36678  0.81656  1.0000
  S   S37       1.0  0.21246  0.41816  0.80150  1.0000
  S   S38       1.0  0.15806  0.27585  0.84243  1.0000
  S   S39       1.0  0.15995  0.36971  0.84222  1.0000
  S   S40       1.0  0.36432  0.19657  0.71496  1.0000
  C   C102      1.0  0.50141  0.37982  0.00081  1.0000
  C   C103      1.0  0.48117  0.47237  0.93466  1.0000
  H   H98       1.0  0.14737  0.46403  0.83502  1.0000
  Fe  Fe21      1.0  0.31170  0.23048  0.70805  1.0000
  S   S41       1.0  0.27230  0.26753  0.72423  1.0000
  C   C104      1.0  0.46377  0.39243  0.99966  1.0000
  S   S42       1.0  0.42007  0.33560  0.93546  1.0000
  S   S43       1.0  0.44722  0.44100  0.92638  1.0000
  Fe  Fe22      1.0  0.44252  0.30392  0.91240  1.0000
  S   S44       1.0  0.40519  0.28412  0.88984  1.0000
  C   C105      1.0  0.14454  0.49390  0.83086  1.0000
  C   C106      1.0  0.50279  0.08624  0.71062  1.0000
  C   C107      1.0  0.47795  0.20492  0.71566  1.0000
  H   H99       1.0  0.44877  0.20012  0.71950  1.0000
  C   C108      1.0  0.01505  0.31645  0.83498  1.0000
  S   S45       1.0  0.48592  0.27002  0.92854  1.0000
  C   C109      1.0  0.25401  0.34574  0.69586  1.0000
  C   C110      1.0  0.14099  0.50330  0.81311  1.0000
  H   H100      1.0  0.03954  0.26082  0.84066  1.0000
  C   C111      1.0  0.27884  0.31440  0.88034  1.0000
  C   C112      1.0  0.29576  0.32187  0.89660  1.0000
  C   C113      1.0  0.33432  0.31275  0.89975  1.0000
  C   C114      1.0  0.35635  0.29572  0.88669  1.0000
  C   C115      1.0  0.33934  0.28800  0.87047  1.0000
  C   C116      1.0  0.30086  0.29737  0.86727  1.0000
  H   H101      1.0  0.27893  0.33478  0.90684  1.0000
  H   H102      1.0  0.34679  0.31837  0.91238  1.0000
  H   H103      1.0  0.35603  0.27438  0.86038  1.0000
  H   H104      1.0  0.28800  0.29087  0.85483  1.0000
  C   C117      1.0  0.22892  0.23997  0.77974  1.0000
  C   C118      1.0  0.25101  0.21272  0.77086  1.0000
  C   C119      1.0  0.26474  0.22065  0.75383  1.0000
  C   C120      1.0  0.25607  0.25580  0.74555  1.0000
  C   C121      1.0  0.23387  0.28290  0.75442  1.0000
  C   C122      1.0  0.22050  0.27514  0.77146  1.0000
  H   H105      1.0  0.25771  0.18548  0.77722  1.0000
  H   H106      1.0  0.28179  0.19955  0.74709  1.0000
  H   H107      1.0  0.22698  0.31012  0.74810  1.0000
  H   H108      1.0  0.20372  0.29642  0.77818  1.0000
  S   S46       1.0  0.34253  0.26773  0.68846  1.0000
  S   S47       1.0  0.44519  0.29183  0.97912  1.0000
  S   S48       1.0  0.45036  0.25695  0.69127  1.0000
  C   C123      1.0  0.46627  0.09742  0.70547  1.0000
  H   H109      1.0  0.33333  0.32210  0.83184  1.0000
  C   C124      1.0  0.22825  0.44645  0.83381  1.0000
  C   C125      1.0  0.22750  0.45381  0.81578  1.0000
  H   H110      1.0  0.23567  0.33632  0.70700  1.0000
  H   H111      1.0  0.22255  0.41798  0.83891  1.0000
  C   C126      1.0  0.39473  0.39313  0.89251  1.0000
  H   H112      1.0  0.31951  0.38841  0.82119  1.0000
  Fe  Fe23      1.0  0.46612  0.30614  0.95136  1.0000
  C   C127      1.0  0.48651  0.23186  0.70245  1.0000
  H   H113      1.0  0.43327  0.13219  0.68769  1.0000
  S   S49       1.0  0.29129  0.18865  0.68797  1.0000
  H   H114      1.0  0.01010  0.32463  0.87756  1.0000
  H   H115      1.0  0.42246  0.40821  0.89263  1.0000
  Fe  Fe24      1.0  0.46436  0.37900  0.92885  1.0000
  H   H116      1.0  0.28328  0.33471  0.69836  1.0000
  C   C128      1.0  0.23502  0.47636  0.84538  1.0000
  S   S50       1.0  0.36226  0.09389  0.70078  1.0000
  N   N9        1.0  0.49282  0.13869  0.68311  1.0000
  Fe  Fe25      1.0  0.39278  0.22982  0.69330  1.0000
  C   C129      1.0  0.46178  0.12362  0.69153  1.0000
  C   C130      1.0  0.01345  0.27707  0.83891  1.0000
  H   H117      1.0  0.39017  0.37933  0.90554  1.0000
  S   S51       1.0  0.48432  0.34982  0.90470  1.0000
  C   C131      1.0  0.30294  0.47011  0.88257  1.0000
  H   H118      1.0  0.39676  0.37016  0.88260  1.0000
  C   C132      1.0  0.33494  0.48244  0.89160  1.0000
  C   C133      1.0  0.30278  0.30185  0.79140  1.0000
  C   C134      1.0  0.31554  0.36425  0.81262  1.0000
  H   H119      1.0  0.29302  0.39908  0.79136  1.0000
  C   C135      1.0  0.32331  0.32668  0.81853  1.0000
  C   C136      1.0  0.30122  0.43221  0.87690  1.0000
  C   C137      1.0  0.30068  0.37027  0.79586  1.0000
  C   C138      1.0  0.32018  0.25669  0.81498  1.0000
  C   C139      1.0  0.36495  0.45667  0.89476  1.0000
  C   C140      1.0  0.29454  0.33895  0.78510  1.0000
  H   H120      1.0  0.28240  0.34320  0.77215  1.0000
  N   N10       1.0  0.31642  0.29606  0.80800  1.0000
  H   H121      1.0  0.29176  0.24614  0.81929  1.0000
  H   H122      1.0  0.29730  0.27760  0.78307  1.0000
  H   H123      1.0  0.33118  0.23706  0.80479  1.0000
  C   C141      1.0  0.23629  0.49055  0.80926  1.0000
  H   H124      1.0  0.33993  0.25502  0.82632  1.0000
  H   H125      1.0  0.38942  0.46619  0.90213  1.0000
  C   C142      1.0  0.35206  0.04845  0.69161  1.0000
  H   H126      1.0  0.33050  0.37816  0.87553  1.0000
  N   N11       1.0  0.36346  0.41994  0.88871  1.0000
  C   C143      1.0  0.33202  0.40747  0.88002  1.0000
  Fe  Fe26      1.0  0.34629  0.15626  0.69354  1.0000
  C   C144      1.0  0.46977  0.29160  0.99936  1.0000
  H   H127      1.0  0.23613  0.49626  0.79529  1.0000
  H   H128      1.0  0.50071  0.16349  0.73427  1.0000
  H   H129      1.0  0.23291  0.47104  0.85932  1.0000
  H   H130      1.0  0.27615  0.42176  0.87025  1.0000
  H   H131      1.0  0.27949  0.48992  0.88010  1.0000
  H   H132      1.0  0.24637  0.27219  0.68830  1.0000
  H   H133      1.0  0.41931  0.30659  0.01382  1.0000
  H   H134      1.0  0.25498  0.37764  0.69562  1.0000
  H   H135      1.0  0.14137  0.48070  0.80347  1.0000
  H   H136      1.0  0.28752  0.02528  0.71887  1.0000
  C   C145      1.0  0.37064  0.01557  0.69850  1.0000
  H   H137      1.0  0.44935  0.39283  0.98708  1.0000
  H   H138      1.0  0.44149  0.08629  0.71232  1.0000
  H   H139      1.0  0.01691  0.32172  0.79255  1.0000
  H   H140      1.0  0.39137  0.01868  0.70881  1.0000
  C   C146      1.0  0.48048  0.51089  0.92923  1.0000
  H   H141      1.0  0.41538  0.41353  0.01402  1.0000
  H   H142      1.0  0.33633  0.51171  0.89623  1.0000
  H   H143      1.0  0.16644  0.76349  0.23408  1.0000
  S   S52       1.0  0.45469  0.71629  0.12981  1.0000
  H   H144      1.0  0.33387  0.73078  0.22910  1.0000
  C   C147      1.0  0.46871  0.79406  0.31527  1.0000
  Fe  Fe27      1.0  0.23171  0.71741  0.20572  1.0000
  S   S53       1.0  0.21843  0.72257  0.17685  1.0000
  S   S54       1.0  0.24880  0.77116  0.21985  1.0000
  Fe  Fe28      1.0  0.21740  0.63216  0.20674  1.0000
  S   S55       1.0  0.20358  0.63121  0.17824  1.0000
  S   S56       1.0  0.21795  0.57712  0.22263  1.0000
  Fe  Fe29      1.0  0.25447  0.66914  0.17445  1.0000
  S   S57       1.0  0.29350  0.64811  0.15269  1.0000
  Fe  Fe30      1.0  0.16897  0.68398  0.18357  1.0000
  S   S58       1.0  0.11007  0.68860  0.17137  1.0000
  S   S59       1.0  0.27069  0.66650  0.20289  1.0000
  S   S60       1.0  0.17979  0.68279  0.21250  1.0000
  Fe  Fe31      1.0  0.30983  0.88046  0.33606  1.0000
  S   S61       1.0  0.32977  0.86277  0.30939  1.0000
  C   C148      1.0  0.15414  0.79210  0.23055  1.0000
  H   H145      1.0  0.18375  0.79018  0.19851  1.0000
  C   C149      1.0  0.09441  0.78675  0.21411  1.0000
  H   H146      1.0  0.42638  0.58955  0.11588  1.0000
  Fe  Fe32      1.0  0.30934  0.80387  0.31720  1.0000
  S   S62       1.0  0.27840  0.75924  0.30158  1.0000
  Fe  Fe33      1.0  0.38349  0.84591  0.32341  1.0000
  C   C150      1.0  0.25460  0.76862  0.24274  1.0000
  C   C151      1.0  0.26993  0.80009  0.25149  1.0000
  C   C152      1.0  0.27677  0.79800  0.26963  1.0000
  C   C153      1.0  0.26771  0.76457  0.27912  1.0000
  C   C154      1.0  0.25130  0.73358  0.27044  1.0000
  C   C155      1.0  0.24500  0.73544  0.25228  1.0000
  H   H147      1.0  0.27726  0.82589  0.24415  1.0000
  H   H148      1.0  0.28929  0.82206  0.27623  1.0000
  H   H149      1.0  0.24398  0.70774  0.27775  1.0000
  H   H150      1.0  0.23304  0.71109  0.24566  1.0000
  C   C156      1.0  0.41039  0.69633  0.13631  1.0000
  C   C157      1.0  0.39430  0.66555  0.12751  1.0000
  C   C158      1.0  0.35869  0.65095  0.13279  1.0000
  C   C159      1.0  0.33857  0.66722  0.14681  1.0000
  C   C160      1.0  0.35461  0.69806  0.15561  1.0000
  C   C161      1.0  0.39028  0.71258  0.15033  1.0000
  H   H151      1.0  0.40869  0.65409  0.11623  1.0000
  H   H152      1.0  0.34625  0.62752  0.12571  1.0000
  H   H153      1.0  0.33939  0.71102  0.16634  1.0000
  H   H154      1.0  0.40228  0.73674  0.15708  1.0000
  C   C162      1.0  0.06680  0.68954  0.18331  1.0000
  C   C163      1.0  0.07434  0.78331  0.19842  1.0000
  C   C164      1.0  0.06609  0.69137  0.20159  1.0000
  H   H155      1.0  0.32606  0.95502  0.30096  1.0000
  H   H156      1.0  0.09247  0.69177  0.20882  1.0000
  H   H157      1.0  0.09775  0.59333  0.18186  1.0000
  H   H158      1.0  0.16359  0.57430  0.19441  1.0000
  H   H159      1.0  0.43969  0.78445  0.31544  1.0000
  H   H160      1.0  0.10932  0.59437  0.21399  1.0000
  H   H161      1.0  0.34538  0.70571  0.30003  1.0000
  C   C165      1.0  0.36730  0.75391  0.27584  1.0000
  H   H162      1.0  0.07872  0.78654  0.22635  1.0000
  C   C166      1.0  0.36187  0.77208  0.24529  1.0000
  H   H163      1.0  0.44892  0.60931  0.15615  1.0000
  H   H164      1.0  0.14956  0.78256  0.17047  1.0000
  S   S63       1.0  0.49501  0.63231  0.09917  1.0000
  C   C167      1.0  0.34414  0.73714  0.24214  1.0000
  H   H165      1.0  0.38723  0.80777  0.26487  1.0000
  H   H166      1.0  0.25280  0.57746  0.15515  1.0000
  H   H167      1.0  0.31339  0.68083  0.28636  1.0000
  C   C168      1.0  0.19676  0.53855  0.21184  1.0000
  C   C169      1.0  0.28927  0.56335  0.18541  1.0000
  H   H168      1.0  0.36352  0.66799  0.28624  1.0000
  S   S64       1.0  0.36537  0.78516  0.32872  1.0000
  C   C170      1.0  0.03661  0.59469  0.18468  1.0000
  C   C171      1.0  0.33832  0.71113  0.25606  1.0000
  C   C172      1.0  0.03220  0.68914  0.17414  1.0000
  C   C173      1.0  0.15295  0.78855  0.19857  1.0000
  H   H169      1.0  0.36577  0.79279  0.23465  1.0000
  H   H170      1.0  0.13944  0.52031  0.17713  1.0000
  C   C174      1.0  0.34451  0.97926  0.30336  1.0000
  C   C175      1.0  0.01263  0.59774  0.21372  1.0000
  S   S65       1.0  0.44009  0.86771  0.31394  1.0000
  C   C176      1.0  0.46724  0.60154  0.14488  1.0000
  S   S66       1.0  0.28464  0.82251  0.34296  1.0000
  C   C177      1.0  0.25065  0.54784  0.15971  1.0000
  H   H171      1.0  0.03188  0.59456  0.17065  1.0000
  C   C178      1.0  0.42204  0.52820  0.11629  1.0000
  C   C179      1.0  0.37372  0.78053  0.26222  1.0000
  N   N12       1.0  0.45546  0.56457  0.13780  1.0000
  N   N13       1.0  0.13321  0.78975  0.21401  1.0000
  H   H172      1.0  0.37598  0.76099  0.28901  1.0000
  C   C180      1.0  0.47681  0.83327  0.31401  1.0000
  H   H173      1.0  0.03079  0.69528  0.22468  1.0000
  H   H174      1.0  0.49195  0.73672  0.31754  1.0000
  H   H175      1.0  0.49747  0.60017  0.14911  1.0000
  C   C181      1.0  0.04963  0.59660  0.22045  1.0000
  H   H176      1.0  0.07923  0.77767  0.17042  1.0000
  Fe  Fe34      1.0  0.50171  0.68609  0.11460  1.0000
  C   C182      1.0  0.03109  0.69343  0.21055  1.0000
  H   H177      1.0  0.39403  0.94413  0.30870  1.0000
  H   H178      1.0  0.40622  0.52724  0.10413  1.0000
  C   C183      1.0  0.07398  0.59377  0.19095  1.0000
  H   H179      1.0  0.05437  0.59781  0.23446  1.0000
  H   H180      1.0  0.32016  0.55873  0.18333  1.0000
  C   C184      1.0  0.08046  0.59466  0.20896  1.0000
  H   H181      1.0  0.17792  0.81291  0.22928  1.0000
  C   C185      1.0  0.38253  0.97317  0.30785  1.0000
  H   H182      1.0  0.13571  0.80181  0.24146  1.0000
  H   H183      1.0  0.32375  0.68439  0.25358  1.0000
  N   N14       1.0  0.34946  0.71990  0.27267  1.0000
  C   C186      1.0  0.17198  0.54539  0.19784  1.0000
  H   H184      1.0  0.04364  0.78010  0.19852  1.0000
  H   H185      1.0  0.28243  0.59357  0.18167  1.0000
  C   C187      1.0  0.13381  0.78464  0.18267  1.0000
  C   C188      1.0  0.34285  0.69212  0.28700  1.0000
  C   C189      1.0  0.43389  0.56337  0.12293  1.0000
  H   H186      1.0  0.03245  0.68796  0.15998  1.0000
  C   C190      1.0  0.09427  0.78207  0.18262  1.0000
  H   H187      1.0  0.46519  0.62518  0.13497  1.0000
  C   C191      1.0  0.49835  0.76702  0.31631  1.0000
  H   H188      1.0  0.28238  0.55989  0.19958  1.0000
  C   C192      1.0  0.30103  0.98094  0.34263  1.0000
  C   C193      1.0  0.46526  0.53131  0.14653  1.0000
  S   S67       1.0  0.27785  0.93710  0.33827  1.0000
  N   N15       1.0  0.26749  0.53613  0.17506  1.0000
  H   H189      1.0  0.48334  0.53220  0.15800  1.0000
  H   H190      1.0  0.43468  0.99977  0.31549  1.0000
  C   C194      1.0  0.40536  0.00472  0.31170  1.0000
  C   C195      1.0  0.15776  0.51472  0.18827  1.0000
  C   C196      1.0  0.22991  0.52193  0.14975  1.0000
  H   H191      1.0  0.21579  0.53155  0.13783  1.0000
  N   N16       1.0  0.00657  0.59703  0.19604  1.0000
  H   H192      1.0  0.22013  0.85366  0.37779  1.0000
  H   H193      1.0  0.44040  0.73937  0.36322  1.0000
  S   S68       1.0  0.30498  0.73652  0.66042  1.0000
  H   H194      1.0  0.25954  0.62864  0.47432  1.0000
  S   S69       1.0  0.38251  0.58103  0.63496  1.0000
  H   H195      1.0  0.48858  0.55049  0.58940  1.0000
  H   H196      1.0  0.25495  0.63221  0.44188  1.0000
  H   H197      1.0  0.33316  0.55406  0.48690  1.0000
  S   S70       1.0  0.35737  0.77528  0.37921  1.0000
  S   S71       1.0  0.47173  0.80820  0.67518  1.0000
  S   S72       1.0  0.28361  0.61726  0.40510  1.0000
  H   H198      1.0  0.28274  0.68169  0.63470  1.0000
  C   C197      1.0  0.33876  0.72943  0.38501  1.0000
  C   C198      1.0  0.30681  0.71456  0.37667  1.0000
  C   C199      1.0  0.29052  0.67991  0.38280  1.0000
  C   C200      1.0  0.30675  0.65907  0.39688  1.0000
  C   C201      1.0  0.33953  0.67325  0.40479  1.0000
  C   C202      1.0  0.35511  0.70852  0.39903  1.0000
  H   H199      1.0  0.29413  0.73004  0.36573  1.0000
  H   H200      1.0  0.26523  0.66913  0.37657  1.0000
  H   H201      1.0  0.35223  0.65762  0.41569  1.0000
  H   H202      1.0  0.37979  0.71975  0.40559  1.0000
  C   C203      1.0  0.22756  0.57734  0.44007  1.0000
  C   C204      1.0  0.21432  0.54520  0.44932  1.0000
  C   C205      1.0  0.26500  0.80150  0.39309  1.0000
  H   H203      1.0  0.28677  0.78703  0.40150  1.0000
  C   C206      1.0  0.41859  0.68580  0.62619  1.0000
  C   C207      1.0  0.21734  0.54384  0.46759  1.0000
  H   H204      1.0  0.20767  0.51839  0.47466  1.0000
  H   H205      1.0  0.34535  0.90602  0.39375  1.0000
  C   C208      1.0  0.32595  0.53652  0.49824  1.0000
  C   C209      1.0  0.24389  0.60751  0.44911  1.0000
  C   C210      1.0  0.32468  0.52747  0.53015  1.0000
  C   C211      1.0  0.50095  0.74864  0.36117  1.0000
  C   C212      1.0  0.47215  0.67990  0.64578  1.0000
  Fe  Fe35      1.0  0.34205  0.80707  0.35393  1.0000
  C   C213      1.0  0.23521  0.57222  0.49557  1.0000
  C   C214      1.0  0.33516  0.97403  0.67916  1.0000
  H   H206      1.0  0.39712  0.52184  0.47656  1.0000
  C   C215      1.0  0.32525  0.69183  0.65437  1.0000
  C   C216      1.0  0.35812  0.67726  0.66240  1.0000
  C   C217      1.0  0.37407  0.64226  0.65686  1.0000
  C   C218      1.0  0.35794  0.62186  0.64300  1.0000
  C   C219      1.0  0.32470  0.63611  0.63516  1.0000
  C   C220      1.0  0.30830  0.67077  0.64094  1.0000
  S   S73       1.0  0.32126  0.92789  0.67191  1.0000
  H   H207      1.0  0.39970  0.63140  0.66306  1.0000
  H   H208      1.0  0.31195  0.62074  0.62449  1.0000
  H   H209      1.0  0.45353  0.63480  0.62879  1.0000
  H   H210      1.0  0.29707  0.94852  0.37935  1.0000
  S   S74       1.0  0.44693  0.56318  0.44485  1.0000
  S   S75       1.0  0.33732  0.57194  0.44688  1.0000
  H   H211      1.0  0.26108  0.58678  0.50044  1.0000
  H   H212      1.0  0.23666  0.54209  0.50067  1.0000
  Fe  Fe36      1.0  0.36219  0.53661  0.61534  1.0000
  H   H213      1.0  0.40013  0.67283  0.61660  1.0000
  Fe  Fe37      1.0  0.31625  0.56925  0.41913  1.0000
  H   H214      1.0  0.48277  0.72979  0.66143  1.0000
  N   N17       1.0  0.41110  0.72188  0.63222  1.0000
  H   H215      1.0  0.44510  0.52594  0.48358  1.0000
  H   H216      1.0  0.47590  0.85651  0.35766  1.0000
  C   C221      1.0  0.45405  0.79941  0.36070  1.0000
  C   C222      1.0  0.24662  0.60515  0.46739  1.0000
  S   S76       1.0  0.37102  0.82697  0.66323  1.0000
  C   C223      1.0  0.25513  0.90388  0.37809  1.0000
  H   H217      1.0  0.34857  0.57667  0.51671  1.0000
  H   H218      1.0  0.46853  0.57138  0.40349  1.0000
  H   H219      1.0  0.23442  0.92203  0.37133  1.0000
  S   S77       1.0  0.33307  0.54695  0.55112  1.0000
  C   C224      1.0  0.44895  0.66413  0.63300  1.0000
  H   H220      1.0  0.22585  0.57858  0.42586  1.0000
  H   H221      1.0  0.29586  0.00377  0.66196  1.0000
  H   H222      1.0  0.42865  0.76668  0.64909  1.0000
  H   H223      1.0  0.35639  0.72510  0.62010  1.0000
  C   C225      1.0  0.46298  0.76038  0.36187  1.0000
  H   H224      1.0  0.37141  0.69299  0.67280  1.0000
  C   C226      1.0  0.33457  0.54934  0.51516  1.0000
  H   H225      1.0  0.26417  0.78607  0.38048  1.0000
  S   S78       1.0  0.37073  0.54626  0.40825  1.0000
  H   H226      1.0  0.23709  0.79853  0.39978  1.0000
  Fe  Fe38      1.0  0.38963  0.54397  0.43612  1.0000
  H   H227      1.0  0.20964  0.58638  0.50112  1.0000
  C   C227      1.0  0.47838  0.52424  0.44450  1.0000
  C   C228      1.0  0.47059  0.51431  0.39324  1.0000
  C   C229      1.0  0.24732  0.86521  0.38172  1.0000
  C   C230      1.0  0.43415  0.73784  0.64450  1.0000
  H   H228      1.0  0.36555  0.76183  0.63539  1.0000
  H   H229      1.0  0.33012  0.83785  0.40011  1.0000
  H   H230      1.0  0.38896  0.76341  0.61426  1.0000
  C   C231      1.0  0.37906  0.74419  0.62505  1.0000
  H   H231      1.0  0.42462  0.80869  0.36113  1.0000
  N   N18       1.0  0.27384  0.84209  0.38977  1.0000
  C   C232      1.0  0.30872  0.85636  0.39409  1.0000
  C   C233      1.0  0.31754  0.89489  0.39055  1.0000
  C   C234      1.0  0.29048  0.91874  0.38252  1.0000
  C   C235      1.0  0.48327  0.82629  0.35886  1.0000
  C   C236      1.0  0.46490  0.71709  0.65152  1.0000
  H   H232      1.0  0.20249  0.52114  0.44237  1.0000
  N   N19       1.0  0.23362  0.57346  0.47637  1.0000
  S   S79       1.0  0.39495  0.52908  0.59028  1.0000
  C   C237      1.0  0.33886  0.98170  0.34820  1.0000
  C   C238      1.0  0.31692  0.00695  0.67214  1.0000
  S   S80       1.0  0.30543  0.52729  0.60252  1.0000
  Fe  Fe39      1.0  0.33596  0.78123  0.67635  1.0000
  H   H233      1.0  0.35452  0.95512  0.35000  1.0000
  Fe  Fe40      1.0  0.33883  0.51584  0.57764  1.0000
  S   S81       1.0  0.36477  0.86694  0.34960  1.0000
  C   C239      1.0  0.48634  0.54635  0.40130  1.0000
  H   H234      1.0  0.49551  0.66325  0.65134  1.0000
  H   H235      1.0  0.44103  0.51449  0.38917  1.0000
  Fe  Fe41      1.0  0.27326  0.66321  0.81116  1.0000
  S   S82       1.0  0.24744  0.71452  0.82405  1.0000
  S   S83       1.0  0.30238  0.66235  0.78461  1.0000
  Fe  Fe42      1.0  0.24995  0.60963  0.84148  1.0000
  S   S84       1.0  0.22254  0.65706  0.85660  1.0000
  S   S85       1.0  0.24863  0.55054  0.85386  1.0000
  Fe  Fe43      1.0  0.19753  0.67595  0.83062  1.0000
  S   S86       1.0  0.13635  0.68493  0.82099  1.0000
  Fe  Fe44      1.0  0.27498  0.69024  0.84872  1.0000
  S   S87       1.0  0.31298  0.72486  0.86660  1.0000
  S   S88       1.0  0.22231  0.62610  0.81610  1.0000
  S   S89       1.0  0.30360  0.64131  0.83523  1.0000
  N   N20       1.0  0.14320  0.56096  0.83784  1.0000
  C   C240      1.0  0.05882  0.67514  0.82169  1.0000
  Fe  Fe45      1.0  0.35011  0.81400  0.71249  1.0000
  C   C241      1.0  0.44812  0.65975  0.85955  1.0000
  S   S90       1.0  0.33006  0.81592  0.74059  1.0000
  C   C242      1.0  0.24669  0.66655  0.74553  1.0000
  C   C243      1.0  0.28462  0.70870  0.70365  1.0000
  S   S91       1.0  0.37847  0.76679  0.69734  1.0000
  S   S92       1.0  0.38827  0.86123  0.70233  1.0000
  Fe  Fe46      1.0  0.49878  0.65336  0.92130  1.0000
  S   S93       1.0  0.44288  0.63534  0.90896  1.0000
  C   C244      1.0  0.02248  0.67383  0.82955  1.0000
  C   C245      1.0  0.24269  0.51337  0.83896  1.0000
  H   H236      1.0  0.25597  0.76580  0.72272  1.0000
  H   H237      1.0  0.16687  0.58524  0.86071  1.0000
  H   H238      1.0  0.31592  0.70846  0.70545  1.0000
  H   H239      1.0  0.41122  0.68537  0.93807  1.0000
  C   C246      1.0  0.26331  0.67022  0.72892  1.0000
  H   H240      1.0  0.04887  0.68704  0.87175  1.0000
  H   H241      1.0  0.47305  0.80009  0.71324  1.0000
  H   H242      1.0  0.35593  0.93738  0.75348  1.0000
  H   H243      1.0  0.45750  0.63182  0.86445  1.0000
  C   C247      1.0  0.25238  0.73763  0.72880  1.0000
  H   H244      1.0  0.44854  0.62792  0.99521  1.0000
  C   C248      1.0  0.29421  0.91462  0.72141  1.0000
  H   H245      1.0  0.22108  0.69683  0.76695  1.0000
  H   H246      1.0  0.40146  0.61608  0.94357  1.0000
  H   H247      1.0  0.25082  0.54863  0.81581  1.0000
  C   C249      1.0  0.09175  0.68030  0.83182  1.0000
  C   C250      1.0  0.05156  0.68320  0.85777  1.0000
  C   C251      1.0  0.08797  0.68368  0.84997  1.0000
  C   C252      1.0  0.23540  0.73496  0.74537  1.0000
  H   H248      1.0  0.11292  0.68806  0.85793  1.0000
  C   C253      1.0  0.34759  0.70021  0.87946  1.0000
  C   C254      1.0  0.34807  0.66009  0.88073  1.0000
  C   C255      1.0  0.37703  0.64097  0.89017  1.0000
  C   C256      1.0  0.40608  0.66160  0.89830  1.0000
  C   C257      1.0  0.40540  0.70179  0.89732  1.0000
  C   C258      1.0  0.37608  0.72100  0.88801  1.0000
  H   H249      1.0  0.32613  0.64376  0.87439  1.0000
  H   H250      1.0  0.37718  0.60989  0.89094  1.0000
  H   H251      1.0  0.42747  0.71807  0.90359  1.0000
  H   H252      1.0  0.37578  0.75206  0.88714  1.0000
  C   C259      1.0  0.31344  0.70568  0.77339  1.0000
  C   C260      1.0  0.30165  0.74127  0.77972  1.0000
  C   C261      1.0  0.30784  0.77497  0.76972  1.0000
  C   C262      1.0  0.32567  0.77332  0.75329  1.0000
  C   C263      1.0  0.33825  0.73786  0.74709  1.0000
  C   C264      1.0  0.33221  0.70416  0.75715  1.0000
  H   H253      1.0  0.28719  0.74283  0.79218  1.0000
  H   H254      1.0  0.29817  0.80232  0.77463  1.0000
  H   H255      1.0  0.35238  0.73633  0.73454  1.0000
  H   H256      1.0  0.34156  0.67672  0.75222  1.0000
  N   N21       1.0  0.43392  0.69551  0.96348  1.0000
  H   H257      1.0  0.46873  0.75348  0.86264  1.0000
  C   C265      1.0  0.41843  0.67313  0.95082  1.0000
  H   H258      1.0  0.27641  0.73563  0.69654  1.0000
  Fe  Fe47      1.0  0.34438  0.86969  0.68138  1.0000
  H   H259      1.0  0.14963  0.61972  0.84499  1.0000
  H   H260      1.0  0.46807  0.73853  0.95163  1.0000
  H   H261      1.0  0.41766  0.74968  0.95226  1.0000
  C   C266      1.0  0.23252  0.69914  0.75374  1.0000
  Fe  Fe48      1.0  0.41204  0.81507  0.68513  1.0000
  H   H262      1.0  0.11600  0.59260  0.85783  1.0000
  H   H263      1.0  0.49252  0.69058  0.88899  1.0000
  H   H264      1.0  0.22607  0.76066  0.75200  1.0000
  H   H265      1.0  0.32398  0.89715  0.75384  1.0000
  H   H266      1.0  0.24630  0.63895  0.75238  1.0000
  C   C267      1.0  0.43925  0.64042  0.98279  1.0000
  C   C268      1.0  0.42335  0.61740  0.96997  1.0000
  C   C269      1.0  0.36232  0.97859  0.69231  1.0000
  H   H267      1.0  0.13515  0.54947  0.79409  1.0000
  H   H268      1.0  0.25480  0.91497  0.69974  1.0000
  C   C270      1.0  0.45417  0.72766  0.85870  1.0000
  C   C271      1.0  0.41492  0.66224  0.84950  1.0000
  C   C272      1.0  0.42090  0.73120  0.84874  1.0000
  C   C273      1.0  0.40127  0.69823  0.84409  1.0000
  H   H269      1.0  0.42013  0.58675  0.97231  1.0000
  H   H270      1.0  0.36192  0.89933  0.73802  1.0000
  C   C274      1.0  0.50128  0.68917  0.87505  1.0000
  H   H271      1.0  0.39892  0.63661  0.84653  1.0000
  H   H272      1.0  0.40960  0.75931  0.84512  1.0000
  H   H273      1.0  0.37467  0.70068  0.83693  1.0000
  C   C275      1.0  0.01857  0.67865  0.84762  1.0000
  C   C276      1.0  0.34053  0.91685  0.74513  1.0000
  H   H274      1.0  0.37654  0.95360  0.69786  1.0000
  H   H275      1.0  0.44607  0.75264  0.97172  1.0000
  C   C277      1.0  0.14387  0.59106  0.85101  1.0000
  N   N22       1.0  0.46759  0.69220  0.86380  1.0000
  H   H276      1.0  0.06139  0.67250  0.80765  1.0000
  H   H277      1.0  0.27677  0.68460  0.69502  1.0000
  C   C278      1.0  0.44164  0.73611  0.95956  1.0000
  N   N23       1.0  0.31508  0.93631  0.73259  1.0000
  H   H278      1.0  0.29671  0.88353  0.72180  1.0000
  H   H279      1.0  0.03386  0.75893  0.82599  1.0000
  S   S94       1.0  0.30463  0.82493  0.69244  1.0000
  N   N24       1.0  0.26558  0.70539  0.72070  1.0000
  C   C279      1.0  0.27002  0.93217  0.70912  1.0000
  H   H280      1.0  0.27517  0.64490  0.72282  1.0000
  C   C280      1.0  0.41274  0.63383  0.95388  1.0000
  C   C281      1.0  0.50116  0.79416  0.70814  1.0000
  C   C282      1.0  0.26723  0.97216  0.70832  1.0000
  C   C283      1.0  0.13783  0.54181  0.80786  1.0000
  H   H281      1.0  0.45742  0.69716  0.98921  1.0000
  C   C284      1.0  0.44433  0.67966  0.97931  1.0000
  H   H282      1.0  0.24979  0.98614  0.69835  1.0000
  C   C285      1.0  0.24412  0.52032  0.82087  1.0000
  C   C286      1.0  0.13851  0.57045  0.82050  1.0000
  H   H283      1.0  0.13577  0.60034  0.81633  1.0000
  C   C287      1.0  0.31251  0.97560  0.73192  1.0000
  H   H284      1.0  0.45802  0.52151  0.92073  1.0000
  C   C288      1.0  0.28850  0.99410  0.71981  1.0000
  C   C289      1.0  0.14591  0.52328  0.84311  1.0000
  H   H285      1.0  0.32954  0.99299  0.74051  1.0000
  H   H286      1.0  0.14993  0.51580  0.85683  1.0000
  Fe  Fe49      1.0  0.68436  0.19187  0.31567  1.0000
  H   H287      1.0  0.56416  0.19616  0.31233  1.0000
  S   S95       1.0  0.69795  0.23836  0.29549  1.0000
  C   C290      1.0  0.99356  0.31228  0.17506  1.0000
  H   H288      1.0  0.69804  0.22382  0.13846  1.0000
  C   C291      1.0  0.79710  0.48041  0.15265  1.0000
  C   C292      1.0  0.61860  0.02954  0.31288  1.0000
  S   S96       1.0  0.72989  0.05833  0.33409  1.0000
  S   S97       1.0  0.66508  0.13165  0.31092  1.0000
  Fe  Fe50      1.0  0.79506  0.26753  0.20664  1.0000
  S   S98       1.0  0.81452  0.26153  0.17866  1.0000
  S   S99       1.0  0.78286  0.21470  0.22326  1.0000
  Fe  Fe51      1.0  0.79629  0.35352  0.20460  1.0000
  S   S100      1.0  0.81498  0.35468  0.17661  1.0000
  S   S101      1.0  0.78531  0.40766  0.21934  1.0000
  Fe  Fe52      1.0  0.77185  0.30853  0.17285  1.0000
  S   S102      1.0  0.73678  0.31113  0.14789  1.0000
  Fe  Fe53      1.0  0.85619  0.30821  0.18493  1.0000
  S   S103      1.0  0.91564  0.31499  0.17346  1.0000
  S   S104      1.0  0.74957  0.31104  0.20032  1.0000
  S   S105      1.0  0.84013  0.31041  0.21338  1.0000
  S   S106      1.0  0.53213  0.34608  0.09224  1.0000
  H   H289      1.0  0.76635  0.33819  0.28865  1.0000
  C   C293      1.0  0.71849  0.40428  0.17704  1.0000
  C   C294      1.0  0.67879  0.02304  0.29683  1.0000
  S   S107      1.0  0.55605  0.31063  0.14239  1.0000
  H   H290      1.0  0.63479  0.22915  0.15276  1.0000
  H   H291      1.0  0.68578  0.05166  0.30214  1.0000
  H   H292      1.0  0.74079  0.47220  0.18860  1.0000
  C   C295      1.0  0.78420  0.28143  0.29640  1.0000
  C   C296      1.0  0.81325  0.44556  0.21111  1.0000
  H   H293      1.0  0.79179  0.37218  0.26361  1.0000
  C   C297      1.0  0.53501  0.18984  0.31573  1.0000
  C   C298      1.0  0.86272  0.46854  0.19146  1.0000
  C   C299      1.0  0.84314  0.43812  0.19954  1.0000
  H   H294      1.0  0.92828  0.39527  0.18400  1.0000
  H   H295      1.0  0.85111  0.40892  0.19673  1.0000
  C   C300      1.0  0.95945  0.30441  0.18402  1.0000
  C   C301      1.0  0.76225  0.42085  0.15300  1.0000
  C   C302      1.0  0.96113  0.29006  0.20123  1.0000
  H   H296      1.0  0.80202  0.43751  0.13270  1.0000
  H   H297      1.0  0.93513  0.28372  0.20826  1.0000
  C   C303      1.0  0.68651  0.31380  0.14664  1.0000
  C   C304      1.0  0.66905  0.31309  0.13010  1.0000
  C   C305      1.0  0.62914  0.31303  0.12852  1.0000
  C   C306      1.0  0.60628  0.31358  0.14352  1.0000
  C   C307      1.0  0.62377  0.31483  0.16006  1.0000
  C   C308      1.0  0.66368  0.31510  0.16164  1.0000
  H   H298      1.0  0.68647  0.31212  0.11842  1.0000
  H   H299      1.0  0.61606  0.31203  0.11573  1.0000
  H   H300      1.0  0.60625  0.31526  0.17172  1.0000
  H   H301      1.0  0.67667  0.31543  0.17445  1.0000
  N   N25       1.0  0.74591  0.43028  0.16865  1.0000
  H   H302      1.0  0.72225  0.40381  0.19151  1.0000
  C   C309      1.0  0.69539  0.21977  0.15254  1.0000
  H   H303      1.0  0.88489  0.46264  0.18202  1.0000
  C   C310      1.0  0.78846  0.44552  0.14489  1.0000
  C   C311      1.0  0.71783  0.22940  0.27475  1.0000
  C   C312      1.0  0.73413  0.19390  0.27070  1.0000
  C   C313      1.0  0.75334  0.18935  0.25467  1.0000
  C   C314      1.0  0.75642  0.22026  0.24269  1.0000
  C   C315      1.0  0.73905  0.25534  0.24651  1.0000
  C   C316      1.0  0.71985  0.25986  0.26249  1.0000
  H   H304      1.0  0.73281  0.17031  0.28011  1.0000
  H   H305      1.0  0.76661  0.16207  0.25173  1.0000
  H   H306      1.0  0.74092  0.27918  0.23732  1.0000
  H   H307      1.0  0.70711  0.28732  0.26555  1.0000
  S   S108      1.0  0.63365  0.20640  0.33233  1.0000
  C   C317      1.0  0.51920  0.37786  0.01719  1.0000
  H   H308      1.0  0.69536  0.23916  0.21347  1.0000
  C   C318      1.0  0.51871  0.38575  0.04908  1.0000
  H   H309      1.0  0.93041  0.37088  0.20459  1.0000
  H   H310      1.0  0.55497  0.26919  0.01827  1.0000
  C   C319      1.0  0.72403  0.20998  0.18098  1.0000
  C   C320      1.0  0.00094  0.40930  0.18156  1.0000
  H   H311      1.0  0.68907  0.41362  0.17376  1.0000
  H   H312      1.0  0.83522  0.22111  0.27078  1.0000
  C   C321      1.0  0.77926  0.49034  0.16827  1.0000
  H   H313      1.0  0.76870  0.28176  0.30872  1.0000
  C   C322      1.0  0.80352  0.24826  0.29141  1.0000
  C   C323      1.0  0.65990  0.22284  0.16059  1.0000
  C   C324      1.0  0.99665  0.28368  0.20935  1.0000
  N   N26       1.0  0.68913  0.21311  0.18878  1.0000
  H   H314      1.0  0.99256  0.32325  0.16172  1.0000
  C   C325      1.0  0.80439  0.48361  0.21533  1.0000
  C   C326      1.0  0.82140  0.24727  0.27509  1.0000
  H   H315      1.0  0.78148  0.48953  0.22440  1.0000
  H   H316      1.0  0.72245  0.37431  0.17257  1.0000
  C   C327      1.0  0.81964  0.27961  0.26397  1.0000
  N   N27       1.0  0.80074  0.31211  0.26900  1.0000
  C   C328      1.0  0.94123  0.39646  0.19726  1.0000
  C   C329      1.0  0.72770  0.21335  0.16276  1.0000
  H   H317      1.0  0.83235  0.27798  0.25104  1.0000
  S   S109      1.0  0.52615  0.27598  0.05338  1.0000
  S   S110      1.0  0.56029  0.11851  0.32641  1.0000
  H   H318      1.0  0.70531  0.18834  0.21340  1.0000
  H   H319      1.0  0.62978  0.22375  0.18501  1.0000
  H   H320      1.0  0.54583  0.47102  0.13128  1.0000
  C   C330      1.0  0.78280  0.31317  0.28492  1.0000
  C   C331      1.0  0.52528  0.15345  0.32228  1.0000
  C   C332      1.0  0.79733  0.34484  0.25672  1.0000
  H   H321      1.0  0.93141  0.42296  0.20381  1.0000
  H   H322      1.0  0.82392  0.34893  0.24904  1.0000
  Fe  Fe54      1.0  0.51927  0.31585  0.11781  1.0000
  H   H323      1.0  0.51059  0.42225  0.11457  1.0000
  Fe  Fe55      1.0  0.61805  0.14456  0.32969  1.0000
  N   N28       1.0  0.98286  0.39566  0.19628  1.0000
  C   C333      1.0  0.53165  0.47920  0.11921  1.0000
  C   C334      1.0  0.65733  0.21993  0.17886  1.0000
  Fe  Fe56      1.0  0.69776  0.11544  0.33527  1.0000
  H   H324      1.0  0.80325  0.22289  0.29989  1.0000
  C   C335      1.0  0.68640  0.21132  0.20794  1.0000
  H   H325      1.0  0.62129  0.06054  0.31213  1.0000
  H   H326      1.0  0.75553  0.21205  0.15662  1.0000
  C   C336      1.0  0.85308  0.50656  0.19521  1.0000
  H   H327      1.0  0.65705  0.20492  0.21247  1.0000
  H   H328      1.0  0.77358  0.34007  0.24745  1.0000
  H   H329      1.0  0.74934  0.20530  0.18886  1.0000
  S   S111      1.0  0.72178  0.17539  0.33858  1.0000
  C   C337      1.0  0.75379  0.46467  0.17621  1.0000
  H   H330      1.0  0.54813  0.36703  0.01804  1.0000
  H   H331      1.0  0.75555  0.39382  0.14684  1.0000
  H   H332      1.0  0.98465  0.41934  0.17032  1.0000
  C   C338      1.0  0.58707  0.01385  0.32151  1.0000
  H   H333      1.0  0.52990  0.41433  0.05268  1.0000
  C   C339      1.0  0.52554  0.27824  0.01732  1.0000
  H   H334      1.0  0.99774  0.27245  0.22265  1.0000
  H   H335      1.0  0.98922  0.37117  0.22193  1.0000
  H   H336      1.0  0.51450  0.24648  0.30857  1.0000
  H   H337      1.0  0.81762  0.49978  0.14666  1.0000
  C   C340      1.0  0.70870  0.01332  0.33946  1.0000
  C   C341      1.0  0.00345  0.38270  0.21040  1.0000
  H   H338      1.0  0.54223  0.36422  0.04922  1.0000
  C   C342      1.0  0.51170  0.45163  0.10976  1.0000
  H   H339      1.0  0.56610  0.03268  0.32741  1.0000
  H   H340      1.0  0.67283  0.02617  0.28262  1.0000
  C   C343      1.0  0.50686  0.21818  0.31344  1.0000
  Fe  Fe57      1.0  0.71267  0.44672  0.61340  1.0000
  S   S112      1.0  0.74321  0.39351  0.62396  1.0000
  H   H341      1.0  0.73021  0.29018  0.42778  1.0000
  S   S113      1.0  0.65676  0.44704  0.59924  1.0000
  H   H342      1.0  0.56410  0.42214  0.55542  1.0000
  H   H343      1.0  0.56506  0.49667  0.45979  1.0000
  N   N29       1.0  0.65933  0.39713  0.66936  1.0000
  C   C344      1.0  0.65786  0.49886  0.51846  1.0000
  H   H344      1.0  0.58527  0.20016  0.37064  1.0000
  S   S114      1.0  0.66148  0.21962  0.38052  1.0000
  Fe  Fe58      1.0  0.69370  0.46845  0.45305  1.0000
  S   S115      1.0  0.64951  0.12583  0.35378  1.0000
  Fe  Fe59      1.0  0.69004  0.42803  0.41762  1.0000
  S   S116      1.0  0.63548  0.45726  0.41040  1.0000
  S   S117      1.0  0.71944  0.38794  0.39853  1.0000
  Fe  Fe60      1.0  0.61834  0.44541  0.43814  1.0000
  S   S118      1.0  0.56000  0.42274  0.44355  1.0000
  C   C345      1.0  0.56947  0.50381  0.57743  1.0000
  S   S119      1.0  0.67064  0.41146  0.44468  1.0000
  H   H345      1.0  0.54825  0.45570  0.39508  1.0000
  S   S120      1.0  0.63959  0.50143  0.44815  1.0000
  C   C346      1.0  0.71708  0.47763  0.53145  1.0000
  H   H346      1.0  0.77817  0.41533  0.42724  1.0000
  S   S121      1.0  0.58668  0.49770  0.63307  1.0000
  H   H347      1.0  0.53850  0.14641  0.36227  1.0000
  C   C347      1.0  0.79309  0.02273  0.67316  1.0000
  C   C348      1.0  0.67630  0.26740  0.38454  1.0000
  C   C349      1.0  0.66053  0.28707  0.39880  1.0000
  C   C350      1.0  0.67246  0.32450  0.40286  1.0000
  C   C351      1.0  0.70099  0.34235  0.39292  1.0000
  C   C352      1.0  0.71673  0.32271  0.37865  1.0000
  C   C353      1.0  0.70416  0.28563  0.37434  1.0000
  H   H348      1.0  0.63896  0.27325  0.40678  1.0000
  H   H349      1.0  0.66008  0.33923  0.41388  1.0000
  H   H350      1.0  0.73886  0.33622  0.37090  1.0000
  H   H351      1.0  0.71667  0.27080  0.36339  1.0000
  C   C354      1.0  0.75700  0.34402  0.43373  1.0000
  C   C355      1.0  0.54790  0.47588  0.62310  1.0000
  S   S122      1.0  0.71762  0.48318  0.42611  1.0000
  H   H352      1.0  0.70126  0.28294  0.45743  1.0000
  C   C356      1.0  0.73510  0.31161  0.43769  1.0000
  C   C357      1.0  0.54472  0.28123  0.35368  1.0000
  C   C358      1.0  0.71819  0.35539  0.63435  1.0000
  C   C359      1.0  0.73795  0.32902  0.64520  1.0000
  C   C360      1.0  0.71856  0.29934  0.65423  1.0000
  C   C361      1.0  0.67929  0.29538  0.65219  1.0000
  C   C362      1.0  0.65973  0.32123  0.64102  1.0000
  C   C363      1.0  0.67895  0.35137  0.63232  1.0000
  H   H353      1.0  0.76835  0.33188  0.64680  1.0000
  S   S123      1.0  0.69510  0.49005  0.63323  1.0000
  H   H354      1.0  0.62937  0.31833  0.63932  1.0000
  H   H355      1.0  0.66344  0.37130  0.62394  1.0000
  S   S124      1.0  0.69546  0.07036  0.67254  1.0000
  H   H356      1.0  0.63976  0.44568  0.65436  1.0000
  S   S125      1.0  0.72842  0.46722  0.47837  1.0000
  C   C364      1.0  0.50760  0.26793  0.35195  1.0000
  Fe  Fe61      1.0  0.64116  0.49343  0.61795  1.0000
  C   C365      1.0  0.55305  0.44454  0.61211  1.0000
  C   C366      1.0  0.57269  0.25685  0.36065  1.0000
  H   H357      1.0  0.58940  0.46197  0.54519  1.0000
  H   H358      1.0  0.60434  0.44241  0.56602  1.0000
  H   H359      1.0  0.77523  0.43136  0.44931  1.0000
  C   C367      1.0  0.70893  0.47650  0.49949  1.0000
  S   S126      1.0  0.65267  0.26089  0.66428  1.0000
  C   C368      1.0  0.74707  0.36786  0.46234  1.0000
  H   H360      1.0  0.52586  0.40496  0.59477  1.0000
  H   H361      1.0  0.75129  0.38990  0.47202  1.0000
  H   H362      1.0  0.81445  0.40079  0.44288  1.0000
  H   H363      1.0  0.71892  0.38707  0.67311  1.0000
  C   C369      1.0  0.72513  0.33572  0.46679  1.0000
  H   H364      1.0  0.73395  0.27966  0.66279  1.0000
  C   C370      1.0  0.51805  0.16641  0.36859  1.0000
  C   C371      1.0  0.58476  0.37131  0.66798  1.0000
  H   H365      1.0  0.78261  0.09776  0.67771  1.0000
  C   C372      1.0  0.57907  0.44953  0.55783  1.0000
  H   H366      1.0  0.76000  0.45899  0.51309  1.0000
  H   H367      1.0  0.58099  0.43231  0.61028  1.0000
  N   N30       1.0  0.55418  0.47725  0.56653  1.0000
  N   N31       1.0  0.52689  0.20618  0.36351  1.0000
  N   N32       1.0  0.76176  0.37215  0.44581  1.0000
  Fe  Fe62      1.0  0.66971  0.18721  0.35501  1.0000
  H   H368      1.0  0.76929  0.34702  0.42073  1.0000
  C   C373      1.0  0.78364  0.40653  0.44111  1.0000
  C   C374      1.0  0.69863  0.41080  0.66993  1.0000
  C   C375      1.0  0.71884  0.30764  0.45430  1.0000
  H   H369      1.0  0.71254  0.33310  0.47973  1.0000
  C   C376      1.0  0.63232  0.41869  0.66076  1.0000
  H   H370      1.0  0.60171  0.26680  0.36211  1.0000
  H   H371      1.0  0.51287  0.18488  0.66682  1.0000
  C   C377      1.0  0.52180  0.42885  0.60347  1.0000
  S   S127      1.0  0.73912  0.49133  0.59528  1.0000
  C   C378      1.0  0.59472  0.40607  0.65987  1.0000
  H   H372      1.0  0.57364  0.42311  0.65278  1.0000
  C   C379      1.0  0.52862  0.46164  0.44415  1.0000
  H   H373      1.0  0.65437  0.49607  0.49019  1.0000
  H   H374      1.0  0.55590  0.36076  0.66712  1.0000
  C   C380      1.0  0.73136  0.46997  0.51454  1.0000
  C   C381      1.0  0.68027  0.49243  0.53349  1.0000
  H   H375      1.0  0.73469  0.47239  0.54285  1.0000
  Fe  Fe63      1.0  0.68132  0.49501  0.58254  1.0000
  H   H376      1.0  0.70746  0.42239  0.65690  1.0000
  C   C382      1.0  0.67195  0.49073  0.50159  1.0000
  H   H377      1.0  0.65977  0.03689  0.35245  1.0000
  C   C383      1.0  0.53853  0.49521  0.45279  1.0000
  H   H378      1.0  0.51991  0.16274  0.38303  1.0000
  H   H379      1.0  0.59973  0.50391  0.57995  1.0000
  C   C384      1.0  0.51599  0.47741  0.56318  1.0000
  H   H380      1.0  0.82236  0.02431  0.66778  1.0000
  H   H381      1.0  0.77289  0.03587  0.66354  1.0000
  C   C385      1.0  0.56323  0.21914  0.36547  1.0000
  H   H382      1.0  0.70138  0.43371  0.67977  1.0000
  C   C386      1.0  0.51140  0.49069  0.62590  1.0000
  C   C387      1.0  0.53067  0.48119  0.39653  1.0000
  H   H383      1.0  0.55188  0.31028  0.34955  1.0000
  C   C388      1.0  0.61228  0.34994  0.67706  1.0000
  C   C389      1.0  0.64959  0.36350  0.67774  1.0000
  S   S128      1.0  0.66100  0.50459  0.55431  1.0000
  Fe  Fe64      1.0  0.66088  0.51173  0.42058  1.0000
  H   H384      1.0  0.62945  0.51048  0.51981  1.0000
  H   H385      1.0  0.95991  0.27602  0.88354  1.0000
  Fe  Fe65      1.0  0.52618  0.31904  0.92215  1.0000
  H   H386      1.0  0.93596  0.23130  0.80033  1.0000
  S   S129      1.0  0.58998  0.32522  0.91665  1.0000
  C   C390      1.0  0.55352  0.49068  0.89904  1.0000
  C   C391      1.0  0.53423  0.10084  0.70161  1.0000
  H   H387      1.0  0.87467  0.36134  0.87195  1.0000
  C   C392      1.0  0.98027  0.33276  0.87689  1.0000
  Fe  Fe66      1.0  0.75635  0.29223  0.84768  1.0000
  S   S130      1.0  0.75018  0.34846  0.83314  1.0000
  S   S131      1.0  0.70171  0.26329  0.85698  1.0000
  Fe  Fe67      1.0  0.84295  0.28771  0.83896  1.0000
  S   S132      1.0  0.84133  0.34318  0.82376  1.0000
  S   S133      1.0  0.89952  0.25568  0.84098  1.0000
  Fe  Fe68      1.0  0.80525  0.36354  0.84595  1.0000
  S   S134      1.0  0.81839  0.41743  0.86035  1.0000
  Fe  Fe69      1.0  0.78679  0.32125  0.81256  1.0000
  S   S135      1.0  0.77215  0.32847  0.78389  1.0000
  S   S136      1.0  0.80945  0.30909  0.86203  1.0000
  S   S137      1.0  0.79037  0.26402  0.82623  1.0000
  Fe  Fe70      1.0  0.63469  0.16823  0.71238  1.0000
  S   S138      1.0  0.58147  0.16165  0.72827  1.0000
  Fe  Fe71      1.0  0.71891  0.18193  0.71404  1.0000
  C   C393      1.0  0.58496  0.50358  0.90830  1.0000
  S   S139      1.0  0.76482  0.18373  0.73464  1.0000
  H   H388      1.0  0.67099  0.34601  0.68436  1.0000
  C   C394      1.0  0.78899  0.08118  0.72151  1.0000
  S   S140      1.0  0.66894  0.22212  0.71214  1.0000
  S   S141      1.0  0.68396  0.12842  0.71672  1.0000
  C   C395      1.0  0.77003  0.28786  0.77042  1.0000
  C   C396      1.0  0.78221  0.25163  0.77639  1.0000
  C   C397      1.0  0.78082  0.21998  0.76525  1.0000
  C   C398      1.0  0.76616  0.22407  0.74824  1.0000
  C   C399      1.0  0.75302  0.26005  0.74240  1.0000
  C   C400      1.0  0.75547  0.29196  0.75338  1.0000
  H   H389      1.0  0.79306  0.24795  0.78951  1.0000
  H   H390      1.0  0.79085  0.19215  0.76986  1.0000
  H   H391      1.0  0.74193  0.26353  0.72925  1.0000
  H   H392      1.0  0.74603  0.31992  0.74866  1.0000
  C   C401      1.0  0.84342  0.49030  0.85471  1.0000
  C   C402      1.0  0.52868  0.12711  0.68777  1.0000
  H   H393      1.0  0.55413  0.39784  0.91319  1.0000
  C   C403      1.0  0.82702  0.45535  0.82871  1.0000
  C   C404      1.0  0.83094  0.45662  0.84691  1.0000
  C   C405      1.0  0.90440  0.35356  0.87349  1.0000
  H   H394      1.0  0.81714  0.42945  0.82260  1.0000
  H   H395      1.0  0.96400  0.36659  0.78472  1.0000
  H   H396      1.0  0.56283  0.09307  0.70573  1.0000
  C   C406      1.0  0.75382  0.49149  0.87152  1.0000
  N   N33       1.0  0.59304  0.44068  0.92130  1.0000
  C   C407      1.0  0.96971  0.37015  0.87180  1.0000
  C   C408      1.0  0.61936  0.30898  0.89919  1.0000
  C   C409      1.0  0.60794  0.28041  0.88769  1.0000
  C   C410      1.0  0.63330  0.26698  0.87475  1.0000
  C   C411      1.0  0.67004  0.28242  0.87292  1.0000
  C   C412      1.0  0.68106  0.31169  0.88412  1.0000
  C   C413      1.0  0.65602  0.32456  0.89727  1.0000
  H   H397      1.0  0.57999  0.26791  0.88906  1.0000
  H   H398      1.0  0.62450  0.24420  0.86623  1.0000
  H   H399      1.0  0.70927  0.32365  0.88298  1.0000
  H   H400      1.0  0.66538  0.34638  0.90615  1.0000
  C   C414      1.0  0.78554  0.10156  0.70571  1.0000
  C   C415      1.0  0.54518  0.19002  0.71895  1.0000
  C   C416      1.0  0.75146  0.50411  0.85405  1.0000
  C   C417      1.0  0.94550  0.31889  0.83463  1.0000
  C   C418      1.0  0.94374  0.27960  0.83864  1.0000
  C   C419      1.0  0.97984  0.27320  0.79631  1.0000
  H   H401      1.0  0.91967  0.33540  0.83303  1.0000
  H   H402      1.0  0.78196  0.13252  0.70575  1.0000
  H   H403      1.0  0.83148  0.48735  0.80432  1.0000
  C   C420      1.0  0.53941  0.48360  0.95072  1.0000
  H   H404      1.0  0.84639  0.49146  0.86880  1.0000
  H   H405      1.0  0.63410  0.39682  0.92571  1.0000
  N   N34       1.0  0.68262  0.22355  0.77997  1.0000
  C   C421      1.0  0.68770  0.20694  0.79619  1.0000
  C   C422      1.0  0.68048  0.26269  0.77810  1.0000
  C   C423      1.0  0.69132  0.22969  0.81104  1.0000
  C   C424      1.0  0.68431  0.28627  0.79264  1.0000
  C   C425      1.0  0.68965  0.26959  0.80920  1.0000
  C   C426      1.0  0.67805  0.19906  0.76468  1.0000
  H   H406      1.0  0.68902  0.17593  0.79773  1.0000
  H   H407      1.0  0.67663  0.27598  0.76527  1.0000
  H   H408      1.0  0.69547  0.21668  0.82395  1.0000
  H   H409      1.0  0.68400  0.31732  0.79104  1.0000
  H   H410      1.0  0.69259  0.28751  0.82060  1.0000
  H   H411      1.0  0.68255  0.21538  0.75221  1.0000
  H   H412      1.0  0.69946  0.17542  0.76486  1.0000
  H   H413      1.0  0.64897  0.18674  0.76448  1.0000
  C   C427      1.0  0.98089  0.33714  0.83283  1.0000
  H   H414      1.0  0.89882  0.43085  0.87279  1.0000
  H   H415      1.0  0.70166  0.04446  0.70903  1.0000
  H   H416      1.0  0.85287  0.29505  0.79007  1.0000
  H   H417      1.0  0.75030  0.46125  0.87485  1.0000
  C   C428      1.0  0.50830  0.28181  0.00070  1.0000
  H   H418      1.0  0.74587  0.48322  0.84401  1.0000
  H   H419      1.0  0.87026  0.25052  0.78150  1.0000
  S   S142      1.0  0.50889  0.35229  0.94609  1.0000
  C   C429      1.0  0.83501  0.48814  0.81838  1.0000
  H   H420      1.0  0.52439  0.27552  0.98899  1.0000
  C   C430      1.0  0.56302  0.42750  0.91183  1.0000
  C   C431      1.0  0.92067  0.32318  0.78790  1.0000
  C   C432      1.0  0.60455  0.47802  0.91944  1.0000
  Fe  Fe72      1.0  0.68768  0.12593  0.68754  1.0000
  C   C433      1.0  0.54256  0.45233  0.90070  1.0000
  C   C434      1.0  0.87398  0.27148  0.79216  1.0000
  H   H421      1.0  0.58279  0.22145  0.70167  1.0000
  H   H422      1.0  0.56228  0.47297  0.95896  1.0000
  C   C435      1.0  0.94209  0.26075  0.79640  1.0000
  H   H423      1.0  0.59320  0.39421  0.93983  1.0000
  N   N35       1.0  0.93214  0.38010  0.87018  1.0000
  H   H424      1.0  0.94544  0.43895  0.86394  1.0000
  H   H425      1.0  0.89769  0.34302  0.78468  1.0000
  C   C436      1.0  0.95214  0.30548  0.88021  1.0000
  C   C437      1.0  0.95810  0.33666  0.78780  1.0000
  N   N36       1.0  0.91313  0.28565  0.79222  1.0000
  C   C438      1.0  0.79538  0.02251  0.70532  1.0000
  C   C439      1.0  0.98782  0.31144  0.79203  1.0000
  C   C440      1.0  0.55366  0.21691  0.70570  1.0000
  C   C441      1.0  0.91394  0.31588  0.87852  1.0000
  H   H426      1.0  0.51623  0.37033  0.98916  1.0000
  H   H427      1.0  0.97690  0.22833  0.84386  1.0000
  Fe  Fe73      1.0  0.67330  0.21345  0.68300  1.0000
  H   H428      1.0  0.62787  0.48882  0.92718  1.0000
  H   H429      1.0  0.86728  0.25720  0.80493  1.0000
  H   H430      1.0  0.00267  0.25369  0.80013  1.0000
  C   C442      1.0  0.61337  0.41427  0.93321  1.0000
  S   S143      1.0  0.72665  0.17708  0.68476  1.0000
  H   H431      1.0  0.89191  0.29454  0.88055  1.0000
  H   H432      1.0  0.53112  0.25882  0.68735  1.0000
  H   H433      1.0  0.62845  0.42993  0.94365  1.0000
  C   C443      1.0  0.51008  0.45900  0.94579  1.0000
  H   H434      1.0  0.78766  0.09642  0.73380  1.0000
  C   C444      1.0  0.52439  0.23810  0.69761  1.0000
  H   H435      1.0  0.51776  0.44203  0.89385  1.0000
  H   H436      1.0  0.79640  0.02514  0.73357  1.0000
  H   H437      1.0  0.90931  0.41746  0.85060  1.0000
  C   C445      1.0  0.97790  0.25877  0.84075  1.0000
  C   C446      1.0  0.79396  0.04136  0.72136  1.0000
  C   C447      1.0  0.70299  0.01962  0.70074  1.0000
  H   H438      1.0  0.98183  0.36761  0.82978  1.0000
  C   C448      1.0  0.69886  0.02418  0.68262  1.0000
  C   C449      1.0  0.78640  0.08177  0.68993  1.0000
  H   H439      1.0  0.51008  0.42975  0.95051  1.0000
  C   C450      1.0  0.50735  0.18433  0.72405  1.0000
  C   C451      1.0  0.92111  0.41876  0.86408  1.0000
  S   S144      1.0  0.63508  0.16173  0.68333  1.0000
  H   H440      1.0  0.50678  0.06670  0.72168  1.0000
  N   N37       1.0  0.79106  0.04271  0.68989  1.0000
  H   H441      1.0  0.99187  0.39069  0.86863  1.0000
  H   H442      1.0  0.76480  0.50835  0.89806  1.0000
  H   H443      1.0  0.55332  0.13905  0.68115  1.0000
  H   H444      1.0  0.60519  0.32233  0.68303  1.0000
  H   H445      1.0  0.53715  0.51061  0.89095  1.0000
  C   C452      1.0  0.99646  0.69263  0.20139  1.0000
  S   S145      1.0  0.65671  0.82023  0.31379  1.0000
  C   C453      1.0  0.96755  0.59732  0.18933  1.0000
  S   S146      1.0  0.68252  0.73133  0.32478  1.0000
  Fe  Fe74      1.0  0.71061  0.78521  0.31487  1.0000
  S   S147      1.0  0.75444  0.78818  0.29308  1.0000
  Fe  Fe75      1.0  0.62998  0.76823  0.32624  1.0000
  S   S148      1.0  0.57249  0.74483  0.31953  1.0000
  C   C454      1.0  0.82439  0.51415  0.20742  1.0000
  Fe  Fe76      1.0  0.85731  0.60290  0.19171  1.0000
  S   S149      1.0  0.88236  0.65300  0.17694  1.0000
  S   S150      1.0  0.87550  0.54387  0.18355  1.0000
  Fe  Fe77      1.0  0.81597  0.65373  0.21773  1.0000
  S   S151      1.0  0.83914  0.70760  0.20538  1.0000
  S   S152      1.0  0.77192  0.65211  0.23942  1.0000
  Fe  Fe78      1.0  0.82401  0.67950  0.17992  1.0000
  S   S153      1.0  0.79535  0.71648  0.15894  1.0000
  Fe  Fe79      1.0  0.89517  0.67560  0.20359  1.0000
  S   S154      1.0  0.95325  0.69500  0.21332  1.0000
  S   S155      1.0  0.79814  0.62719  0.19235  1.0000
  S   S156      1.0  0.87273  0.62384  0.21825  1.0000
  C   C455      1.0  0.64226  0.96709  0.30685  1.0000
  S   S157      1.0  0.58827  0.63258  0.09458  1.0000
  H   H446      1.0  0.61910  0.67226  0.02718  1.0000
  C   C456      1.0  0.61613  0.72971  0.03689  1.0000
  Fe  Fe80      1.0  0.58859  0.68651  0.11015  1.0000
  S   S158      1.0  0.64244  0.72126  0.11386  1.0000
  S   S159      1.0  0.55130  0.55291  0.12673  1.0000
  C   C457      1.0  0.51415  0.52788  0.09765  1.0000
  H   H447      1.0  0.95604  0.56767  0.18927  1.0000
  H   H448      1.0  0.61551  0.61774  0.05553  1.0000
  N   N38       1.0  0.77623  0.67462  0.31797  1.0000
  H   H449      1.0  0.94879  0.61540  0.19758  1.0000
  H   H450      1.0  0.83728  0.74098  0.30168  1.0000
  C   C458      1.0  0.75175  0.71439  0.14720  1.0000
  C   C459      1.0  0.74353  0.74539  0.13592  1.0000
  C   C460      1.0  0.70997  0.74652  0.12611  1.0000
  C   C461      1.0  0.68356  0.71671  0.12731  1.0000
  C   C462      1.0  0.69128  0.68530  0.13867  1.0000
  C   C463      1.0  0.72546  0.68410  0.14861  1.0000
  H   H451      1.0  0.76345  0.76886  0.13465  1.0000
  H   H452      1.0  0.70450  0.77086  0.11744  1.0000
  H   H453      1.0  0.67120  0.66196  0.13965  1.0000
  H   H454      1.0  0.73158  0.65969  0.15710  1.0000
  Fe  Fe81      1.0  0.67073  0.83686  0.34131  1.0000
  C   C464      1.0  0.53624  0.77908  0.31627  1.0000
  H   H455      1.0  0.69309  0.69889  0.19045  1.0000
  C   C465      1.0  0.75868  0.75037  0.27815  1.0000
  C   C466      1.0  0.78895  0.75054  0.26614  1.0000
  C   C467      1.0  0.79365  0.72035  0.25430  1.0000
  C   C468      1.0  0.76801  0.68982  0.25443  1.0000
  C   C469      1.0  0.73781  0.68960  0.26648  1.0000
  C   C470      1.0  0.73305  0.71983  0.27827  1.0000
  H   H456      1.0  0.80891  0.77408  0.26601  1.0000
  H   H457      1.0  0.81700  0.72078  0.24506  1.0000
  H   H458      1.0  0.71777  0.66612  0.26656  1.0000
  H   H459      1.0  0.70951  0.71956  0.28740  1.0000
  C   C471      1.0  0.61094  0.95040  0.31527  1.0000
  N   N39       1.0  0.63642  0.67458  0.05390  1.0000
  H   H460      1.0  0.81694  0.54353  0.21043  1.0000
  C   C472      1.0  0.75327  0.64215  0.31227  1.0000
  Fe  Fe82      1.0  0.54599  0.61160  0.11431  1.0000
  H   H461      1.0  0.98876  0.60008  0.22269  1.0000
  S   S160      1.0  0.53699  0.64059  0.05141  1.0000
  H   H462      1.0  0.60580  0.74191  0.02460  1.0000
  H   H463      1.0  0.82866  0.76659  0.33163  1.0000
  C   C473      1.0  0.64319  0.63301  0.05520  1.0000
  C   C474      1.0  0.54442  0.81825  0.31453  1.0000
  C   C475      1.0  0.99718  0.69035  0.18312  1.0000
  H   H464      1.0  0.55958  0.96137  0.32978  1.0000
  C   C476      1.0  0.53194  0.51757  0.11340  1.0000
  H   H465      1.0  0.65915  0.62487  0.06727  1.0000
  Fe  Fe83      1.0  0.53781  0.65772  0.08022  1.0000
  H   H466      1.0  0.76697  0.62695  0.30120  1.0000
  H   H467      1.0  0.60900  0.91936  0.31663  1.0000
  H   H468      1.0  0.54645  0.61289  0.01677  1.0000
  C   C477      1.0  0.51472  0.84531  0.31334  1.0000
  H   H469      1.0  0.52303  0.72129  0.04065  1.0000
  H   H470      1.0  0.52114  0.87560  0.31219  1.0000
  H   H471      1.0  0.75207  0.67445  0.34364  1.0000
  S   S161      1.0  0.54076  0.71385  0.09445  1.0000
  H   H472      1.0  0.65988  0.62302  0.04377  1.0000
  H   H473      1.0  0.72409  0.91694  0.33354  1.0000
  C   C478      1.0  0.54120  0.64351  0.01561  1.0000
  C   C479      1.0  0.62059  0.75287  0.05147  1.0000
  H   H474      1.0  0.78571  0.51751  0.17434  1.0000
  C   C480      1.0  0.58336  0.97399  0.32276  1.0000
  H   H475      1.0  0.74929  0.62086  0.32315  1.0000
  C   C481      1.0  0.64115  0.69715  0.06822  1.0000
  S   S162      1.0  0.55004  0.66346  0.13113  1.0000
  C   C482      1.0  0.81471  0.74024  0.32793  1.0000
  C   C483      1.0  0.62392  0.69032  0.03840  1.0000
  C   C484      1.0  0.81973  0.72574  0.31117  1.0000
  H   H476      1.0  0.72183  0.66910  0.20516  1.0000
  H   H477      1.0  0.97075  0.69020  0.17589  1.0000
  H   H478      1.0  0.75383  0.98058  0.32758  1.0000
  H   H479      1.0  0.61393  0.78332  0.05060  1.0000
  H   H480      1.0  0.74296  0.69161  0.18637  1.0000
  C   C485      1.0  0.72679  0.97910  0.33433  1.0000
  H   H481      1.0  0.65077  0.68480  0.08060  1.0000
  C   C486      1.0  0.52811  0.70448  0.02908  1.0000
  C   C487      1.0  0.77150  0.68839  0.33451  1.0000
  C   C488      1.0  0.71002  0.94295  0.33772  1.0000
  H   H482      1.0  0.57359  0.82771  0.31426  1.0000
  C   C489      1.0  0.63322  0.73656  0.06724  1.0000
  S   S163      1.0  0.72694  0.80541  0.34170  1.0000
  H   H483      1.0  0.63649  0.75414  0.07875  1.0000
  H   H484      1.0  0.66419  0.94851  0.30158  1.0000
  N   N40       1.0  0.72964  0.72948  0.20721  1.0000
  C   C490      1.0  0.75103  0.75868  0.20022  1.0000
  C   C491      1.0  0.71455  0.73234  0.22366  1.0000
  C   C492      1.0  0.75909  0.79116  0.21006  1.0000
  C   C493      1.0  0.72146  0.76473  0.23374  1.0000
  C   C494      1.0  0.74431  0.79405  0.22697  1.0000
  C   C495      1.0  0.72132  0.69561  0.19680  1.0000
  H   H485      1.0  0.76243  0.75677  0.18704  1.0000
  H   H486      1.0  0.69781  0.70906  0.22924  1.0000
  H   H487      1.0  0.77687  0.81375  0.20460  1.0000
  H   H488      1.0  0.71005  0.76656  0.24692  1.0000
  H   H489      1.0  0.75070  0.81878  0.23488  1.0000
  H   H490      1.0  0.96604  0.60975  0.17584  1.0000
  C   C496      1.0  0.79081  0.72124  0.33977  1.0000
  C   C497      1.0  0.80016  0.69269  0.30638  1.0000
  H   H491      1.0  0.80325  0.68243  0.29311  1.0000
  H   H492      1.0  0.72490  0.65280  0.30792  1.0000
  H   H493      1.0  0.51555  0.55701  0.09271  1.0000
  C   C498      1.0  0.53488  0.66493  0.03080  1.0000
  H   H494      1.0  0.70469  0.00503  0.29887  1.0000
  C   C499      1.0  0.67525  0.94061  0.34661  1.0000
  N   N41       1.0  0.64599  0.00619  0.30593  1.0000
  H   H495      1.0  0.55889  0.76683  0.35873  1.0000
  H   H496      1.0  0.68336  0.59318  0.56121  1.0000
  S   S164      1.0  0.69303  0.74527  0.65187  1.0000
  C   C500      1.0  0.77995  0.60587  0.58417  1.0000
  S   S165      1.0  0.66077  0.54175  0.60049  1.0000
  H   H497      1.0  0.55365  0.59781  0.40538  1.0000
  H   H498      1.0  0.77352  0.68935  0.58799  1.0000
  C   C501      1.0  0.71070  0.59687  0.56752  1.0000
  S   S166      1.0  0.75205  0.58359  0.62486  1.0000
  H   H499      1.0  0.80678  0.60864  0.59100  1.0000
  H   H500      1.0  0.54044  0.87131  0.35208  1.0000
  H   H501      1.0  0.69518  0.64987  0.57973  1.0000
  H   H502      1.0  0.73421  0.54451  0.55730  1.0000
  S   S167      1.0  0.63895  0.56392  0.40482  1.0000
  H   H503      1.0  0.54879  0.78684  0.66949  1.0000
  S   S168      1.0  0.72015  0.71316  0.37253  1.0000
  N   N42       1.0  0.75185  0.63279  0.58621  1.0000
  C   C502      1.0  0.54621  0.53057  0.58582  1.0000
  S   S169      1.0  0.64020  0.78645  0.35380  1.0000
  C   C503      1.0  0.54549  0.51378  0.40445  1.0000
  C   C504      1.0  0.66296  0.60424  0.39548  1.0000
  C   C505      1.0  0.64284  0.62904  0.38400  1.0000
  C   C506      1.0  0.66009  0.66210  0.37667  1.0000
  C   C507      1.0  0.69762  0.67105  0.38093  1.0000
  C   C508      1.0  0.71784  0.64616  0.39233  1.0000
  C   C509      1.0  0.70071  0.61282  0.39951  1.0000
  H   H504      1.0  0.61367  0.62268  0.38077  1.0000
  H   H505      1.0  0.60763  0.91270  0.66415  1.0000
  H   H506      1.0  0.74684  0.65285  0.39576  1.0000
  H   H507      1.0  0.71649  0.59416  0.40837  1.0000
  H   H508      1.0  0.77808  0.66026  0.60777  1.0000
  H   H509      1.0  0.73287  0.67963  0.60187  1.0000
  H   H510      1.0  0.50733  0.51480  0.63449  1.0000
  H   H511      1.0  0.71112  0.93012  0.67111  1.0000
  C   C510      1.0  0.71754  0.62867  0.57804  1.0000
  C   C511      1.0  0.77407  0.57376  0.57376  1.0000
  Fe  Fe84      1.0  0.69474  0.75328  0.35163  1.0000
  H   H512      1.0  0.79612  0.55205  0.57249  1.0000
  S   S170      1.0  0.65163  0.89617  0.35043  1.0000
  C   C512      1.0  0.70712  0.69770  0.64665  1.0000
  C   C513      1.0  0.68436  0.67596  0.63542  1.0000
  C   C514      1.0  0.69652  0.63957  0.62967  1.0000
  C   C515      1.0  0.73227  0.62520  0.63458  1.0000
  C   C516      1.0  0.75485  0.64678  0.64590  1.0000
  C   C517      1.0  0.74211  0.68252  0.65215  1.0000
  H   H513      1.0  0.65734  0.68755  0.63104  1.0000
  H   H514      1.0  0.67896  0.62345  0.62086  1.0000
  H   H515      1.0  0.78266  0.63611  0.64967  1.0000
  C   C518      1.0  0.75946  0.66728  0.59637  1.0000
  H   H516      1.0  0.64418  0.68091  0.36792  1.0000
  C   C519      1.0  0.73926  0.56941  0.56533  1.0000
  C   C520      1.0  0.52950  0.77629  0.35948  1.0000
  C   C521      1.0  0.65755  0.97479  0.35201  1.0000
  C   C522      1.0  0.53951  0.57922  0.41538  1.0000
  H   H517      1.0  0.55833  0.55039  0.59507  1.0000
  C   C523      1.0  0.70078  0.99149  0.67206  1.0000
  C   C524      1.0  0.70829  0.95480  0.67945  1.0000
  C   C525      1.0  0.55098  0.84303  0.35705  1.0000
  H   H518      1.0  0.76010  0.69907  0.66063  1.0000
  N   N43       1.0  0.52321  0.54551  0.40701  1.0000
  Fe  Fe85      1.0  0.71639  0.53488  0.61436  1.0000
  H   H519      1.0  0.56129  0.57042  0.42524  1.0000
  C   C526      1.0  0.51342  0.52656  0.45296  1.0000
  N   N44       1.0  0.52046  0.81455  0.35826  1.0000
  H   H520      1.0  0.51736  0.59586  0.42244  1.0000
  C   C527      1.0  0.67393  0.01092  0.34832  1.0000
  H   H521      1.0  0.53890  0.89560  0.66580  1.0000
  H   H522      1.0  0.63075  0.97336  0.35895  1.0000
  H   H523      1.0  0.57334  0.83363  0.34775  1.0000
  C   C528      1.0  0.59503  0.90358  0.67651  1.0000
  H   H524      1.0  0.57474  0.51338  0.40885  1.0000
  H   H525      1.0  0.56433  0.84681  0.37008  1.0000
  H   H526      1.0  0.69770  0.99476  0.65801  1.0000
  H   H527      1.0  0.52108  0.55247  0.45972  1.0000
  C   C529      1.0  0.55656  0.89420  0.67745  1.0000
  H   H528      1.0  0.78485  0.99205  0.67474  1.0000
  C   C530      1.0  0.50716  0.53062  0.58264  1.0000
  H   H529      1.0  0.78643  0.73245  0.35281  1.0000
  H   H530      1.0  0.50835  0.71834  0.36170  1.0000
  Fe  Fe86      1.0  0.70591  0.77123  0.67838  1.0000
  C   C531      1.0  0.76537  0.56793  0.86233  1.0000
  N   N45       1.0  0.71326  0.69459  0.75599  1.0000
  S   S171      1.0  0.59922  0.66280  0.94334  1.0000
  C   C532      1.0  0.68622  0.72155  0.75169  1.0000
  Fe  Fe87      1.0  0.58152  0.67882  0.91576  1.0000
  S   S172      1.0  0.61713  0.70022  0.89268  1.0000
  C   C533      1.0  0.62598  0.88467  0.72277  1.0000
  S   S173      1.0  0.52801  0.71009  0.92423  1.0000
  Fe  Fe88      1.0  0.84844  0.70462  0.82418  1.0000
  S   S174      1.0  0.86619  0.71524  0.85201  1.0000
  S   S175      1.0  0.82873  0.75499  0.80739  1.0000
  Fe  Fe89      1.0  0.86037  0.61913  0.82796  1.0000
  S   S176      1.0  0.87903  0.62318  0.85589  1.0000
  S   S177      1.0  0.85314  0.56392  0.81330  1.0000
  Fe  Fe90      1.0  0.82977  0.66421  0.85879  1.0000
  S   S178      1.0  0.79232  0.65535  0.88291  1.0000
  Fe  Fe91      1.0  0.91395  0.67337  0.84653  1.0000
  S   S179      1.0  0.97333  0.68218  0.85795  1.0000
  S   S180      1.0  0.80884  0.65663  0.83138  1.0000
  S   S181      1.0  0.89855  0.66667  0.81818  1.0000
  Fe  Fe92      1.0  0.66222  0.78355  0.71212  1.0000
  C   C534      1.0  0.69611  0.75278  0.77926  1.0000
  Fe  Fe93      1.0  0.74662  0.76393  0.71331  1.0000
  H   H531      1.0  0.59300  0.53365  0.90763  1.0000
  S   S182      1.0  0.78910  0.72603  0.72777  1.0000
  Fe  Fe94      1.0  0.72000  0.84369  0.70032  1.0000
  H   H532      1.0  0.70349  0.63890  0.74609  1.0000
  S   S183      1.0  0.71162  0.81005  0.72550  1.0000
  S   S184      1.0  0.69601  0.73398  0.70211  1.0000
  C   C535      1.0  0.92282  0.76600  0.79384  1.0000
  H   H533      1.0  0.77437  0.57712  0.88990  1.0000
  H   H534      1.0  0.71540  0.98010  0.72208  1.0000
  H   H535      1.0  0.60202  0.77359  0.68974  1.0000
  C   C536      1.0  0.72235  0.66389  0.74373  1.0000
  C   C537      1.0  0.98283  0.76284  0.81025  1.0000
  H   H536      1.0  0.69015  0.77600  0.78817  1.0000
  H   H537      1.0  0.85995  0.54889  0.85063  1.0000
  C   C538      1.0  0.81912  0.74714  0.78511  1.0000
  C   C539      1.0  0.82931  0.71266  0.77720  1.0000
  C   C540      1.0  0.82093  0.70705  0.75943  1.0000
  C   C541      1.0  0.80153  0.73545  0.74961  1.0000
  C   C542      1.0  0.79144  0.76996  0.75754  1.0000
  C   C543      1.0  0.80060  0.77593  0.77520  1.0000
  H   H538      1.0  0.84369  0.69032  0.78473  1.0000
  H   H539      1.0  0.82897  0.68035  0.75333  1.0000
  H   H540      1.0  0.77683  0.79214  0.75005  1.0000
  H   H541      1.0  0.79282  0.80275  0.78125  1.0000
  H   H542      1.0  0.65644  0.77284  0.75950  1.0000
  H   H543      1.0  0.75216  0.67380  0.77542  1.0000
  S   S185      1.0  0.57918  0.55067  0.94840  1.0000
  H   H544      1.0  0.55201  0.86904  0.72049  1.0000
  H   H545      1.0  0.92977  0.78089  0.85360  1.0000
  Fe  Fe95      1.0  0.56425  0.61013  0.93909  1.0000
  C   C544      1.0  0.74334  0.66732  0.88501  1.0000
  C   C545      1.0  0.72354  0.68787  0.87197  1.0000
  C   C546      1.0  0.68489  0.69757  0.87446  1.0000
  C   C547      1.0  0.66553  0.68650  0.88987  1.0000
  C   C548      1.0  0.68517  0.66525  0.90273  1.0000
  C   C549      1.0  0.72386  0.65589  0.90032  1.0000
  H   H546      1.0  0.73819  0.69701  0.86016  1.0000
  H   H547      1.0  0.67002  0.71412  0.86447  1.0000
  H   H548      1.0  0.67075  0.65668  0.91468  1.0000
  H   H549      1.0  0.73892  0.64016  0.91052  1.0000
  C   C550      1.0  0.56844  0.78107  0.71304  1.0000
  H   H550      1.0  0.72658  0.56687  0.82862  1.0000
  C   C551      1.0  0.67742  0.75117  0.76318  1.0000
  H   H551      1.0  0.62550  0.91223  0.72985  1.0000
  H   H552      1.0  0.89473  0.77954  0.82554  1.0000
  N   N46       1.0  0.60207  0.88768  0.70710  1.0000
  H   H553      1.0  0.61622  0.86103  0.73165  1.0000
  H   H554      1.0  0.65591  0.87784  0.71926  1.0000
  C   C552      1.0  0.73082  0.69524  0.77196  1.0000
  Fe  Fe96      1.0  0.54337  0.68900  0.95161  1.0000
  C   C553      1.0  0.72276  0.72447  0.78377  1.0000
  S   S186      1.0  0.53370  0.72393  0.97623  1.0000
  H   H555      1.0  0.90931  0.73727  0.79317  1.0000
  H   H556      1.0  0.99741  0.67022  0.82157  1.0000
  C   C554      1.0  0.54382  0.78676  0.68349  1.0000
  C   C555      1.0  0.57415  0.77980  0.69496  1.0000
  C   C556      1.0  0.54129  0.66130  0.99891  1.0000
  H   H557      1.0  0.77699  0.57693  0.82834  1.0000
  H   H558      1.0  0.52714  0.78809  0.73367  1.0000
  H   H559      1.0  0.76992  0.59793  0.85888  1.0000
  C   C557      1.0  0.53174  0.78742  0.71966  1.0000
  H   H560      1.0  0.54648  0.64435  0.98739  1.0000
  H   H561      1.0  0.52184  0.71264  0.87221  1.0000
  C   C558      1.0  0.94502  0.77686  0.84139  1.0000
  H   H562      1.0  0.94115  0.77030  0.78212  1.0000
  H   H563      1.0  0.71916  0.67418  0.72993  1.0000
  S   S187      1.0  0.60755  0.77791  0.72726  1.0000
  N   N47       1.0  0.94433  0.76889  0.81019  1.0000
  S   S188      1.0  0.72920  0.90661  0.70732  1.0000
  C   C559      1.0  0.71415  0.95061  0.69750  1.0000
  C   C560      1.0  0.71088  0.98307  0.70810  1.0000
  C   C561      1.0  0.92536  0.77565  0.82550  1.0000
  C   C562      1.0  0.53485  0.70085  0.99716  1.0000
  S   S189      1.0  0.66800  0.81956  0.68770  1.0000
  C   C563      1.0  0.54087  0.88257  0.69344  1.0000
  C   C564      1.0  0.56421  0.87925  0.70822  1.0000
  H   H564      1.0  0.89987  0.78813  0.79318  1.0000
  C   C565      1.0  0.84660  0.52222  0.82625  1.0000
  H   H565      1.0  0.52271  0.75290  0.01109  1.0000
  N   N48       1.0  0.75786  0.54180  0.84964  1.0000
  C   C566      1.0  0.76784  0.55632  0.87992  1.0000
  S   S190      1.0  0.55089  0.62372  0.91104  1.0000
  H   H566      1.0  0.67150  0.72057  0.73923  1.0000
  C   C567      1.0  0.76226  0.51780  0.88450  1.0000
  H   H567      1.0  0.99964  0.77057  0.85386  1.0000
  H   H568      1.0  0.75259  0.65473  0.74502  1.0000
  C   C568      1.0  0.75524  0.55470  0.83130  1.0000
  H   H569      1.0  0.73796  0.72576  0.79613  1.0000
  S   S191      1.0  0.75927  0.79870  0.68883  1.0000
  C   C569      1.0  0.61737  0.90060  0.69162  1.0000
  C   C570      1.0  0.98430  0.77128  0.84153  1.0000
  C   C571      1.0  0.85100  0.52303  0.84442  1.0000
  H   H570      1.0  0.79880  0.99147  0.70531  1.0000
  C   C572      1.0  0.53972  0.52164  0.94455  1.0000
  H   H571      1.0  0.76112  0.53078  0.82220  1.0000
  H   H572      1.0  0.99781  0.75615  0.79825  1.0000
  C   C573      1.0  0.52804  0.72232  0.01231  1.0000
  H   H573      1.0  0.64729  0.90766  0.69079  1.0000
  C   C574      1.0  0.00344  0.76450  0.82587  1.0000
  H   H574      1.0  0.51672  0.66160  0.87312  1.0000
  H   H575      1.0  0.51098  0.87512  0.69426  1.0000
  C   C575      1.0  0.50746  0.79453  0.69003  1.0000
  S   S192      1.0  0.51006  0.63499  0.94914  1.0000
  C   C576      1.0  0.50977  0.53546  0.93413  1.0000
  H   H576      1.0  0.50964  0.56471  0.92930  1.0000
