data_image0
_chemical_formula_structural       C2HC4HFeC2SC2HCH3SHFeHCNSCSHCH2SHCFeH2CH3FeHC2HSCFeSCSH2C2SHFeH4SCH2FeH3C3NCHCHC5NH3CHFeCSHC2H2SHCH4C2HC2HCHC2SHSH3CHCHC2H4CSCSHCH2SHCHCH4Fe2CHCFeCHCFeSHSCHNCSC2S2CHFeC2SCSHSCSC2FeC2Fe2CHC2NC2HC3H2CFeSH2SCHFeC2SC5SHC2HCSHCHSC2H2CNCH3C3H3CHS3HFeH2C2FeCFeCHNHC2H3SHCHSH2C2H4NHC3HSH4SCHNHC2HCFeC2H2NSCSC2FeH6C3SC3SH2CFeCSFeH2CSHC3HSCS2CHCHCHCH2C2SCH2C2HC3HNH2C2H2CHC2SHC2HCFeS2HC2HSH3CFeHCHCNCH2FeSHC5SH3CSCH2NH3SCHNH2C3HSC2NCNHC2SNHNC4HCHC4SHCH2C3HC2FeCSHC3H4CH3S2HCH3CSHFe2H2SCH2CH2CHC2HSC2HFeC3FeCHC3SCSHCHC2HC2NH2C2H2SH2CFeC3SCNH3CH2CHSC2SH2CHCHSHCHSCHCHCFeHCFeCHCHSHSHSH2CFeH2FeC2HNHSHSCH2C2HCSHSC2HFeC2HC2H2NCHCH2CHS2H4C2FeHS2NFe3C4HSCHFeH2SCH2C4HCHSCFeS3H2CHNHCHSHCFeC3HS2CHFeCSH6C2HSHSH4C3HFeCFe2SHS2C4SC3H3CH2FeSC2HCH2FeHCNC2HC2H2CS2CSHCSH2CHCNSH2CH2C3SCNFeH2C2HC2HFeCH2CFeH5CHC2HCNCSHSCFeCH4CSFeSH3CHCHC3SHCHCFeSC6H2CH2NC2HCHCHSFeNC2H2C2H4CSHCFeCFeCSH3CHC2HSC4H2CHCHSHC2HCSH4CNCSH5CFeSH2CH2C2SH2CSCHNH2CSHFeHCFeCNCHC2H2C2HFeSH4SCHSCSC2H3CSH2C2SHCHCHSC2HC3H2CSCHCHCHC2Fe2H2CSCSHC2SH2NC2FeCHCHC2HCHCSHFeS2HC2H3C2HNHC2H2CSCFeC4HFeCNHCHCHCHSFeNC2SH2CH5SCFeHSCHCH2S3CHSC2HCSH3CHSCH3CH2C2SCH2C2H2CH2CH2FeHC4H2CH2NCHS2CHC5FeHC2NSHFeH2C6HSH2C2HFe2SCH2SC2H3CH2NSC3HCHCHFeH2SHCHC3FeH2SC
_chemical_formula_sum              "C480 H480 Fe80 S160 N40"
_cell_length_a       17.2456
_cell_length_b       49.4782
_cell_length_c       30.3002
_cell_angle_alpha    48.739
_cell_angle_beta     100.681
_cell_angle_gamma    93.4996

_space_group_name_H-M_alt    "P 1"
_space_group_IT_number       1

loop_
  _space_group_symop_operation_xyz
  'x, y, z'

loop_
  _atom_site_type_symbol
  _atom_site_label
  _atom_site_symmetry_multiplicity
  _atom_site_fract_x
  _atom_site_fract_y
  _atom_site_fract_z
  _atom_site_occupancy
  C   C1        1.0  0.87678  0.90020  0.98156  1.0000
  C   C2        1.0  0.12004  0.79052  0.01209  1.0000
  H   H1        1.0  0.92113  0.82848  0.90033  1.0000
  C   C3        1.0  0.64863  0.82559  0.88501  1.0000
  C   C4        1.0  0.80581  0.92199  0.94621  1.0000
  C   C5        1.0  0.03945  0.80554  0.92342  1.0000
  C   C6        1.0  0.02381  0.77818  0.79870  1.0000
  H   H2        1.0  0.54327  0.81006  0.79816  1.0000
  Fe  Fe1       1.0  0.39117  0.79826  0.84898  1.0000
  C   C7        1.0  0.80648  0.75801  0.84363  1.0000
  C   C8        1.0  0.30128  0.81802  0.97395  1.0000
  S   S1        1.0  0.94479  0.89501  0.95055  1.0000
  C   C9        1.0  0.71275  0.84093  0.85578  1.0000
  C   C10       1.0  0.58965  0.81914  0.81372  1.0000
  H   H3        1.0  0.43987  0.89889  0.96419  1.0000
  C   C11       1.0  0.58628  0.81536  0.86330  1.0000
  H   H4        1.0  0.26207  0.86121  0.96749  1.0000
  H   H5        1.0  0.28859  0.83395  0.92602  1.0000
  H   H6        1.0  0.31197  0.91128  0.97589  1.0000
  S   S2        1.0  0.34147  0.76285  0.98111  1.0000
  H   H7        1.0  0.72919  0.75597  0.94068  1.0000
  Fe  Fe2       1.0  0.90380  0.92323  0.85343  1.0000
  H   H8        1.0  0.92793  0.99987  0.97080  1.0000
  C   C12       1.0  0.71442  0.84618  0.80469  1.0000
  N   N1        1.0  0.05928  0.80282  0.01958  1.0000
  S   S3        1.0  0.33111  0.99479  0.93823  1.0000
  C   C13       1.0  0.98823  0.81597  0.98045  1.0000
  S   S4        1.0  0.27743  0.82800  0.82771  1.0000
  H   H9        1.0  0.79194  0.93544  0.89941  1.0000
  C   C14       1.0  0.75277  0.92634  0.97157  1.0000
  H   H10       1.0  0.16073  0.78271  0.95761  1.0000
  H   H11       1.0  0.49783  0.79537  0.99755  1.0000
  S   S5        1.0  0.77903  0.92118  0.81906  1.0000
  H   H12       1.0  0.85240  0.77009  0.81715  1.0000
  C   C15       1.0  0.36585  0.90655  0.00584  1.0000
  Fe  Fe3       1.0  0.46126  0.00074  0.94734  1.0000
  H   H13       1.0  0.94044  0.82620  0.98595  1.0000
  H   H14       1.0  0.69807  0.94321  0.94410  1.0000
  C   C16       1.0  0.11137  0.79182  0.96391  1.0000
  H   H15       1.0  0.03265  0.80739  0.88511  1.0000
  H   H16       1.0  0.83601  0.78255  0.88176  1.0000
  H   H17       1.0  0.76601  0.99615  0.81377  1.0000
  Fe  Fe4       1.0  0.62819  0.96538  0.00294  1.0000
  H   H18       1.0  0.80026  0.99389  0.92652  1.0000
  C   C17       1.0  0.77041  0.90851  0.03256  1.0000
  C   C18       1.0  0.97698  0.81729  0.93206  1.0000
  H   H19       1.0  0.76099  0.84851  0.87306  1.0000
  S   S6        1.0  0.95791  0.90760  0.81038  1.0000
  C   C19       1.0  0.79744  0.76492  0.88021  1.0000
  Fe  Fe5       1.0  0.21825  0.77922  0.85146  1.0000
  S   S7        1.0  0.54578  0.98422  0.91933  1.0000
  C   C20       1.0  0.28651  0.83347  0.99737  1.0000
  S   S8        1.0  0.50580  0.79771  0.89956  1.0000
  H   H20       1.0  0.24110  0.92753  0.01570  1.0000
  H   H21       1.0  0.64675  0.82218  0.92394  1.0000
  C   C21       1.0  0.43805  0.89939  0.99920  1.0000
  C   C22       1.0  0.32977  0.78175  0.01227  1.0000
  S   S9        1.0  0.54106  0.97890  0.03387  1.0000
  H   H22       1.0  0.56422  0.88805  0.03283  1.0000
  Fe  Fe6       1.0  0.31713  0.77137  0.78621  1.0000
  H   H23       1.0  0.57913  0.91259  0.78668  1.0000
  H   H24       1.0  0.79248  0.78498  0.23346  1.0000
  H   H25       1.0  0.68169  0.83014  0.19417  1.0000
  H   H26       1.0  0.10401  0.85973  0.22431  1.0000
  S   S10       1.0  0.47897  0.80010  0.19465  1.0000
  C   C23       1.0  0.53098  0.77708  0.08635  1.0000
  H   H27       1.0  0.42846  0.90154  0.12301  1.0000
  H   H28       1.0  0.37552  0.86984  0.27042  1.0000
  Fe  Fe7       1.0  0.47412  0.81559  0.24867  1.0000
  H   H29       1.0  0.00857  0.94845  0.28082  1.0000
  H   H30       1.0  0.48798  0.79575  0.07810  1.0000
  H   H31       1.0  0.17611  0.78010  0.04298  1.0000
  C   C24       1.0  0.50384  0.89384  0.08260  1.0000
  C   C25       1.0  0.28671  0.91412  0.05719  1.0000
  C   C26       1.0  0.84405  0.89203  0.23421  1.0000
  N   N2        1.0  0.36292  0.90741  0.04973  1.0000
  C   C27       1.0  0.84061  0.88616  0.06809  1.0000
  H   H32       1.0  0.85452  0.87234  0.11522  1.0000
  C   C28       1.0  0.74063  0.83195  0.21172  1.0000
  H   H33       1.0  0.94871  0.86532  0.07013  1.0000
  C   C29       1.0  0.80971  0.99171  0.23367  1.0000
  C   C30       1.0  0.43062  0.90092  0.08813  1.0000
  C   C31       1.0  0.66645  0.96157  0.26912  1.0000
  C   C32       1.0  0.34602  0.76124  0.07420  1.0000
  C   C33       1.0  0.75512  0.85997  0.21197  1.0000
  N   N3        1.0  0.82912  0.86264  0.23396  1.0000
  H   H34       1.0  0.13109  0.94429  0.25302  1.0000
  H   H35       1.0  0.89382  0.90689  0.21107  1.0000
  H   H36       1.0  0.34338  0.76067  0.14569  1.0000
  C   C34       1.0  0.89396  0.88223  0.04257  1.0000
  H   H37       1.0  0.85977  0.88089  0.28100  1.0000
  Fe  Fe8       1.0  0.34684  0.80354  0.17950  1.0000
  C   C35       1.0  0.33228  0.77684  0.09776  1.0000
  S   S11       1.0  0.34184  0.82444  0.22588  1.0000
  H   H38       1.0  0.70681  0.87987  0.19350  1.0000
  C   C36       1.0  0.07145  0.80394  0.06752  1.0000
  C   C37       1.0  0.30141  0.81284  0.05926  1.0000
  H   H39       1.0  0.18614  0.80660  0.26076  1.0000
  H   H40       1.0  0.66358  0.89474  0.25840  1.0000
  S   S12       1.0  0.55194  0.85809  0.23407  1.0000
  H   H41       1.0  0.77549  0.98891  0.16475  1.0000
  C   C38       1.0  0.88986  0.83762  0.25664  1.0000
  H   H42       1.0  0.79149  0.91178  0.21106  1.0000
  H   H43       1.0  0.29246  0.93255  0.06640  1.0000
  H   H44       1.0  0.92612  0.78970  0.27448  1.0000
  H   H45       1.0  0.64867  0.96282  0.19549  1.0000
  C   C39       1.0  0.87776  0.80950  0.25643  1.0000
  C   C40       1.0  0.80269  0.80685  0.23342  1.0000
  H   H46       1.0  0.55748  0.88929  0.11263  1.0000
  C   C41       1.0  0.53697  0.77711  0.04102  1.0000
  C   C42       1.0  0.50748  0.89311  0.03782  1.0000
  H   H47       1.0  0.25655  0.96296  0.27870  1.0000
  C   C43       1.0  0.13239  0.95409  0.27633  1.0000
  H   H48       1.0  0.94818  0.83935  0.27489  1.0000
  C   C44       1.0  0.68826  0.96824  0.22061  1.0000
  C   C45       1.0  0.13049  0.83949  0.27127  1.0000
  S   S13       1.0  0.70556  0.91345  0.06555  1.0000
  H   H49       1.0  0.07921  0.83210  0.04850  1.0000
  S   S14       1.0  0.27711  0.83197  0.08753  1.0000
  H   H50       1.0  0.49287  0.89860  0.27912  1.0000
  H   H51       1.0  0.12503  0.78663  0.10220  1.0000
  H   H52       1.0  0.26564  0.88823  0.09425  1.0000
  C   C46       1.0  0.76010  0.98296  0.20327  1.0000
  H   H53       1.0  0.02024  0.79400  0.09060  1.0000
  C   C47       1.0  0.78913  0.98392  0.28342  1.0000
  H   H54       1.0  0.47910  0.75595  0.51039  1.0000
  C   C48       1.0  0.71751  0.96890  0.30110  1.0000
  C   C49       1.0  0.41556  0.85572  0.31313  1.0000
  H   H55       1.0  0.14423  0.81957  0.40327  1.0000
  H   H56       1.0  0.22407  0.76670  0.43981  1.0000
  H   H57       1.0  0.58592  0.86545  0.37656  1.0000
  H   H58       1.0  0.35298  0.80810  0.35864  1.0000
  C   C50       1.0  0.40333  0.82076  0.36314  1.0000
  S   S15       1.0  0.98881  0.82082  0.52591  1.0000
  C   C51       1.0  0.72519  0.85367  0.34963  1.0000
  S   S16       1.0  0.05647  0.87916  0.28776  1.0000
  H   H59       1.0  0.01263  0.96922  0.33621  1.0000
  C   C52       1.0  0.28389  0.79562  0.51583  1.0000
  H   H60       1.0  0.87072  0.92301  0.41579  1.0000
  H   H61       1.0  0.60019  0.78683  0.34803  1.0000
  S   S17       1.0  0.63826  0.87993  0.46170  1.0000
  H   H62       1.0  0.48151  0.97560  0.45665  1.0000
  C   C53       1.0  0.44295  0.97518  0.48122  1.0000
  H   H63       1.0  0.25748  0.98500  0.33200  1.0000
  C   C54       1.0  0.46854  0.98736  0.51160  1.0000
  H   H64       1.0  0.23754  0.81295  0.47756  1.0000
  H   H65       1.0  0.70081  0.96382  0.33850  1.0000
  H   H66       1.0  0.37406  0.83051  0.47057  1.0000
  H   H67       1.0  0.07976  0.99520  0.37424  1.0000
  Fe  Fe9       1.0  0.90629  0.82685  0.45308  1.0000
  Fe  Fe10      1.0  0.01525  0.87744  0.45159  1.0000
  C   C55       1.0  0.31770  0.96284  0.51384  1.0000
  H   H68       1.0  0.75934  0.87248  0.35036  1.0000
  C   C56       1.0  0.53372  0.85319  0.37284  1.0000
  Fe  Fe11      1.0  0.52821  0.85509  0.49706  1.0000
  C   C57       1.0  0.48118  0.87197  0.31817  1.0000
  H   H69       1.0  0.25918  0.95348  0.51484  1.0000
  C   C58       1.0  0.80442  0.92404  0.46812  1.0000
  Fe  Fe12      1.0  0.02622  0.86215  0.37124  1.0000
  S   S18       1.0  0.99786  0.80488  0.43867  1.0000
  H   H70       1.0  0.37829  0.76466  0.47313  1.0000
  S   S19       1.0  0.55026  0.95789  0.40123  1.0000
  C   C59       1.0  0.19721  0.78651  0.39296  1.0000
  H   H71       1.0  0.68777  0.76544  0.44034  1.0000
  N   N4        1.0  0.45484  0.80256  0.41671  1.0000
  C   C60       1.0  0.20287  0.97679  0.32117  1.0000
  S   S20       1.0  0.44646  0.89693  0.41015  1.0000
  C   C61       1.0  0.73066  0.81721  0.40158  1.0000
  C   C62       1.0  0.80776  0.92261  0.51597  1.0000
  S   S21       1.0  0.11654  0.85991  0.43714  1.0000
  S   S22       1.0  0.47420  0.75866  0.33448  1.0000
  C   C63       1.0  0.95085  0.92104  0.52945  1.0000
  H   H72       1.0  0.74820  0.92665  0.44280  1.0000
  Fe  Fe13      1.0  0.62474  0.91180  0.48900  1.0000
  C   C64       1.0  0.13950  0.98816  0.37400  1.0000
  C   C65       1.0  0.15176  0.81658  0.37223  1.0000
  S   S23       1.0  0.33819  0.94542  0.44756  1.0000
  C   C66       1.0  0.44061  0.76570  0.46775  1.0000
  S   S24       1.0  0.92639  0.88470  0.37949  1.0000
  H   H73       1.0  0.69871  0.99842  0.41610  1.0000
  S   S25       1.0  0.79257  0.80075  0.46876  1.0000
  C   C67       1.0  0.21024  0.78297  0.35280  1.0000
  S   S26       1.0  0.03299  0.91685  0.46500  1.0000
  C   C68       1.0  0.67102  0.86627  0.29757  1.0000
  C   C69       1.0  0.36751  0.96295  0.48220  1.0000
  Fe  Fe14      1.0  0.55641  0.92435  0.37647  1.0000
  C   C70       1.0  0.52025  0.81808  0.42182  1.0000
  C   C71       1.0  0.87389  0.92253  0.45230  1.0000
  Fe  Fe15      1.0  0.08316  0.80345  0.50550  1.0000
  Fe  Fe16      1.0  0.44778  0.92644  0.44279  1.0000
  C   C72       1.0  0.63314  0.80573  0.34825  1.0000
  H   H74       1.0  0.56301  0.80326  0.46357  1.0000
  C   C73       1.0  0.36175  0.80540  0.51166  1.0000
  C   C74       1.0  0.06635  0.96810  0.32347  1.0000
  N   N5        1.0  0.13559  0.97804  0.33780  1.0000
  C   C75       1.0  0.11769  0.84298  0.31163  1.0000
  C   C76       1.0  0.17700  0.80947  0.29189  1.0000
  H   H75       1.0  0.16745  0.96512  0.42108  1.0000
  C   C77       1.0  0.94698  0.92093  0.48300  1.0000
  C   C78       1.0  0.68440  0.79344  0.40061  1.0000
  C   C79       1.0  0.62428  0.84222  0.29714  1.0000
  H   H76       1.0  0.76915  0.75447  0.35205  1.0000
  H   H77       1.0  0.82867  0.98903  0.30878  1.0000
  C   C80       1.0  0.20254  0.96457  0.29062  1.0000
  Fe  Fe17      1.0  0.34242  0.76607  0.30776  1.0000
  S   S27       1.0  0.57313  0.94632  0.28651  1.0000
  H   H78       1.0  0.52703  0.99659  0.51086  1.0000
  H   H79       1.0  0.78050  0.00176  0.38477  1.0000
  S   S28       1.0  0.52233  0.88276  0.53211  1.0000
  C   C81       1.0  0.06369  0.95613  0.29236  1.0000
  H   H80       1.0  0.99963  0.00338  0.49950  1.0000
  Fe  Fe18      1.0  0.78538  0.97935  0.73990  1.0000
  C   C82       1.0  0.97285  0.77503  0.76091  1.0000
  C   C83       1.0  0.14458  0.91308  0.70701  1.0000
  S   S29       1.0  0.16807  0.75396  0.57739  1.0000
  C   C84       1.0  0.11349  0.98727  0.61006  1.0000
  C   C85       1.0  0.73711  0.82783  0.67096  1.0000
  C   C86       1.0  0.34468  0.97380  0.54609  1.0000
  C   C87       1.0  0.17245  0.92890  0.65476  1.0000
  C   C88       1.0  0.60924  0.92538  0.70900  1.0000
  S   S30       1.0  0.38166  0.81974  0.75590  1.0000
  H   H81       1.0  0.04764  0.80374  0.78037  1.0000
  C   C89       1.0  0.65493  0.78943  0.66310  1.0000
  C   C90       1.0  0.64010  0.93796  0.62178  1.0000
  H   H82       1.0  0.66516  0.93537  0.71340  1.0000
  C   C91       1.0  0.15508  0.96589  0.60571  1.0000
  S   S31       1.0  0.23271  0.90335  0.65124  1.0000
  H   H83       1.0  0.08216  0.92207  0.75195  1.0000
  C   C92       1.0  0.36965  0.82603  0.60743  1.0000
  H   H84       1.0  0.30317  0.88753  0.56705  1.0000
  S   S32       1.0  0.03475  0.99845  0.66764  1.0000
  C   C93       1.0  0.88091  0.92141  0.54653  1.0000
  C   C94       1.0  0.08650  0.97145  0.66268  1.0000
  H   H85       1.0  0.37856  0.83935  0.56183  1.0000
  H   H86       1.0  0.25398  0.78131  0.63909  1.0000
  C   C95       1.0  0.32189  0.96735  0.69687  1.0000
  N   N6        1.0  0.76496  0.81405  0.61254  1.0000
  C   C96       1.0  0.81368  0.81750  0.57452  1.0000
  H   H87       1.0  0.41014  0.83636  0.62547  1.0000
  H   H88       1.0  0.00771  0.91997  0.55309  1.0000
  H   H89       1.0  0.16413  0.90107  0.56064  1.0000
  C   C97       1.0  0.10154  0.93433  0.71092  1.0000
  C   C98       1.0  0.23488  0.80750  0.62253  1.0000
  C   C99       1.0  0.46459  0.90127  0.69665  1.0000
  H   H90       1.0  0.46899  0.98738  0.69653  1.0000
  H   H91       1.0  0.65509  0.83869  0.74485  1.0000
  H   H92       1.0  0.68924  0.77889  0.61074  1.0000
  C   C100      1.0  0.48763  0.90060  0.74397  1.0000
  H   H93       1.0  0.30746  0.97282  0.57192  1.0000
  S   S33       1.0  0.19881  0.79961  0.75814  1.0000
  S   S34       1.0  0.90683  0.98244  0.77768  1.0000
  S   S35       1.0  0.52001  0.79537  0.55775  1.0000
  H   H94       1.0  0.83382  0.84691  0.62425  1.0000
  Fe  Fe19      1.0  0.94972  0.96698  0.73081  1.0000
  H   H95       1.0  0.64768  0.96693  0.59740  1.0000
  H   H96       1.0  0.36193  0.94545  0.73930  1.0000
  C   C101      1.0  0.56036  0.91288  0.75017  1.0000
  C   C102      1.0  0.18390  0.87445  0.57901  1.0000
  Fe  Fe20      1.0  0.26463  0.84618  0.73659  1.0000
  C   C103      1.0  0.51639  0.91243  0.65793  1.0000
  Fe  Fe21      1.0  0.83312  0.90922  0.77123  1.0000
  C   C104      1.0  0.42319  0.78254  0.56037  1.0000
  H   H97       1.0  0.60452  0.77327  0.67329  1.0000
  N   N7        1.0  0.58741  0.92463  0.66409  1.0000
  H   H98       1.0  0.95843  0.79806  0.71338  1.0000
  C   C105      1.0  0.70273  0.79293  0.62725  1.0000
  C   C106      1.0  0.41972  0.98622  0.54468  1.0000
  H   H99       1.0  0.88361  0.92059  0.58339  1.0000
  H   H100      1.0  0.61622  0.93537  0.58813  1.0000
  H   H101      1.0  0.40642  0.89383  0.68920  1.0000
  S   S36       1.0  0.45440  0.99856  0.58670  1.0000
  H   H102      1.0  0.15618  0.88449  0.74455  1.0000
  C   C107      1.0  0.13093  0.84783  0.59913  1.0000
  H   H103      1.0  0.38614  0.79660  0.63731  1.0000
  S   S37       1.0  0.82796  0.96744  0.68857  1.0000
  H   H104      1.0  0.69892  0.92238  0.64588  1.0000
  H   H105      1.0  0.11547  0.79346  0.63551  1.0000
  C   C108      1.0  0.67202  0.80719  0.68473  1.0000
  C   C109      1.0  0.15630  0.81417  0.62067  1.0000
  H   H106      1.0  0.63472  0.80495  0.71195  1.0000
  H   H107      1.0  0.49779  0.91271  0.62143  1.0000
  H   H108      1.0  0.75113  0.84209  0.68700  1.0000
  H   H109      1.0  0.07001  0.85370  0.59681  1.0000
  N   N8        1.0  0.28720  0.83335  0.60480  1.0000
  H   H110      1.0  0.84588  0.84232  0.55227  1.0000
  C   C110      1.0  0.78356  0.83074  0.63494  1.0000
  C   C111      1.0  0.26236  0.86670  0.58238  1.0000
  C   C112      1.0  0.26665  0.76372  0.56923  1.0000
  H   H111      1.0  0.32385  0.96498  0.66303  1.0000
  S   S38       1.0  0.72008  0.92107  0.53813  1.0000
  H   H112      1.0  0.26092  0.96315  0.70625  1.0000
  H   H113      1.0  0.17420  0.97816  0.56441  1.0000
  H   H114      1.0  0.85689  0.79351  0.60188  1.0000
  H   H115      1.0  0.44923  0.89046  0.77579  1.0000
  S   S39       1.0  0.79189  0.86728  0.76596  1.0000
  C   C113      1.0  0.65365  0.83470  0.78425  1.0000
  H   H116      1.0  0.77612  0.81935  0.53845  1.0000
  N   N9        1.0  0.34549  0.00281  0.67445  1.0000
  H   H117      1.0  0.82748  0.15097  0.00971  1.0000
  C   C114      1.0  0.72532  0.24489  0.83455  1.0000
  C   C115      1.0  0.88938  0.03855  0.80826  1.0000
  H   H118      1.0  0.04720  0.14332  0.94505  1.0000
  C   C116      1.0  0.51826  0.16206  0.02942  1.0000
  Fe  Fe22      1.0  0.02461  0.23649  0.89004  1.0000
  C   C117      1.0  0.28996  0.02135  0.86207  1.0000
  C   C118      1.0  0.33439  0.02697  0.82276  1.0000
  H   H119      1.0  0.49249  0.18936  0.00313  1.0000
  H   H120      1.0  0.75089  0.10841  0.00095  1.0000
  N   N10       1.0  0.83198  0.02154  0.84191  1.0000
  S   S40       1.0  0.13939  0.22639  0.94946  1.0000
  C   C119      1.0  0.95390  0.11024  0.95357  1.0000
  S   S41       1.0  0.50031  0.05640  0.89649  1.0000
  C   C120      1.0  0.73335  0.22046  0.98260  1.0000
  C   C121      1.0  0.49460  0.14256  0.01160  1.0000
  Fe  Fe23      1.0  0.58772  0.03363  0.98017  1.0000
  H   H121      1.0  0.65312  0.20296  0.89295  1.0000
  H   H122      1.0  0.85113  0.10125  0.87100  1.0000
  H   H123      1.0  0.44937  0.15440  0.97184  1.0000
  H   H124      1.0  0.05683  0.15106  0.03087  1.0000
  H   H125      1.0  0.44373  0.20033  0.86032  1.0000
  H   H126      1.0  0.71052  0.00934  0.84275  1.0000
  C   C122      1.0  0.75208  0.18527  0.00737  1.0000
  C   C123      1.0  0.84549  0.00756  0.89972  1.0000
  C   C124      1.0  0.21365  0.03835  0.83998  1.0000
  S   S42       1.0  0.08258  0.24212  0.82425  1.0000
  C   C125      1.0  0.97661  0.02825  0.89101  1.0000
  C   C126      1.0  0.81462  0.17800  0.99189  1.0000
  C   C127      1.0  0.90480  0.08445  0.99107  1.0000
  S   S43       1.0  0.76830  0.20179  0.78963  1.0000
  H   H127      1.0  0.07164  0.17325  0.80356  1.0000
  H   H128      1.0  0.63186  0.16476  0.79239  1.0000
  C   C128      1.0  0.96262  0.04199  0.83241  1.0000
  Fe  Fe24      1.0  0.19663  0.23678  0.87931  1.0000
  C   C129      1.0  0.01125  0.12226  0.97506  1.0000
  S   S44       1.0  0.62321  0.06723  0.00476  1.0000
  Fe  Fe25      1.0  0.59242  0.03835  0.87621  1.0000
  H   H129      1.0  0.17943  0.03424  0.87024  1.0000
  H   H130      1.0  0.57292  0.11298  0.87647  1.0000
  C   C130      1.0  0.77735  0.24815  0.94207  1.0000
  S   S45       1.0  0.68219  0.01782  0.95775  1.0000
  H   H131      1.0  0.85855  0.07554  0.97461  1.0000
  C   C131      1.0  0.82266  0.10438  0.83294  1.0000
  C   C132      1.0  0.72453  0.12075  0.95549  1.0000
  C   C133      1.0  0.91779  0.01082  0.92508  1.0000
  H   H132      1.0  0.00781  0.05576  0.80561  1.0000
  S   S46       1.0  0.96288  0.12650  0.79321  1.0000
  C   C134      1.0  0.65872  0.10669  0.94452  1.0000
  S   S47       1.0  0.93343  0.19662  0.93041  1.0000
  S   S48       1.0  0.29947  0.20515  0.89163  1.0000
  C   C135      1.0  0.75712  0.01702  0.81630  1.0000
  H   H133      1.0  0.03275  0.03144  0.90960  1.0000
  C   C136      1.0  0.86086  0.20550  0.95377  1.0000
  H   H134      1.0  0.94606  0.12177  0.90755  1.0000
  C   C137      1.0  0.41101  0.22596  0.82266  1.0000
  H   H135      1.0  0.81160  0.15948  0.91655  1.0000
  C   C138      1.0  0.75878  0.14964  0.90780  1.0000
  H   H136      1.0  0.54546  0.24644  0.86330  1.0000
  H   H137      1.0  0.71431  0.08455  0.86531  1.0000
  C   C139      1.0  0.62444  0.12312  0.88549  1.0000
  C   C140      1.0  0.72507  0.16569  0.84889  1.0000
  S   S49       1.0  0.65665  0.22973  0.00315  1.0000
  C   C141      1.0  0.65707  0.15280  0.83772  1.0000
  H   H138      1.0  0.77308  0.22581  0.84942  1.0000
  H   H139      1.0  0.51205  0.09291  0.03067  1.0000
  C   C142      1.0  0.65759  0.23180  0.85965  1.0000
  C   C143      1.0  0.74556  0.09411  0.83038  1.0000
  H   H140      1.0  0.39330  0.01390  0.83957  1.0000
  C   C144      1.0  0.33674  0.23419  0.82526  1.0000
  C   C145      1.0  0.84306  0.24050  0.92978  1.0000
  C   C146      1.0  0.86271  0.11821  0.78661  1.0000
  H   H141      1.0  0.20901  0.18978  0.78887  1.0000
  N   N11       1.0  0.01930  0.10909  0.03215  1.0000
  H   H142      1.0  0.94090  0.21854  0.03476  1.0000
  H   H143      1.0  0.35184  0.14318  0.78669  1.0000
  C   C147      1.0  0.97054  0.08425  0.06887  1.0000
  C   C148      1.0  0.38405  0.21512  0.17169  1.0000
  H   H144      1.0  0.75541  0.24390  0.13354  1.0000
  H   H145      1.0  0.59624  0.16155  0.09453  1.0000
  C   C149      1.0  0.62502  0.05663  0.12955  1.0000
  H   H146      1.0  0.00982  0.16124  0.28267  1.0000
  C   C150      1.0  0.66246  0.13513  0.27799  1.0000
  C   C151      1.0  0.07792  0.12330  0.05245  1.0000
  S   S50       1.0  0.89483  0.01407  0.20695  1.0000
  H   H147      1.0  0.10466  0.10987  0.26907  1.0000
  C   C152      1.0  0.19563  0.24481  0.09020  1.0000
  C   C153      1.0  0.11273  0.22262  0.16233  1.0000
  H   H148      1.0  0.35579  0.16708  0.18617  1.0000
  C   C154      1.0  0.52990  0.10771  0.04529  1.0000
  Fe  Fe26      1.0  0.83424  0.11038  0.20925  1.0000
  S   S51       1.0  0.71973  0.13348  0.20122  1.0000
  S   S52       1.0  0.94680  0.12850  0.22786  1.0000
  H   H149      1.0  0.13568  0.12444  0.04031  1.0000
  C   C155      1.0  0.39699  0.18785  0.17088  1.0000
  C   C156      1.0  0.86558  0.21910  0.08376  1.0000
  H   H150      1.0  0.57912  0.23467  0.24424  1.0000
  S   S53       1.0  0.87410  0.11315  0.14018  1.0000
  H   H151      1.0  0.08791  0.10672  0.10166  1.0000
  H   H152      1.0  0.65642  0.10001  0.15245  1.0000
  H   H153      1.0  0.47524  0.16577  0.15191  1.0000
  C   C157      1.0  0.70149  0.23645  0.23704  1.0000
  Fe  Fe27      1.0  0.99183  0.12636  0.16582  1.0000
  H   H154      1.0  0.21880  0.14636  0.24132  1.0000
  C   C158      1.0  0.51702  0.21365  0.13376  1.0000
  H   H155      1.0  0.97533  0.07448  0.11358  1.0000
  C   C159      1.0  0.46396  0.18713  0.15184  1.0000
  N   N12       1.0  0.84629  0.23527  0.10383  1.0000
  C   C160      1.0  0.61018  0.11160  0.11334  1.0000
  H   H156      1.0  0.73408  0.21363  0.12020  1.0000
  H   H157      1.0  0.04478  0.17933  0.18342  1.0000
  Fe  Fe28      1.0  0.91739  0.05505  0.21709  1.0000
  S   S54       1.0  0.85821  0.23657  0.23381  1.0000
  H   H158      1.0  0.08932  0.22407  0.19128  1.0000
  C   C161      1.0  0.16665  0.24671  0.12835  1.0000
  C   C162      1.0  0.08716  0.19698  0.15786  1.0000
  C   C163      1.0  0.63084  0.24979  0.23555  1.0000
  C   C164      1.0  0.16963  0.21914  0.08560  1.0000
  C   C165      1.0  0.78205  0.22233  0.13745  1.0000
  S   S55       1.0  0.07604  0.16588  0.10789  1.0000
  H   H159      1.0  0.80520  0.19908  0.18551  1.0000
  H   H160      1.0  0.60786  0.14745  0.24537  1.0000
  H   H161      1.0  0.58675  0.04016  0.12301  1.0000
  C   C166      1.0  0.72686  0.12568  0.26733  1.0000
  S   S56       1.0  0.03832  0.06831  0.23633  1.0000
  C   C167      1.0  0.11437  0.19536  0.11890  1.0000
  H   H162      1.0  0.63845  0.04150  0.17836  1.0000
  H   H163      1.0  0.33247  0.21512  0.18756  1.0000
  N   N13       1.0  0.58641  0.09259  0.09575  1.0000
  H   H164      1.0  0.68101  0.05905  0.11440  1.0000
  H   H165      1.0  0.83374  0.19681  0.09273  1.0000
  H   H166      1.0  0.70396  0.21115  0.24669  1.0000
  S   S57       1.0  0.07907  0.23619  0.26726  1.0000
  C   C168      1.0  0.57610  0.14644  0.08079  1.0000
  H   H167      1.0  0.19132  0.21826  0.05531  1.0000
  N   N14       1.0  0.43620  0.24100  0.15393  1.0000
  H   H168      1.0  0.56965  0.21310  0.11934  1.0000
  H   H169      1.0  0.87367  0.05202  0.07810  1.0000
  C   C169      1.0  0.50223  0.24054  0.13525  1.0000
  C   C170      1.0  0.92555  0.23146  0.05050  1.0000
  C   C171      1.0  0.91293  0.07140  0.04906  1.0000
  H   H170      1.0  0.71831  0.16365  0.03816  1.0000
  S   S58       1.0  0.87214  0.05176  0.28500  1.0000
  C   C172      1.0  0.93595  0.00675  0.49415  1.0000
  C   C173      1.0  0.60539  0.22735  0.43291  1.0000
  N   N15       1.0  0.57336  0.23512  0.46185  1.0000
  C   C174      1.0  0.48435  0.25163  0.35930  1.0000
  N   N16       1.0  0.83572  0.17942  0.41641  1.0000
  H   H171      1.0  0.14471  0.16390  0.30785  1.0000
  C   C175      1.0  0.06422  0.11445  0.43104  1.0000
  C   C176      1.0  0.34227  0.17653  0.51653  1.0000
  S   S59       1.0  0.52889  0.07345  0.43782  1.0000
  N   N17       1.0  0.06941  0.13510  0.37227  1.0000
  H   H172      1.0  0.12541  0.09148  0.51959  1.0000
  N   N18       1.0  0.80437  0.01190  0.44437  1.0000
  C   C177      1.0  0.75097  0.01385  0.39848  1.0000
  C   C178      1.0  0.21897  0.12295  0.28774  1.0000
  C   C179      1.0  0.88476  0.00853  0.45051  1.0000
  C   C180      1.0  0.28471  0.08266  0.39148  1.0000
  H   H173      1.0  0.72743  0.21290  0.36735  1.0000
  C   C181      1.0  0.77308  0.01494  0.47938  1.0000
  H   H174      1.0  0.70951  0.01897  0.47305  1.0000
  C   C182      1.0  0.26785  0.19562  0.48801  1.0000
  C   C183      1.0  0.20057  0.12252  0.45424  1.0000
  C   C184      1.0  0.38802  0.17436  0.48545  1.0000
  C   C185      1.0  0.80318  0.10252  0.36349  1.0000
  S   S60       1.0  0.48448  0.15392  0.52018  1.0000
  H   H175      1.0  0.25174  0.11804  0.48587  1.0000
  C   C186      1.0  0.35720  0.18941  0.42658  1.0000
  H   H176      1.0  0.71819  0.16713  0.43264  1.0000
  H   H177      1.0  0.26121  0.15342  0.37964  1.0000
  C   C187      1.0  0.86964  0.14708  0.46994  1.0000
  C   C188      1.0  0.28307  0.20937  0.39732  1.0000
  C   C189      1.0  0.99839  0.17033  0.45714  1.0000
  H   H178      1.0  0.21832  0.03917  0.45424  1.0000
  C   C190      1.0  0.28366  0.11382  0.33170  1.0000
  C   C191      1.0  0.99914  0.14237  0.32926  1.0000
  Fe  Fe29      1.0  0.49537  0.05330  0.52226  1.0000
  C   C192      1.0  0.12965  0.10788  0.47297  1.0000
  S   S61       1.0  0.40867  0.10021  0.47672  1.0000
  H   H179      1.0  0.33645  0.07388  0.42534  1.0000
  C   C193      1.0  0.15172  0.07291  0.36390  1.0000
  C   C194      1.0  0.20581  0.14271  0.39454  1.0000
  C   C195      1.0  0.96344  0.20266  0.40167  1.0000
  H   H180      1.0  0.17496  0.01171  0.35700  1.0000
  H   H181      1.0  0.68332  0.22089  0.52193  1.0000
  H   H182      1.0  0.85528  0.23215  0.33875  1.0000
  H   H183      1.0  0.06164  0.16743  0.47347  1.0000
  C   C196      1.0  0.13947  0.14855  0.35400  1.0000
  H   H184      1.0  0.91005  0.00646  0.42252  1.0000
  H   H185      1.0  0.73036  0.04240  0.35854  1.0000
  H   H186      1.0  0.58665  0.22994  0.35749  1.0000
  S   S62       1.0  0.74446  0.09940  0.44364  1.0000
  S   S63       1.0  0.15063  0.24005  0.39254  1.0000
  H   H187      1.0  0.98211  0.11673  0.34048  1.0000
  C   C197      1.0  0.49723  0.25008  0.44146  1.0000
  H   H188      1.0  0.97743  0.11686  0.53499  1.0000
  H   H189      1.0  0.00917  0.10297  0.44565  1.0000
  H   H190      1.0  0.83315  0.12518  0.49687  1.0000
  C   C198      1.0  0.66801  0.12766  0.33192  1.0000
  S   S64       1.0  0.06542  0.05000  0.38364  1.0000
  H   H191      1.0  0.94886  0.15494  0.33020  1.0000
  Fe  Fe30      1.0  0.50989  0.12618  0.48876  1.0000
  Fe  Fe31      1.0  0.62072  0.10154  0.45358  1.0000
  H   H192      1.0  0.61757  0.13442  0.34041  1.0000
  H   H193      1.0  0.84585  0.10053  0.30400  1.0000
  S   S65       1.0  0.35896  0.14332  0.31160  1.0000
  C   C199      1.0  0.95133  0.14214  0.49150  1.0000
  H   H194      1.0  0.85722  0.08939  0.39684  1.0000
  H   H195      1.0  0.26063  0.22252  0.35094  1.0000
  C   C200      1.0  0.23942  0.21299  0.42799  1.0000
  H   H196      1.0  0.66477  0.21438  0.45017  1.0000
  H   H197      1.0  0.99908  0.22464  0.37436  1.0000
  C   C201      1.0  0.88173  0.20679  0.38182  1.0000
  H   H198      1.0  0.73661  0.17710  0.36656  1.0000
  C   C202      1.0  0.79690  0.10919  0.31039  1.0000
  C   C203      1.0  0.61912  0.22630  0.51633  1.0000
  H   H199      1.0  0.23294  0.19751  0.51223  1.0000
  S   S66       1.0  0.54286  0.15262  0.40082  1.0000
  C   C204      1.0  0.73839  0.11124  0.37465  1.0000
  C   C205      1.0  0.21808  0.06263  0.40780  1.0000
  H   H200      1.0  0.39204  0.18716  0.40273  1.0000
  Fe  Fe32      1.0  0.44822  0.12203  0.39324  1.0000
  C   C206      1.0  0.75010  0.18443  0.39465  1.0000
  C   C207      1.0  0.15365  0.10233  0.30373  1.0000
  C   C208      1.0  0.56152  0.23575  0.38093  1.0000
  Fe  Fe33      1.0  0.98907  0.07012  0.29769  1.0000
  C   C209      1.0  0.82254  0.01354  0.52313  1.0000
  H   H201      1.0  0.61126  0.24890  0.51523  1.0000
  C   C210      1.0  0.90441  0.00915  0.53079  1.0000
  C   C211      1.0  0.28897  0.03027  0.64792  1.0000
  C   C212      1.0  0.39099  0.07072  0.62754  1.0000
  S   S67       1.0  0.62016  0.07696  0.78435  1.0000
  C   C213      1.0  0.46035  0.15497  0.75361  1.0000
  S   S68       1.0  0.98088  0.11760  0.67528  1.0000
  H   H202      1.0  0.51064  0.04726  0.65612  1.0000
  C   C214      1.0  0.38484  0.14278  0.75993  1.0000
  H   H203      1.0  0.73412  0.04268  0.77033  1.0000
  C   C215      1.0  0.74721  0.11259  0.73438  1.0000
  C   C216      1.0  0.93775  0.21548  0.73356  1.0000
  H   H204      1.0  0.50343  0.24588  0.77142  1.0000
  C   C217      1.0  0.82527  0.10251  0.60869  1.0000
  C   C218      1.0  0.50208  0.15428  0.71886  1.0000
  N   N19       1.0  0.46948  0.14157  0.69147  1.0000
  H   H205      1.0  0.10152  0.01593  0.57240  1.0000
  H   H206      1.0  0.22650  0.02566  0.64548  1.0000
  C   C219      1.0  0.44813  0.04268  0.65421  1.0000
  C   C220      1.0  0.30273  0.04976  0.76134  1.0000
  H   H207      1.0  0.85255  0.13519  0.69929  1.0000
  H   H208      1.0  0.12567  0.07633  0.76125  1.0000
  S   S69       1.0  0.59401  0.07709  0.54216  1.0000
  H   H209      1.0  0.89917  0.23885  0.71686  1.0000
  H   H210      1.0  0.59769  0.20194  0.55582  1.0000
  C   C221      1.0  0.79730  0.06814  0.64417  1.0000
  Fe  Fe34      1.0  0.09761  0.13611  0.64706  1.0000
  C   C222      1.0  0.17216  0.24379  0.70542  1.0000
  C   C223      1.0  0.51197  0.14265  0.65273  1.0000
  C   C224      1.0  0.22763  0.06790  0.73895  1.0000
  S   S70       1.0  0.19341  0.10102  0.66157  1.0000
  C   C225      1.0  0.77492  0.13305  0.58081  1.0000
  N   N20       1.0  0.01872  0.22517  0.72393  1.0000
  H   H211      1.0  0.19864  0.20584  0.58410  1.0000
  H   H212      1.0  0.36870  0.12019  0.67483  1.0000
  H   H213      1.0  0.94310  0.00786  0.56481  1.0000
  C   C226      1.0  0.44475  0.25175  0.77217  1.0000
  H   H214      1.0  0.71895  0.11523  0.69666  1.0000
  H   H215      1.0  0.33788  0.05438  0.73122  1.0000
  C   C227      1.0  0.31094  0.06465  0.62396  1.0000
  H   H216      1.0  0.23193  0.25111  0.69783  1.0000
  S   S71       1.0  0.68520  0.02066  0.69958  1.0000
  C   C228      1.0  0.39533  0.12959  0.69743  1.0000
  C   C229      1.0  0.82361  0.12357  0.73626  1.0000
  S   S72       1.0  0.81050  0.17609  0.53637  1.0000
  H   H217      1.0  0.40874  0.09710  0.60965  1.0000
  H   H218      1.0  0.65738  0.15235  0.56822  1.0000
  C   C230      1.0  0.15919  0.20929  0.75613  1.0000
  H   H219      1.0  0.87826  0.04987  0.76224  1.0000
  C   C231      1.0  0.69677  0.12900  0.58946  1.0000
  H   H220      1.0  0.60991  0.09144  0.63495  1.0000
  S   S73       1.0  0.04471  0.18761  0.55569  1.0000
  H   H221      1.0  0.33844  0.19587  0.58777  1.0000
  C   C232      1.0  0.37378  0.24307  0.57321  1.0000
  H   H222      1.0  0.50700  0.11740  0.66043  1.0000
  S   S74       1.0  0.94074  0.19913  0.62318  1.0000
  C   C233      1.0  0.31931  0.21897  0.58060  1.0000
  H   H223      1.0  0.36426  0.16339  0.56273  1.0000
  C   C234      1.0  0.71982  0.06391  0.65424  1.0000
  H   H224      1.0  0.48797  0.16614  0.60518  1.0000
  C   C235      1.0  0.23990  0.22468  0.57864  1.0000
  Fe  Fe35      1.0  0.99908  0.14663  0.70940  1.0000
  H   H225      1.0  0.88543  0.10534  0.60175  1.0000
  C   C236      1.0  0.18311  0.06208  0.77834  1.0000
  Fe  Fe36      1.0  0.06082  0.21072  0.59993  1.0000
  C   C237      1.0  0.08150  0.20024  0.76443  1.0000
  H   H226      1.0  0.48617  0.16507  0.77522  1.0000
  C   C238      1.0  0.35188  0.13013  0.73155  1.0000
  H   H227      1.0  0.29280  0.12106  0.73556  1.0000
  S   S75       1.0  0.12080  0.16033  0.68944  1.0000
  H   H228      1.0  0.56049  0.16414  0.71355  1.0000
  S   S76       1.0  0.54679  0.23912  0.69466  1.0000
  H   H229      1.0  0.79748  0.01667  0.54997  1.0000
  S   S77       1.0  0.47255  0.23539  0.57456  1.0000
  H   H230      1.0  0.83558  0.04505  0.66287  1.0000
  H   H231      1.0  0.57617  0.14507  0.66206  1.0000
  C   C239      1.0  0.66988  0.09441  0.62740  1.0000
  Fe  Fe37      1.0  0.92919  0.17116  0.58730  1.0000
  H   H232      1.0  0.26631  0.08635  0.60338  1.0000
  H   H233      1.0  0.91198  0.20556  0.71062  1.0000
  Fe  Fe38      1.0  0.67817  0.24140  0.70644  1.0000
  C   C240      1.0  0.42415  0.00870  0.67752  1.0000
  C   C241      1.0  0.70923  0.09658  0.78249  1.0000
  H   H234      1.0  0.93610  0.19380  0.78193  1.0000
  N   N21       1.0  0.97619  0.38693  0.88023  1.0000
  H   H235      1.0  0.19288  0.39079  0.86477  1.0000
  S   S78       1.0  0.19743  0.29609  0.82849  1.0000
  H   H236      1.0  0.64251  0.47889  0.85054  1.0000
  S   S79       1.0  0.60023  0.31947  0.97569  1.0000
  C   C242      1.0  0.37684  0.37406  0.85817  1.0000
  H   H237      1.0  0.30525  0.29131  0.93324  1.0000
  H   H238      1.0  0.98699  0.35624  0.85566  1.0000
  C   C243      1.0  0.90219  0.39879  0.87427  1.0000
  C   C244      1.0  0.24086  0.33904  0.90111  1.0000
  H   H239      1.0  0.36377  0.35475  0.97697  1.0000
  C   C245      1.0  0.71670  0.38159  0.02236  1.0000
  S   S80       1.0  0.32734  0.47758  0.96735  1.0000
  H   H240      1.0  0.87732  0.26206  0.89939  1.0000
  S   S81       1.0  0.77728  0.35152  0.02915  1.0000
  C   C246      1.0  0.61526  0.50190  0.80518  1.0000
  C   C247      1.0  0.30435  0.36498  0.02203  1.0000
  H   H241      1.0  0.49687  0.36470  0.01074  1.0000
  Fe  Fe39      1.0  0.44386  0.48201  0.94096  1.0000
  C   C248      1.0  0.18738  0.48092  0.78892  1.0000
  C   C249      1.0  0.03452  0.37581  0.92775  1.0000
  H   H242      1.0  0.75976  0.27574  0.91834  1.0000
  C   C250      1.0  0.01983  0.37699  0.97036  1.0000
  C   C251      1.0  0.24353  0.37566  0.87183  1.0000
  H   H243      1.0  0.31172  0.42189  0.82497  1.0000
  H   H244      1.0  0.24647  0.36091  0.00672  1.0000
  N   N22       1.0  0.73339  0.28112  0.79453  1.0000
  C   C252      1.0  0.37583  0.33705  0.88994  1.0000
  H   H245      1.0  0.01422  0.26955  0.01353  1.0000
  C   C253      1.0  0.99217  0.38441  0.83716  1.0000
  H   H246      1.0  0.42663  0.32212  0.89657  1.0000
  H   H247      1.0  0.05282  0.39192  0.82803  1.0000
  C   C254      1.0  0.65034  0.40055  0.97604  1.0000
  H   H248      1.0  0.09310  0.36622  0.93273  1.0000
  S   S82       1.0  0.68483  0.38943  0.86665  1.0000
  S   S83       1.0  0.01158  0.29614  0.83718  1.0000
  H   H249      1.0  0.08561  0.46347  0.02608  1.0000
  H   H250      1.0  0.01765  0.45752  0.84422  1.0000
  H   H251      1.0  0.82667  0.40952  0.91139  1.0000
  H   H252      1.0  0.88032  0.47502  0.90386  1.0000
  C   C255      1.0  0.37051  0.36147  0.00500  1.0000
  C   C256      1.0  0.05583  0.46985  0.81184  1.0000
  Fe  Fe40      1.0  0.57173  0.36268  0.87560  1.0000
  H   H253      1.0  0.83941  0.30529  0.79251  1.0000
  S   S84       1.0  0.61769  0.32879  0.86037  1.0000
  S   S85       1.0  0.45748  0.39724  0.82531  1.0000
  N   N23       1.0  0.80236  0.48243  0.94271  1.0000
  Fe  Fe41      1.0  0.65741  0.28783  0.95950  1.0000
  Fe  Fe42      1.0  0.27717  0.47372  0.89822  1.0000
  Fe  Fe43      1.0  0.71559  0.34467  0.96608  1.0000
  C   C257      1.0  0.61975  0.43005  0.01093  1.0000
  C   C258      1.0  0.31087  0.39330  0.84931  1.0000
  C   C259      1.0  0.44499  0.36710  0.02383  1.0000
  C   C260      1.0  0.84835  0.46059  0.99890  1.0000
  H   H254      1.0  0.93190  0.38963  0.99787  1.0000
  S   S86       1.0  0.18056  0.43912  0.90629  1.0000
  C   C261      1.0  0.30717  0.31967  0.91046  1.0000
  H   H255      1.0  0.63601  0.39661  0.94453  1.0000
  Fe  Fe44      1.0  0.12982  0.28650  0.89310  1.0000
  H   H256      1.0  0.89555  0.44210  0.01086  1.0000
  H   H257      1.0  0.06651  0.36851  0.00757  1.0000
  S   S87       1.0  0.15287  0.31833  0.92211  1.0000
  C   C262      1.0  0.81624  0.48038  0.89869  1.0000
  H   H258      1.0  0.22038  0.48390  0.02558  1.0000
  H   H259      1.0  0.85551  0.40714  0.83707  1.0000
  C   C263      1.0  0.60221  0.42496  0.97009  1.0000
  C   C264      1.0  0.13807  0.46372  0.83099  1.0000
  C   C265      1.0  0.94467  0.38920  0.96453  1.0000
  C   C266      1.0  0.60356  0.29309  0.79896  1.0000
  H   H260      1.0  0.78278  0.45882  0.90396  1.0000
  C   C267      1.0  0.77219  0.48420  0.02777  1.0000
  H   H261      1.0  0.55185  0.43986  0.93382  1.0000
  S   S88       1.0  0.77507  0.30934  0.95945  1.0000
  C   C268      1.0  0.88551  0.40030  0.91608  1.0000
  Fe  Fe45      1.0  0.73378  0.35115  0.86092  1.0000
  S   S89       1.0  0.55983  0.45994  0.00509  1.0000
  S   S90       1.0  0.39510  0.47248  0.87866  1.0000
  S   S91       1.0  0.81361  0.35687  0.80534  1.0000
  H   H262      1.0  0.25088  0.47623  0.80370  1.0000
  H   H263      1.0  0.94958  0.40262  0.79393  1.0000
  C   C269      1.0  0.59737  0.25616  0.84290  1.0000
  H   H264      1.0  0.21309  0.40683  0.03457  1.0000
  N   N24       1.0  0.31217  0.37399  0.05665  1.0000
  H   H265      1.0  0.78546  0.37195  0.09922  1.0000
  C   C270      1.0  0.62765  0.28208  0.22433  1.0000
  H   H266      1.0  0.23675  0.26366  0.06312  1.0000
  S   S92       1.0  0.00272  0.31270  0.13542  1.0000
  H   H267      1.0  0.19844  0.35924  0.08006  1.0000
  C   C271      1.0  0.76599  0.28782  0.21557  1.0000
  Fe  Fe46      1.0  0.03903  0.33844  0.17444  1.0000
  C   C272      1.0  0.13054  0.44725  0.06649  1.0000
  C   C273      1.0  0.24164  0.37904  0.07182  1.0000
  C   C274      1.0  0.73450  0.38677  0.06308  1.0000
  H   H268      1.0  0.69868  0.41423  0.08994  1.0000
  S   S93       1.0  0.36166  0.45171  0.11525  1.0000
  S   S94       1.0  0.74340  0.43604  0.18366  1.0000
  C   C275      1.0  0.95438  0.42825  0.27694  1.0000
  H   H269      1.0  0.25686  0.37499  0.11320  1.0000
  Fe  Fe47      1.0  0.64301  0.40003  0.21461  1.0000
  C   C276      1.0  0.17165  0.39366  0.17058  1.0000
  S   S95       1.0  0.53859  0.29775  0.22361  1.0000
  H   H270      1.0  0.46673  0.28855  0.13999  1.0000
  H   H271      1.0  0.98162  0.29730  0.05330  1.0000
  H   H272      1.0  0.81776  0.30284  0.20704  1.0000
  H   H273      1.0  0.87329  0.27524  0.11063  1.0000
  H   H274      1.0  0.51002  0.38051  0.07427  1.0000
  H   H275      1.0  0.69273  0.32637  0.20486  1.0000
  C   C277      1.0  0.20698  0.45862  0.06609  1.0000
  C   C278      1.0  0.94873  0.27556  0.06122  1.0000
  H   H276      1.0  0.86925  0.44304  0.08727  1.0000
  S   S96       1.0  0.02039  0.39837  0.11731  1.0000
  H   H277      1.0  0.54422  0.26080  0.12185  1.0000
  S   S97       1.0  0.54936  0.41468  0.23936  1.0000
  H   H278      1.0  0.29355  0.38858  0.20999  1.0000
  H   H279      1.0  0.61933  0.49967  0.09347  1.0000
  H   H280      1.0  0.15741  0.36904  0.21151  1.0000
  H   H281      1.0  0.11625  0.46720  0.18881  1.0000
  C   C279      1.0  0.83415  0.46120  0.04223  1.0000
  C   C280      1.0  0.26629  0.43717  0.11745  1.0000
  C   C281      1.0  0.38484  0.38006  0.07459  1.0000
  H   H282      1.0  0.00753  0.46705  0.11009  1.0000
  Fe  Fe48      1.0  0.55104  0.34036  0.23043  1.0000
  C   C282      1.0  0.14189  0.48532  0.14904  1.0000
  Fe  Fe49      1.0  0.96221  0.26886  0.22151  1.0000
  Fe  Fe50      1.0  0.46140  0.40902  0.18237  1.0000
  S   S98       1.0  0.98793  0.29732  0.25635  1.0000
  H   H283      1.0  0.25919  0.47680  0.19896  1.0000
  S   S99       1.0  0.19685  0.27947  0.13291  1.0000
  S   S100      1.0  0.16153  0.31040  0.21735  1.0000
  C   C283      1.0  0.88810  0.26264  0.09417  1.0000
  C   C284      1.0  0.45237  0.37619  0.05920  1.0000
  C   C285      1.0  0.69520  0.30114  0.21434  1.0000
  C   C286      1.0  0.88641  0.44170  0.23230  1.0000
  S   S101      1.0  0.55496  0.39875  0.15177  1.0000
  C   C287      1.0  0.83114  0.41824  0.23745  1.0000
  C   C288      1.0  0.24845  0.40482  0.16991  1.0000
  C   C289      1.0  0.11332  0.41439  0.11848  1.0000
  H   H284      1.0  0.99575  0.44666  0.27337  1.0000
  H   H285      1.0  0.87558  0.47043  0.19465  1.0000
  H   H286      1.0  0.39094  0.38817  0.10068  1.0000
  C   C290      1.0  0.76925  0.25532  0.22738  1.0000
  H   H287      1.0  0.21013  0.39525  0.27295  1.0000
  H   H288      1.0  0.50282  0.48390  0.05559  1.0000
  Fe  Fe51      1.0  0.12196  0.28207  0.18350  1.0000
  S   S102      1.0  0.45086  0.35043  0.25690  1.0000
  C   C291      1.0  0.22252  0.49056  0.15512  1.0000
  C   C292      1.0  0.42047  0.26908  0.15552  1.0000
  H   H289      1.0  0.36242  0.28425  0.12662  1.0000
  C   C293      1.0  0.68556  0.41075  0.05766  1.0000
  H   H290      1.0  0.75906  0.48424  0.06134  1.0000
  H   H291      1.0  0.98200  0.50107  0.11241  1.0000
  Fe  Fe52      1.0  0.10767  0.50004  0.28528  1.0000
  H   H292      1.0  0.41867  0.25663  0.20206  1.0000
  C   C294      1.0  0.01214  0.49573  0.08912  1.0000
  N   N25       1.0  0.09574  0.50287  0.09365  1.0000
  C   C295      1.0  0.96674  0.26013  0.03861  1.0000
  C   C296      1.0  0.09906  0.29250  0.41671  1.0000
  H   H293      1.0  0.53160  0.42657  0.47740  1.0000
  C   C297      1.0  0.89655  0.33471  0.46870  1.0000
  C   C298      1.0  0.43309  0.35929  0.42552  1.0000
  H   H294      1.0  0.09592  0.36024  0.31560  1.0000
  H   H295      1.0  0.58143  0.40135  0.34774  1.0000
  C   C299      1.0  0.53056  0.39754  0.36682  1.0000
  S   S103      1.0  0.39279  0.45681  0.37406  1.0000
  S   S104      1.0  0.74747  0.35685  0.52195  1.0000
  C   C300      1.0  0.39943  0.38789  0.41689  1.0000
  S   S105      1.0  0.04811  0.37445  0.38541  1.0000
  H   H296      1.0  0.40899  0.33334  0.45236  1.0000
  C   C301      1.0  0.91434  0.36760  0.33019  1.0000
  S   S106      1.0  0.64614  0.34029  0.29216  1.0000
  H   H297      1.0  0.95223  0.34409  0.47550  1.0000
  H   H298      1.0  0.81500  0.41240  0.34394  1.0000
  C   C302      1.0  0.76242  0.34664  0.41970  1.0000
  H   H299      1.0  0.81577  0.25659  0.51899  1.0000
  C   C303      1.0  0.89167  0.29773  0.50183  1.0000
  N   N26       1.0  0.16724  0.31190  0.39004  1.0000
  S   S107      1.0  0.53364  0.32997  0.40423  1.0000
  H   H300      1.0  0.34930  0.38392  0.43690  1.0000
  H   H301      1.0  0.34711  0.36561  0.32435  1.0000
  C   C304      1.0  0.29643  0.35046  0.34223  1.0000
  H   H302      1.0  0.71124  0.36549  0.38814  1.0000
  H   H303      1.0  0.07502  0.30320  0.43452  1.0000
  C   C305      1.0  0.30779  0.31431  0.39478  1.0000
  C   C306      1.0  0.75520  0.30980  0.45257  1.0000
  C   C307      1.0  0.49771  0.36428  0.39957  1.0000
  S   S108      1.0  0.03428  0.46270  0.35478  1.0000
  C   C308      1.0  0.69544  0.50098  0.41382  1.0000
  N   N27       1.0  0.63956  0.44604  0.44640  1.0000
  Fe  Fe53      1.0  0.26172  0.45521  0.36960  1.0000
  H   H304      1.0  0.80429  0.40693  0.40784  1.0000
  H   H305      1.0  0.11556  0.26320  0.45458  1.0000
  C   C309      1.0  0.43208  0.42118  0.38373  1.0000
  C   C310      1.0  0.49790  0.42595  0.35905  1.0000
  H   H306      1.0  0.69915  0.30053  0.44618  1.0000
  C   C311      1.0  0.59247  0.41608  0.48537  1.0000
  C   C312      1.0  0.24224  0.29534  0.41820  1.0000
  H   H307      1.0  0.27992  0.42203  0.53460  1.0000
  Fe  Fe54      1.0  0.10902  0.41902  0.37526  1.0000
  C   C313      1.0  0.96772  0.39124  0.32639  1.0000
  H   H308      1.0  0.62607  0.47012  0.48271  1.0000
  H   H309      1.0  0.44947  0.25798  0.31937  1.0000
  C   C314      1.0  0.21975  0.36708  0.31352  1.0000
  Fe  Fe55      1.0  0.13055  0.46023  0.41858  1.0000
  H   H310      1.0  0.05232  0.29548  0.38287  1.0000
  H   H311      1.0  0.74074  0.47865  0.33645  1.0000
  H   H312      1.0  0.36715  0.30133  0.41820  1.0000
  H   H313      1.0  0.66345  0.42726  0.40368  1.0000
  H   H314      1.0  0.87775  0.40156  0.49110  1.0000
  C   C315      1.0  0.14817  0.48843  0.49564  1.0000
  H   H315      1.0  0.52258  0.45184  0.33299  1.0000
  C   C316      1.0  0.67184  0.44806  0.40640  1.0000
  C   C317      1.0  0.65107  0.47193  0.45060  1.0000
  H   H316      1.0  0.58639  0.39737  0.47667  1.0000
  C   C318      1.0  0.45178  0.25882  0.38972  1.0000
  N   N28       1.0  0.83274  0.35868  0.42749  1.0000
  C   C319      1.0  0.71595  0.47691  0.36856  1.0000
  S   S109      1.0  0.10976  0.45519  0.49478  1.0000
  H   H317      1.0  0.80421  0.36283  0.28958  1.0000
  S   S110      1.0  0.19722  0.50205  0.34682  1.0000
  C   C320      1.0  0.82048  0.28522  0.49362  1.0000
  Fe  Fe56      1.0  0.54614  0.35512  0.31220  1.0000
  C   C321      1.0  0.15542  0.34717  0.33793  1.0000
  H   H318      1.0  0.92491  0.33890  0.36803  1.0000
  H   H319      1.0  0.90099  0.40392  0.39608  1.0000
  H   H320      1.0  0.39130  0.27050  0.37390  1.0000
  H   H321      1.0  0.25169  0.26734  0.45904  1.0000
  C   C322      1.0  0.83849  0.39749  0.39210  1.0000
  S   S111      1.0  0.20018  0.41325  0.44481  1.0000
  Fe  Fe57      1.0  0.10771  0.26732  0.29660  1.0000
  S   S112      1.0  0.17739  0.45634  0.30247  1.0000
  H   H322      1.0  0.47159  0.25547  0.46518  1.0000
  H   H323      1.0  0.94318  0.27911  0.53326  1.0000
  H   H324      1.0  0.62129  0.40007  0.53304  1.0000
  C   C323      1.0  0.72764  0.50354  0.37235  1.0000
  H   H325      1.0  0.94174  0.44908  0.53460  1.0000
  C   C324      1.0  0.84562  0.38113  0.28609  1.0000
  H   H326      1.0  0.29181  0.37285  0.77077  1.0000
  C   C325      1.0  0.77378  0.39068  0.72957  1.0000
  C   C326      1.0  0.85660  0.32186  0.62670  1.0000
  C   C327      1.0  0.99381  0.49580  0.57850  1.0000
  S   S113      1.0  0.06623  0.34414  0.67742  1.0000
  H   H327      1.0  0.84835  0.37356  0.70088  1.0000
  C   C328      1.0  0.32868  0.29305  0.72607  1.0000
  H   H328      1.0  0.01173  0.40989  0.71245  1.0000
  C   C329      1.0  0.02317  0.49410  0.75042  1.0000
  Fe  Fe58      1.0  0.08030  0.30076  0.77683  1.0000
  S   S114      1.0  0.45192  0.32044  0.66671  1.0000
  C   C330      1.0  0.00048  0.43218  0.66442  1.0000
  C   C331      1.0  0.97518  0.42568  0.62601  1.0000
  C   C332      1.0  0.69243  0.44647  0.65090  1.0000
  C   C333      1.0  0.89134  0.37836  0.53846  1.0000
  C   C334      1.0  0.83790  0.35186  0.56527  1.0000
  C   C335      1.0  0.15832  0.48253  0.54845  1.0000
  H   H329      1.0  0.69273  0.41400  0.74467  1.0000
  H   H330      1.0  0.55385  0.43973  0.72741  1.0000
  C   C336      1.0  0.77868  0.42340  0.62582  1.0000
  H   H331      1.0  0.03005  0.47282  0.67009  1.0000
  H   H332      1.0  0.23432  0.27244  0.77501  1.0000
  N   N29       1.0  0.48267  0.48546  0.69351  1.0000
  C   C337      1.0  0.40508  0.28591  0.72507  1.0000
  C   C338      1.0  0.10776  0.26880  0.66396  1.0000
  H   H333      1.0  0.60558  0.48014  0.69710  1.0000
  C   C339      1.0  0.97944  0.34601  0.63488  1.0000
  H   H334      1.0  0.18386  0.39355  0.61081  1.0000
  C   C340      1.0  0.43930  0.48700  0.72540  1.0000
  H   H335      1.0  0.57870  0.45448  0.76838  1.0000
  S   S115      1.0  0.53824  0.31856  0.55935  1.0000
  Fe  Fe59      1.0  0.67043  0.31410  0.58216  1.0000
  N   N30       1.0  0.31004  0.39038  0.62867  1.0000
  C   C341      1.0  0.26824  0.27942  0.56040  1.0000
  C   C342      1.0  0.01045  0.46743  0.64064  1.0000
  H   H336      1.0  0.29590  0.31864  0.68875  1.0000
  H   H337      1.0  0.42462  0.37288  0.75009  1.0000
  C   C343      1.0  0.96060  0.45447  0.56418  1.0000
  C   C344      1.0  0.37169  0.37800  0.71902  1.0000
  H   H338      1.0  0.98133  0.27806  0.64001  1.0000
  H   H339      1.0  0.79599  0.31612  0.72324  1.0000
  H   H340      1.0  0.38990  0.29186  0.55845  1.0000
  H   H341      1.0  0.14637  0.45688  0.58899  1.0000
  C   C345      1.0  0.45426  0.50311  0.63444  1.0000
  S   S116      1.0  0.68490  0.25747  0.61884  1.0000
  H   H342      1.0  0.67944  0.33397  0.74404  1.0000
  C   C346      1.0  0.55891  0.46392  0.72281  1.0000
  Fe  Fe60      1.0  0.55199  0.26046  0.60354  1.0000
  C   C347      1.0  0.21395  0.25514  0.56776  1.0000
  Fe  Fe61      1.0  0.53951  0.29710  0.65145  1.0000
  C   C348      1.0  0.80350  0.39350  0.68681  1.0000
  S   S117      1.0  0.73084  0.48807  0.76981  1.0000
  H   H343      1.0  0.94019  0.29649  0.70944  1.0000
  H   H344      1.0  0.95973  0.49983  0.73585  1.0000
  H   H345      1.0  0.24850  0.30306  0.55198  1.0000
  C   C349      1.0  0.37708  0.38416  0.66748  1.0000
  H   H346      1.0  0.17127  0.38316  0.70074  1.0000
  C   C350      1.0  0.31540  0.39664  0.57486  1.0000
  C   C351      1.0  0.92653  0.31932  0.66182  1.0000
  H   H347      1.0  0.11723  0.29551  0.62385  1.0000
  S   S118      1.0  0.67013  0.29801  0.67047  1.0000
  C   C352      1.0  0.71556  0.41620  0.71160  1.0000
  C   C353      1.0  0.22945  0.38389  0.69140  1.0000
  C   C354      1.0  0.72633  0.45073  0.60833  1.0000
  C   C355      1.0  0.29722  0.37799  0.73077  1.0000
  H   H348      1.0  0.43504  0.38328  0.65924  1.0000
  H   H349      1.0  0.65248  0.46776  0.63733  1.0000
  C   C356      1.0  0.03097  0.25877  0.67342  1.0000
  H   H350      1.0  0.37736  0.39874  0.56808  1.0000
  C   C357      1.0  0.23696  0.38985  0.64048  1.0000
  H   H351      1.0  0.81768  0.30043  0.64720  1.0000
  S   S119      1.0  0.11359  0.26254  0.56307  1.0000
  H   H352      1.0  0.96559  0.39855  0.64399  1.0000
  C   C358      1.0  0.96248  0.37515  0.57312  1.0000
  C   C359      1.0  0.34842  0.27308  0.56401  1.0000
  H   H353      1.0  0.46160  0.47296  0.77232  1.0000
  C   C360      1.0  0.29408  0.26697  0.77554  1.0000
  S   S120      1.0  0.84284  0.49151  0.66197  1.0000
  H   H354      1.0  0.48871  0.50172  0.60937  1.0000
  H   H355      1.0  0.80491  0.42675  0.59286  1.0000
  H   H356      1.0  0.00398  0.39558  0.55216  1.0000
  H   H357      1.0  0.29241  0.37378  0.57877  1.0000
  C   C361      1.0  0.80767  0.29433  0.77266  1.0000
  N   N31       1.0  0.97000  0.48898  0.54122  1.0000
  C   C362      1.0  0.67330  0.30523  0.77617  1.0000
  S   S121      1.0  0.72277  0.49397  0.53909  1.0000
  H   H358      1.0  0.55507  0.31212  0.78345  1.0000
  H   H359      1.0  0.84705  0.27244  0.78491  1.0000
  H   H360      1.0  0.13512  0.67696  0.03280  1.0000
  H   H361      1.0  0.67526  0.52324  0.95946  1.0000
  H   H362      1.0  0.27008  0.67943  0.91431  1.0000
  C   C363      1.0  0.54627  0.65547  0.87670  1.0000
  Fe  Fe62      1.0  0.81704  0.61113  0.82333  1.0000
  S   S122      1.0  0.25321  0.57555  0.89471  1.0000
  H   H363      1.0  0.38076  0.52535  0.99737  1.0000
  H   H364      1.0  0.19107  0.71400  0.87367  1.0000
  C   C364      1.0  0.44661  0.69422  0.86267  1.0000
  H   H365      1.0  0.01912  0.51419  0.89681  1.0000
  H   H366      1.0  0.54029  0.65698  0.80343  1.0000
  C   C365      1.0  0.95999  0.71252  0.84585  1.0000
  C   C366      1.0  0.04097  0.53759  0.88952  1.0000
  S   S123      1.0  0.68459  0.61252  0.81161  1.0000
  H   H367      1.0  0.49231  0.59730  0.01762  1.0000
  H   H368      1.0  0.79678  0.50640  0.85223  1.0000
  C   C367      1.0  0.24795  0.66582  0.84311  1.0000
  S   S124      1.0  0.45728  0.68261  0.01381  1.0000
  C   C368      1.0  0.75625  0.73560  0.84133  1.0000
  H   H369      1.0  0.42116  0.70450  0.87934  1.0000
  N   N32       1.0  0.68607  0.72894  0.90920  1.0000
  H   H370      1.0  0.70295  0.52123  0.88447  1.0000
  H   H371      1.0  0.53531  0.65874  0.94272  1.0000
  C   C369      1.0  0.41611  0.70696  0.80526  1.0000
  S   S125      1.0  0.33315  0.74800  0.88059  1.0000
  H   H372      1.0  0.29422  0.64784  0.88220  1.0000
  Fe  Fe63      1.0  0.70016  0.63957  0.84933  1.0000
  H   H373      1.0  0.09143  0.53995  0.99931  1.0000
  C   C370      1.0  0.01174  0.71565  0.88371  1.0000
  Fe  Fe64      1.0  0.30830  0.53731  0.89125  1.0000
  C   C371      1.0  0.01641  0.59507  0.86218  1.0000
  N   N33       1.0  0.19881  0.68798  0.83986  1.0000
  C   C372      1.0  0.04524  0.74828  0.85971  1.0000
  H   H374      1.0  0.56358  0.72222  0.91118  1.0000
  C   C373      1.0  0.49534  0.57245  0.02587  1.0000
  C   C374      1.0  0.43206  0.53241  0.01365  1.0000
  H   H375      1.0  0.97562  0.61633  0.84792  1.0000
  H   H376      1.0  0.16320  0.51940  0.91153  1.0000
  C   C375      1.0  0.51102  0.66809  0.89875  1.0000
  C   C376      1.0  0.62097  0.71440  0.94222  1.0000
  H   H377      1.0  0.23323  0.55058  0.00795  1.0000
  Fe  Fe65      1.0  0.37383  0.53280  0.80942  1.0000
  S   S126      1.0  0.88606  0.56155  0.85874  1.0000
  H   H378      1.0  0.37585  0.58265  0.97768  1.0000
  H   H379      1.0  0.93614  0.68702  0.86405  1.0000
  H   H380      1.0  0.76411  0.72948  0.81389  1.0000
  H   H381      1.0  0.16942  0.66750  0.92136  1.0000
  S   S127      1.0  0.42864  0.54218  0.87056  1.0000
  C   C377      1.0  0.54474  0.51983  0.79413  1.0000
  H   H382      1.0  0.14696  0.60962  0.00216  1.0000
  S   S128      1.0  0.25148  0.53358  0.82302  1.0000
  C   C378      1.0  0.42918  0.56438  0.00304  1.0000
  S   S129      1.0  0.31643  0.60968  0.03194  1.0000
  C   C379      1.0  0.69592  0.72117  0.87470  1.0000
  C   C380      1.0  0.51404  0.66718  0.82022  1.0000
  H   H383      1.0  0.11992  0.62108  0.86426  1.0000
  H   H384      1.0  0.61565  0.72492  0.96466  1.0000
  H   H385      1.0  0.63061  0.68451  0.97737  1.0000
  C   C381      1.0  0.09819  0.59785  0.87115  1.0000
  S   S130      1.0  0.63515  0.62819  0.91690  1.0000
  H   H386      1.0  0.52037  0.51146  0.83132  1.0000
  H   H387      1.0  0.02845  0.69240  0.93098  1.0000
  C   C382      1.0  0.20769  0.68711  0.88978  1.0000
  C   C383      1.0  0.12261  0.54065  0.89758  1.0000
  S   S131      1.0  0.83279  0.63474  0.86689  1.0000
  H   H388      1.0  0.03763  0.72161  0.00891  1.0000
  C   C384      1.0  0.98785  0.56500  0.87111  1.0000
  H   H389      1.0  0.65695  0.70376  0.87277  1.0000
  C   C385      1.0  0.15128  0.57095  0.88775  1.0000
  H   H390      1.0  0.59537  0.75183  0.01798  1.0000
  S   S132      1.0  0.12035  0.75077  0.90412  1.0000
  C   C386      1.0  0.73670  0.74997  0.91310  1.0000
  C   C387      1.0  0.13917  0.70994  0.79129  1.0000
  H   H391      1.0  0.09970  0.72707  0.78924  1.0000
  C   C388      1.0  0.72515  0.50612  0.97056  1.0000
  C   C389      1.0  0.74064  0.50461  0.92851  1.0000
  C   C390      1.0  0.24061  0.66675  0.79536  1.0000
  H   H392      1.0  0.28115  0.64979  0.79763  1.0000
  H   H393      1.0  0.29735  0.68120  0.14522  1.0000
  C   C391      1.0  0.10515  0.58090  0.08455  1.0000
  S   S133      1.0  0.08371  0.70880  0.19820  1.0000
  C   C392      1.0  0.20793  0.53214  0.04776  1.0000
  H   H394      1.0  0.12405  0.60183  0.26635  1.0000
  C   C393      1.0  0.17186  0.68521  0.21490  1.0000
  H   H395      1.0  0.70759  0.71441  0.23075  1.0000
  C   C394      1.0  0.24342  0.58944  0.07597  1.0000
  H   H396      1.0  0.32612  0.56508  0.15845  1.0000
  C   C395      1.0  0.20641  0.55442  0.17300  1.0000
  C   C396      1.0  0.66831  0.61771  0.22418  1.0000
  Fe  Fe66      1.0  0.40456  0.63369  0.16835  1.0000
  Fe  Fe67      1.0  0.39173  0.70544  0.04181  1.0000
  H   H397      1.0  0.82899  0.65422  0.15873  1.0000
  H   H398      1.0  0.66654  0.53388  0.12332  1.0000
  C   C397      1.0  0.27050  0.67320  0.18113  1.0000
  S   S134      1.0  0.33962  0.74561  0.25989  1.0000
  C   C398      1.0  0.67947  0.70115  0.21400  1.0000
  S   S135      1.0  0.47247  0.60449  0.15222  1.0000
  H   H399      1.0  0.60686  0.61446  0.21413  1.0000
  C   C399      1.0  0.12648  0.59843  0.23385  1.0000
  C   C400      1.0  0.04595  0.65628  0.15914  1.0000
  S   S136      1.0  0.05325  0.54540  0.18935  1.0000
  H   H400      1.0  0.64081  0.68088  0.24488  1.0000
  H   H401      1.0  0.98025  0.51299  0.04180  1.0000
  N   N34       1.0  0.10175  0.63232  0.17208  1.0000
  C   C401      1.0  0.26463  0.56933  0.13769  1.0000
  C   C402      1.0  0.12761  0.52619  0.04326  1.0000
  Fe  Fe68      1.0  0.03953  0.67822  0.28379  1.0000
  C   C403      1.0  0.82645  0.62713  0.25055  1.0000
  H   H402      1.0  0.72759  0.68666  0.21516  1.0000
  C   C404      1.0  0.29768  0.64100  0.23947  1.0000
  H   H403      1.0  0.67076  0.57354  0.04689  1.0000
  C   C405      1.0  0.20680  0.69492  0.16865  1.0000
  C   C406      1.0  0.50081  0.50910  0.04636  1.0000
  H   H404      1.0  0.08732  0.57733  0.24260  1.0000
  C   C407      1.0  0.16371  0.59462  0.04958  1.0000
  H   H405      1.0  0.22341  0.53905  0.22062  1.0000
  C   C408      1.0  0.71419  0.63570  0.17980  1.0000
  S   S137      1.0  0.36906  0.61098  0.25388  1.0000
  H   H406      1.0  0.88737  0.63108  0.26054  1.0000
  Fe  Fe69      1.0  0.47216  0.74391  0.27880  1.0000
  S   S138      1.0  0.47921  0.68040  0.12623  1.0000
  S   S139      1.0  0.67052  0.65496  0.10674  1.0000
  H   H407      1.0  0.68106  0.70910  0.11776  1.0000
  C   C409      1.0  0.13253  0.63924  0.12735  1.0000
  C   C410      1.0  0.20360  0.65465  0.27400  1.0000
  H   H408      1.0  0.98046  0.70833  0.09104  1.0000
  H   H409      1.0  0.02142  0.65081  0.19460  1.0000
  H   H410      1.0  0.18875  0.58903  0.24208  1.0000
  C   C411      1.0  0.70158  0.60410  0.28181  1.0000
  C   C412      1.0  0.79352  0.64016  0.19308  1.0000
  H   H411      1.0  0.04336  0.58578  0.06385  1.0000
  N   N35       1.0  0.63217  0.72797  0.15374  1.0000
  H   H412      1.0  0.36860  0.73334  0.10396  1.0000
  C   C413      1.0  0.02229  0.68889  0.10042  1.0000
  C   C414      1.0  0.63958  0.72831  0.10921  1.0000
  H   H413      1.0  0.17625  0.62017  0.13758  1.0000
  H   H414      1.0  0.18330  0.71853  0.12300  1.0000
  C   C415      1.0  0.12650  0.56092  0.14623  1.0000
  S   S140      1.0  0.31336  0.66024  0.08486  1.0000
  C   C416      1.0  0.25563  0.51396  0.10407  1.0000
  Fe  Fe70      1.0  0.53932  0.65411  0.10200  1.0000
  C   C417      1.0  0.59178  0.75267  0.05240  1.0000
  C   C418      1.0  0.63204  0.55853  0.08067  1.0000
  C   C419      1.0  0.05452  0.69641  0.05466  1.0000
  C   C420      1.0  0.10950  0.67132  0.06804  1.0000
  H   H415      1.0  0.31812  0.51822  0.10805  1.0000
  Fe  Fe71      1.0  0.38603  0.63486  0.06510  1.0000
  C   C421      1.0  0.56611  0.51805  0.06818  1.0000
  N   N36       1.0  0.56242  0.54923  0.05843  1.0000
  H   H416      1.0  0.61464  0.57567  0.08942  1.0000
  C   C422      1.0  0.57848  0.75180  0.14308  1.0000
  H   H417      1.0  0.57145  0.75097  0.17881  1.0000
  C   C423      1.0  0.54790  0.62118  0.42440  1.0000
  H   H418      1.0  0.45238  0.74735  0.46021  1.0000
  C   C424      1.0  0.62142  0.58273  0.42118  1.0000
  H   H419      1.0  0.88567  0.52292  0.46103  1.0000
  S   S141      1.0  0.91397  0.71357  0.38109  1.0000
  Fe  Fe72      1.0  0.09560  0.62020  0.41679  1.0000
  N   N37       1.0  0.48018  0.61883  0.39576  1.0000
  C   C425      1.0  0.75348  0.73304  0.35183  1.0000
  C   C426      1.0  0.95092  0.51867  0.47633  1.0000
  S   S142      1.0  0.27406  0.74702  0.37881  1.0000
  H   H420      1.0  0.66556  0.59058  0.31572  1.0000
  H   H421      1.0  0.97329  0.54428  0.46272  1.0000
  C   C427      1.0  0.55165  0.57957  0.39363  1.0000
  H   H422      1.0  0.55211  0.56384  0.38046  1.0000
  H   H423      1.0  0.28054  0.70514  0.50747  1.0000
  H   H424      1.0  0.54841  0.63861  0.43440  1.0000
  H   H425      1.0  0.06579  0.73107  0.42844  1.0000
  H   H426      1.0  0.61929  0.71060  0.45783  1.0000
  S   S143      1.0  0.82725  0.57220  0.52740  1.0000
  C   C428      1.0  0.65370  0.70376  0.33124  1.0000
  Fe  Fe73      1.0  0.92465  0.62419  0.36068  1.0000
  H   H427      1.0  0.35867  0.62171  0.39836  1.0000
  S   S144      1.0  0.69051  0.64492  0.50063  1.0000
  C   C429      1.0  0.71241  0.67819  0.35001  1.0000
  H   H428      1.0  0.78772  0.71245  0.47156  1.0000
  C   C430      1.0  0.63487  0.69262  0.50618  1.0000
  H   H429      1.0  0.76159  0.52615  0.34330  1.0000
  H   H430      1.0  0.19242  0.57577  0.40165  1.0000
  S   S145      1.0  0.19737  0.58151  0.49023  1.0000
  S   S146      1.0  0.81939  0.59404  0.36585  1.0000
  S   S147      1.0  0.04179  0.61788  0.34607  1.0000
  C   C431      1.0  0.61930  0.60337  0.43714  1.0000
  H   H431      1.0  0.70514  0.52132  0.41762  1.0000
  S   S148      1.0  0.55660  0.70163  0.30362  1.0000
  C   C432      1.0  0.16262  0.52177  0.44315  1.0000
  C   C433      1.0  0.18358  0.54969  0.44278  1.0000
  H   H432      1.0  0.78808  0.72470  0.51569  1.0000
  C   C434      1.0  0.82649  0.71496  0.50225  1.0000
  S   S149      1.0  0.97829  0.62067  0.43765  1.0000
  H   H433      1.0  0.86848  0.73563  0.47746  1.0000
  H   H434      1.0  0.67732  0.56979  0.42930  1.0000
  H   H435      1.0  0.67326  0.60718  0.45656  1.0000
  C   C435      1.0  0.78031  0.60912  0.29484  1.0000
  H   H436      1.0  0.38805  0.65906  0.32834  1.0000
  S   S150      1.0  0.91654  0.68448  0.29122  1.0000
  C   C436      1.0  0.48116  0.59783  0.38140  1.0000
  H   H437      1.0  0.41400  0.65617  0.39133  1.0000
  H   H438      1.0  0.18012  0.64800  0.31038  1.0000
  H   H439      1.0  0.28577  0.60728  0.33147  1.0000
  C   C437      1.0  0.08994  0.70759  0.47472  1.0000
  H   H440      1.0  0.08658  0.73489  0.50768  1.0000
  H   H441      1.0  0.69779  0.65710  0.34881  1.0000
  C   C438      1.0  0.11015  0.67500  0.49013  1.0000
  C   C439      1.0  0.81257  0.70816  0.36806  1.0000
  S   S151      1.0  0.09756  0.68034  0.35395  1.0000
  C   C440      1.0  0.18971  0.54440  0.49470  1.0000
  H   H442      1.0  0.83477  0.66009  0.38312  1.0000
  H   H443      1.0  0.97831  0.51241  0.45322  1.0000
  C   C441      1.0  0.40653  0.63983  0.37795  1.0000
  C   C442      1.0  0.10131  0.70967  0.51914  1.0000
  H   H444      1.0  0.37700  0.68395  0.48257  1.0000
  H   H445      1.0  0.15380  0.52673  0.40207  1.0000
  C   C443      1.0  0.79102  0.68023  0.36875  1.0000
  H   H446      1.0  0.10123  0.67366  0.45530  1.0000
  H   H447      1.0  0.42758  0.59571  0.35921  1.0000
  C   C444      1.0  0.67405  0.73114  0.33259  1.0000
  H   H448      1.0  0.89931  0.66959  0.50165  1.0000
  H   H449      1.0  0.59184  0.73078  0.50997  1.0000
  Fe  Fe74      1.0  0.97418  0.68090  0.36788  1.0000
  H   H450      1.0  0.62921  0.75121  0.31781  1.0000
  C   C445      1.0  0.38767  0.67652  0.52597  1.0000
  C   C446      1.0  0.26500  0.63204  0.28615  1.0000
  C   C447      1.0  0.61888  0.70399  0.53559  1.0000
  C   C448      1.0  0.07295  0.51203  0.70849  1.0000
  H   H451      1.0  0.18282  0.50642  0.58816  1.0000
  H   H452      1.0  0.31589  0.71544  0.65891  1.0000
  C   C449      1.0  0.17941  0.51049  0.54809  1.0000
  H   H453      1.0  0.08113  0.72814  0.70516  1.0000
  H   H454      1.0  0.92030  0.62521  0.70539  1.0000
  N   N38       1.0  0.14074  0.64530  0.54815  1.0000
  C   C450      1.0  0.38050  0.52308  0.60573  1.0000
  H   H455      1.0  0.30754  0.68906  0.60592  1.0000
  S   S152      1.0  0.82969  0.56347  0.64472  1.0000
  S   S153      1.0  0.03404  0.54380  0.63181  1.0000
  C   C451      1.0  0.18067  0.68944  0.74525  1.0000
  H   H456      1.0  0.17754  0.62363  0.63804  1.0000
  C   C452      1.0  0.95071  0.62804  0.59470  1.0000
  C   C453      1.0  0.46950  0.64647  0.62312  1.0000
  C   C454      1.0  0.33609  0.52490  0.63791  1.0000
  C   C455      1.0  0.34906  0.67914  0.59579  1.0000
  C   C456      1.0  0.69231  0.63526  0.60145  1.0000
  Fe  Fe75      1.0  0.76108  0.52261  0.57242  1.0000
  H   H457      1.0  0.45535  0.73147  0.64935  1.0000
  C   C457      1.0  0.67143  0.65820  0.53903  1.0000
  C   C458      1.0  0.90607  0.66052  0.54605  1.0000
  N   N39       1.0  0.41587  0.65790  0.63688  1.0000
  S   S154      1.0  0.68995  0.69506  0.75939  1.0000
  H   H458      1.0  0.11718  0.60576  0.54025  1.0000
  Fe  Fe76      1.0  0.76233  0.51509  0.68107  1.0000
  H   H459      1.0  0.42335  0.70152  0.74145  1.0000
  H   H460      1.0  0.69163  0.62866  0.67926  1.0000
  C   C459      1.0  0.63892  0.68100  0.59790  1.0000
  C   C460      1.0  0.32859  0.74015  0.61730  1.0000
  C   C461      1.0  0.64917  0.51330  0.75743  1.0000
  C   C462      1.0  0.33350  0.68840  0.54004  1.0000
  C   C463      1.0  0.12883  0.71086  0.74341  1.0000
  C   C464      1.0  0.15482  0.50498  0.72774  1.0000
  H   H461      1.0  0.00095  0.52322  0.56028  1.0000
  S   S155      1.0  0.88302  0.73882  0.73475  1.0000
  H   H462      1.0  0.46302  0.62116  0.73057  1.0000
  H   H463      1.0  0.33284  0.50836  0.72364  1.0000
  C   C465      1.0  0.36567  0.50677  0.69811  1.0000
  C   C466      1.0  0.15248  0.64711  0.59207  1.0000
  H   H464      1.0  0.35760  0.53704  0.55891  1.0000
  Fe  Fe77      1.0  0.68624  0.66777  0.72282  1.0000
  Fe  Fe78      1.0  0.90291  0.54261  0.61809  1.0000
  S   S156      1.0  0.81736  0.66423  0.73141  1.0000
  C   C467      1.0  0.13242  0.67927  0.57826  1.0000
  H   H465      1.0  0.17430  0.69041  0.70797  1.0000
  H   H466      1.0  0.97796  0.61218  0.58785  1.0000
  S   S157      1.0  0.67512  0.54183  0.59499  1.0000
  C   C468      1.0  0.87522  0.66816  0.61064  1.0000
  C   C469      1.0  0.43248  0.64874  0.69485  1.0000
  H   H467      1.0  0.84517  0.68360  0.61720  1.0000
  H   H468      1.0  0.71898  0.60845  0.62738  1.0000
  H   H469      1.0  0.14137  0.68087  0.61290  1.0000
  C   C470      1.0  0.67692  0.64679  0.63090  1.0000
  H   H470      1.0  0.52292  0.63005  0.65549  1.0000
  H   H471      1.0  0.64213  0.55406  0.66249  1.0000
  N   N40       1.0  0.86962  0.68022  0.55439  1.0000
  S   S158      1.0  0.60824  0.69391  0.63399  1.0000
  C   C471      1.0  0.16409  0.61197  0.56240  1.0000
  C   C472      1.0  0.50549  0.54770  0.73528  1.0000
  C   C473      1.0  0.45644  0.65565  0.56754  1.0000
  H   H472      1.0  0.19290  0.51866  0.69528  1.0000
  C   C474      1.0  0.61399  0.54351  0.69914  1.0000
  H   H473      1.0  0.27891  0.54034  0.61618  1.0000
  C   C475      1.0  0.40705  0.74930  0.61230  1.0000
  H   H474      1.0  0.21969  0.61481  0.54658  1.0000
  Fe  Fe79      1.0  0.74793  0.58911  0.55784  1.0000
  H   H475      1.0  0.47160  0.66823  0.69235  1.0000
  H   H476      1.0  0.51166  0.58140  0.64224  1.0000
  S   S159      1.0  0.40979  0.56536  0.72078  1.0000
  H   H477      1.0  0.98838  0.58941  0.69075  1.0000
  C   C476      1.0  0.94189  0.74210  0.78426  1.0000
  H   H478      1.0  0.37735  0.64896  0.70858  1.0000
  C   C477      1.0  0.95643  0.61532  0.65235  1.0000
  C   C478      1.0  0.54103  0.55989  0.68781  1.0000
  C   C479      1.0  0.91803  0.63534  0.66056  1.0000
  Fe  Fe80      1.0  0.82140  0.68831  0.77346  1.0000
  H   H479      1.0  0.17309  0.58828  0.61121  1.0000
  H   H480      1.0  0.49999  0.64685  0.55679  1.0000
  S   S160      1.0  0.33874  0.74117  0.75771  1.0000
  C   C480      1.0  0.44818  0.69248  0.78499  1.0000
