data_image0
_chemical_formula_structural       H3SHC2SC2NSC2HS2CHSFeSC2HCH5CHCHC2HCH8CNC2HC2HCFeCH2CHFeC3HC2S2C2S2NCSH2S2H2FeC3H2FeCFeCH2C3FeH3CH2SCFeC2H2CHC3H3C2H3CHCNHCHCSC3H2C4HCH2FeH3C2HCHC2H2C2HCHCHC3SHCHCH2SCNCHCHCS4H5FeHC4H2C2HC2FeH2NHFeC3NH2S2HCH3C7HCFeH2CFeH2C2HCH3SNCS2CFeHSFeCFeCHSCFeH2CH2CHC2FeCH2NCSHCH3FeHCH3CNHCSCH2CHSC2HFeH4C2SHCHCH2C2H4C2H3CSFeCHCNC2HSFeSCSH2CS2FeCHSCHCSCSCHNH2C2H4CFeH2CSFeH2C2HFeC6H2CFe2H2SCSCHCHCSH2CHNH2CSC2HSC2HSCSH3C2FeHSH5SHCSCH2SCSHCH2C2HSHFeHC2HCN2C4FeCS2C3HCSHCHCH2SC2HSFeCHFeHSCHCFeHFeCH2FeHC6SNHNCS2HSH7CNCFe2CHCH2CH2CSCHC4SH2CHNCH2CH2SC3SHNHS2HFeCH2CH3SHCSCHCH2C2H2CH4SHFeCNC2FeCSHNCSHSCH6CHCSH3CHC2HCHSC3FeC2SFeHSC2HSH3SH2CHCH4SH3FeHCSC4HCFeCHC2NHNHCH2SC3NHC2HFeHC2HC2HC3SCH2CSHCH2CHSC4H4C2NCFeH2FeCHC3HSHSC3HCFeCHFeH2C2H2C3H3SCHCH3S2HC4H2C4H2CHCHCSCHCHC2SCHFeC3SHC2S2C2SFeSC2SH3CHSHFeHC2SH3C2FeCH2CHC2HCH2CS2HC3NHCHS2HSC2HFeCHSHNCHFeSC2HSCHC2H2CSHC2HCHCH2C2HSHC3NCHC2SCFeSCHC2SHFeNH2CH4FeHC3HCHCNCFeHSCHCH2SHCHC2SH2CSHCSHSH3NC2HNFeHCH2CSCH3SC3H2CH2CHSCSC2H2CHC2FeHCHC2HC3NC2HC2H2CS3FeH3CHCH2NHFeC2HCFeC4NH2SH2SHCH2FeC3NC2H3SHSHFeC2SCHSC4FeSHCSHC2H2C2H2SHFeSHFeC3HCS2CHCSNHSFeCHFeCHC3HCHSCHCH3CHCH2CH3SCH4NC3H4NH2SCHSCHSHSCHCH2SCHCSC2HCHSHFeHC2H2CH2C2HC2FeHSC3FeHFe2HCHSHC6SH2CH3CFeCSC2NCSCH2C5FeCSFeCSNC2SCH3CHNHCHCFeHCHC3SC2SCHSHFeH2SHNHCSC3HC3HSHCHS2CFeCSCSCHCSNFe2H2CHSHCHNCH4CH2SC2HC2H2CH2FeCFeHCHFeH2CFeSFeSCH5CHCNCHCH3CHSC4HSHCH2CH2SCFeHCNFeHNC2SCSH5SHCS2CHC2H2CH2SHSC2H2SFeS2HCHS2H4C2HFeC3HCHC2FeH2CHSHC2H2C3HFeCFeC3SCHCFeNHCH2CH2CHCH4CH2C3SHC6H4CHC2SCSHS2CFeHCSH2FeHCHCSHNFeHSCNHSC3H3FeHSCH2C3NSHCHCH2C2HFeCSHFeHC2FeSC3SC2HNC2HCHCHCSCHCHSHC2H2CHC2Fe2C2HC2FeSHCSH2CHCHCSC2H3CNHCH3CH2CH3CFeSFeH7SC2H2SHC3SNCNCFeSCHSHNSCH3S2C2HCHCHCH2CHC3SHCSHSCHC2H4SCHC2FeSC2SC2SH4C2SHC2H4SC8SC3HCSC2S3HC2FeH3CHFeC2HNFeHCH2CHCHC3HCSCHCFeNC2HCH3FeH3Fe2SHCS2CH3CH5CH2C3H3C2HC2HC2
_chemical_formula_sum              "H720 S240 C720 N60 Fe120"
_cell_length_a       37.2104
_cell_length_b       31.8186
_cell_length_c       25.9653
_cell_angle_alpha    89.7419
_cell_angle_beta     98.9086
_cell_angle_gamma    64.7793

_space_group_name_H-M_alt    "P 1"
_space_group_IT_number       1

loop_
  _space_group_symop_operation_xyz
  'x, y, z'

loop_
  _atom_site_type_symbol
  _atom_site_label
  _atom_site_symmetry_multiplicity
  _atom_site_fract_x
  _atom_site_fract_y
  _atom_site_fract_z
  _atom_site_occupancy
  H   H1        1.0  0.51810  0.70104  0.67841  1.0000
  H   H2        1.0  0.38078  0.35599  0.70420  1.0000
  H   H3        1.0  0.16656  0.55188  0.75783  1.0000
  S   S1        1.0  0.28775  0.26143  0.73973  1.0000
  H   H4        1.0  0.60346  0.69295  0.65547  1.0000
  C   C1        1.0  0.37690  0.52506  0.74361  1.0000
  C   C2        1.0  0.60475  0.20960  0.79592  1.0000
  S   S2        1.0  0.49518  0.47435  0.76327  1.0000
  C   C3        1.0  0.30486  0.57350  0.72097  1.0000
  C   C4        1.0  0.43672  0.67879  0.66562  1.0000
  N   N1        1.0  0.44179  0.24030  0.71537  1.0000
  S   S3        1.0  0.31403  0.41931  0.62350  1.0000
  C   C5        1.0  0.56770  0.24149  0.76738  1.0000
  C   C6        1.0  0.52720  0.50179  0.59888  1.0000
  H   H5        1.0  0.63246  0.63253  0.67857  1.0000
  S   S4        1.0  0.44480  0.42085  0.69997  1.0000
  S   S5        1.0  0.23863  0.36982  0.62572  1.0000
  C   C7        1.0  0.26314  0.44766  0.73327  1.0000
  H   H6        1.0  0.29051  0.41859  0.72652  1.0000
  S   S6        1.0  0.26250  0.61191  0.67622  1.0000
  Fe  Fe1       1.0  0.17703  0.42738  0.61900  1.0000
  S   S7        1.0  0.41325  0.46402  0.83112  1.0000
  C   C8        1.0  0.64696  0.49307  0.71812  1.0000
  C   C9        1.0  0.45562  0.63008  0.67147  1.0000
  H   H7        1.0  0.26996  0.57110  0.77896  1.0000
  C   C10       1.0  0.39008  0.31894  0.70099  1.0000
  H   H8        1.0  0.21640  0.20883  0.61192  1.0000
  H   H9        1.0  0.34793  0.48309  0.64611  1.0000
  H   H10       1.0  0.22817  0.27881  0.62730  1.0000
  H   H11       1.0  0.26915  0.36640  0.76254  1.0000
  H   H12       1.0  0.53858  0.46873  0.62133  1.0000
  C   C11       1.0  0.37174  0.50802  0.79033  1.0000
  H   H13       1.0  0.59185  0.23061  0.64573  1.0000
  C   C12       1.0  0.19385  0.52287  0.75065  1.0000
  H   H14       1.0  0.35305  0.24237  0.65712  1.0000
  C   C13       1.0  0.52022  0.63257  0.68102  1.0000
  C   C14       1.0  0.40674  0.69518  0.78750  1.0000
  H   H15       1.0  0.63394  0.56189  0.80518  1.0000
  C   C15       1.0  0.24688  0.39377  0.78250  1.0000
  H   H16       1.0  0.56010  0.58752  0.78618  1.0000
  H   H17       1.0  0.38226  0.65308  0.74358  1.0000
  H   H18       1.0  0.64262  0.43128  0.63903  1.0000
  H   H19       1.0  0.21921  0.38776  0.77714  1.0000
  H   H20       1.0  0.43373  0.36996  0.60916  1.0000
  H   H21       1.0  0.55296  0.61494  0.68662  1.0000
  H   H22       1.0  0.41744  0.33672  0.83252  1.0000
  H   H23       1.0  0.50148  0.20344  0.70129  1.0000
  C   C16       1.0  0.29979  0.55836  0.76900  1.0000
  N   N2        1.0  0.64560  0.65338  0.60784  1.0000
  C   C17       1.0  0.50032  0.68128  0.67574  1.0000
  C   C18       1.0  0.43521  0.69506  0.82952  1.0000
  H   H24       1.0  0.40654  0.51297  0.73349  1.0000
  C   C19       1.0  0.33313  0.52543  0.80350  1.0000
  C   C20       1.0  0.49761  0.60694  0.67935  1.0000
  H   H25       1.0  0.43782  0.61032  0.66964  1.0000
  C   C21       1.0  0.28640  0.69909  0.72817  1.0000
  Fe  Fe2       1.0  0.27611  0.63037  0.59935  1.0000
  C   C22       1.0  0.43013  0.28709  0.71844  1.0000
  H   H26       1.0  0.27994  0.68419  0.76245  1.0000
  H   H27       1.0  0.33098  0.32700  0.66566  1.0000
  C   C23       1.0  0.41472  0.22417  0.69315  1.0000
  H   H28       1.0  0.58425  0.52755  0.68380  1.0000
  Fe  Fe3       1.0  0.54967  0.40585  0.76897  1.0000
  C   C24       1.0  0.19610  0.23682  0.63127  1.0000
  C   C25       1.0  0.17709  0.31147  0.66709  1.0000
  C   C26       1.0  0.16369  0.23330  0.64824  1.0000
  H   H29       1.0  0.45172  0.29999  0.73517  1.0000
  C   C27       1.0  0.48404  0.20756  0.73337  1.0000
  C   C28       1.0  0.59530  0.22430  0.68753  1.0000
  S   S8        1.0  0.51901  0.36497  0.79672  1.0000
  S   S9        1.0  0.35784  0.30015  0.82381  1.0000
  C   C29       1.0  0.34359  0.55737  0.70894  1.0000
  C   C30       1.0  0.62663  0.42959  0.76718  1.0000
  S   S10       1.0  0.51644  0.28833  0.67744  1.0000
  S   S11       1.0  0.59638  0.66676  0.78302  1.0000
  N   N3        1.0  0.23745  0.44073  0.76106  1.0000
  C   C31       1.0  0.42798  0.61266  0.80903  1.0000
  S   S12       1.0  0.19686  0.27148  0.80145  1.0000
  H   H30       1.0  0.42496  0.58079  0.80119  1.0000
  H   H31       1.0  0.21242  0.56488  0.70547  1.0000
  S   S13       1.0  0.45234  0.51877  0.61984  1.0000
  S   S14       1.0  0.61370  0.39144  0.80033  1.0000
  H   H32       1.0  0.51240  0.56915  0.68355  1.0000
  H   H33       1.0  0.53046  0.54087  0.82416  1.0000
  Fe  Fe4       1.0  0.50351  0.35691  0.71147  1.0000
  C   C32       1.0  0.59702  0.46655  0.73332  1.0000
  C   C33       1.0  0.20356  0.47772  0.77068  1.0000
  C   C34       1.0  0.25438  0.49235  0.71269  1.0000
  H   H34       1.0  0.54282  0.26024  0.78757  1.0000
  H   H35       1.0  0.30325  0.67024  0.70489  1.0000
  Fe  Fe5       1.0  0.46266  0.43286  0.78314  1.0000
  C   C35       1.0  0.37447  0.25509  0.67507  1.0000
  Fe  Fe6       1.0  0.47999  0.45924  0.68098  1.0000
  C   C36       1.0  0.40374  0.65359  0.77653  1.0000
  H   H36       1.0  0.49797  0.22074  0.76642  1.0000
  H   H37       1.0  0.63114  0.59523  0.59963  1.0000
  C   C37       1.0  0.21940  0.53010  0.72127  1.0000
  C   C38       1.0  0.56277  0.24841  0.71309  1.0000
  C   C39       1.0  0.60714  0.49857  0.70933  1.0000
  Fe  Fe7       1.0  0.33845  0.24319  0.80684  1.0000
  H   H38       1.0  0.27466  0.49767  0.69021  1.0000
  H   H39       1.0  0.18330  0.47230  0.79301  1.0000
  H   H40       1.0  0.56616  0.47117  0.72637  1.0000
  C   C40       1.0  0.20283  0.27617  0.64034  1.0000
  H   H41       1.0  0.25959  0.38936  0.82483  1.0000
  H   H42       1.0  0.34803  0.56860  0.67225  1.0000
  S   S15       1.0  0.53708  0.39433  0.68466  1.0000
  C   C41       1.0  0.63367  0.66307  0.65932  1.0000
  Fe  Fe8       1.0  0.26118  0.23225  0.79318  1.0000
  C   C42       1.0  0.36210  0.30269  0.67951  1.0000
  C   C43       1.0  0.34771  0.47713  0.60511  1.0000
  H   H43       1.0  0.40402  0.69650  0.65978  1.0000
  H   H44       1.0  0.62690  0.29740  0.68657  1.0000
  C   C44       1.0  0.63863  0.30774  0.65550  1.0000
  H   H45       1.0  0.63772  0.36895  0.69067  1.0000
  C   C45       1.0  0.64470  0.34823  0.65752  1.0000
  C   C46       1.0  0.62043  0.54341  0.82459  1.0000
  C   C47       1.0  0.57899  0.55728  0.81305  1.0000
  H   H46       1.0  0.64356  0.24906  0.61101  1.0000
  H   H47       1.0  0.62945  0.28743  0.81396  1.0000
  H   H48       1.0  0.18269  0.34171  0.67481  1.0000
  C   C48       1.0  0.64777  0.28074  0.61305  1.0000
  C   C49       1.0  0.56243  0.53098  0.83517  1.0000
  H   H49       1.0  0.15840  0.20254  0.64187  1.0000
  H   H50       1.0  0.60821  0.20393  0.83783  1.0000
  H   H51       1.0  0.32884  0.51259  0.83961  1.0000
  C   C50       1.0  0.48611  0.53210  0.59145  1.0000
  H   H52       1.0  0.33665  0.41460  0.92921  1.0000
  C   C51       1.0  0.45882  0.65455  0.86246  1.0000
  N   N4        1.0  0.30476  0.68582  0.94699  1.0000
  H   H53       1.0  0.30606  0.43617  0.97877  1.0000
  C   C52       1.0  0.22418  0.34766  0.91090  1.0000
  H   H54       1.0  0.29508  0.30620  0.04624  1.0000
  C   C53       1.0  0.43888  0.47061  0.99065  1.0000
  S   S16       1.0  0.31032  0.21756  0.86205  1.0000
  C   C54       1.0  0.31333  0.31120  0.02019  1.0000
  C   C55       1.0  0.56460  0.66348  0.92513  1.0000
  C   C56       1.0  0.22558  0.32094  0.86791  1.0000
  H   H55       1.0  0.18308  0.48399  0.05383  1.0000
  H   H56       1.0  0.34105  0.23890  0.00374  1.0000
  C   C57       1.0  0.64456  0.50465  0.85954  1.0000
  C   C58       1.0  0.42682  0.31873  0.06342  1.0000
  C   C59       1.0  0.21643  0.52384  0.94498  1.0000
  C   C60       1.0  0.31185  0.35534  0.01090  1.0000
  H   H57       1.0  0.41234  0.20611  0.85872  1.0000
  C   C61       1.0  0.17611  0.47605  0.09072  1.0000
  H   H58       1.0  0.53951  0.47097  0.87024  1.0000
  H   H59       1.0  0.56923  0.63351  0.95170  1.0000
  Fe  Fe9       1.0  0.54038  0.61117  0.06701  1.0000
  H   H60       1.0  0.24912  0.35593  0.92491  1.0000
  H   H61       1.0  0.39458  0.62669  0.90820  1.0000
  H   H62       1.0  0.45932  0.45808  0.96264  1.0000
  C   C62       1.0  0.28162  0.67003  0.91395  1.0000
  C   C63       1.0  0.37153  0.51230  0.00931  1.0000
  H   H63       1.0  0.46173  0.25655  0.02841  1.0000
  C   C64       1.0  0.33893  0.27352  0.99624  1.0000
  H   H64       1.0  0.63056  0.57614  0.03036  1.0000
  C   C65       1.0  0.20827  0.22960  0.98119  1.0000
  C   C66       1.0  0.44186  0.27099  0.05630  1.0000
  H   H65       1.0  0.59235  0.65466  0.90806  1.0000
  H   H66       1.0  0.59675  0.23806  0.07659  1.0000
  C   C67       1.0  0.17505  0.61028  0.88707  1.0000
  C   C68       1.0  0.34489  0.67041  0.94516  1.0000
  H   H67       1.0  0.58877  0.42892  0.89908  1.0000
  C   C69       1.0  0.47473  0.27706  0.85651  1.0000
  H   H68       1.0  0.37924  0.32976  0.92983  1.0000
  C   C70       1.0  0.33928  0.62325  0.87462  1.0000
  H   H69       1.0  0.43645  0.34044  0.04240  1.0000
  C   C71       1.0  0.45360  0.46151  0.04432  1.0000
  C   C72       1.0  0.33438  0.40774  0.97033  1.0000
  C   C73       1.0  0.15649  0.35684  0.91392  1.0000
  S   S17       1.0  0.45090  0.57722  0.03102  1.0000
  H   H70       1.0  0.64269  0.30890  0.87489  1.0000
  C   C74       1.0  0.42955  0.22590  0.85695  1.0000
  H   H71       1.0  0.49227  0.29686  0.85697  1.0000
  C   C75       1.0  0.36254  0.28038  0.96334  1.0000
  H   H72       1.0  0.38300  0.25125  0.94509  1.0000
  H   H73       1.0  0.48570  0.44197  0.05871  1.0000
  S   S18       1.0  0.54959  0.54155  0.03824  1.0000
  C   C76       1.0  0.43084  0.24228  0.08479  1.0000
  N   N5        1.0  0.58636  0.49281  0.86924  1.0000
  C   C77       1.0  0.45469  0.61358  0.85295  1.0000
  H   H74       1.0  0.18667  0.21035  0.04515  1.0000
  C   C78       1.0  0.18969  0.36529  0.93406  1.0000
  H   H75       1.0  0.48031  0.65501  0.89511  1.0000
  C   C79       1.0  0.56843  0.46682  0.89423  1.0000
  S   S19       1.0  0.48710  0.65110  0.00451  1.0000
  S   S20       1.0  0.26116  0.55405  0.01519  1.0000
  S   S21       1.0  0.21603  0.68099  0.06091  1.0000
  S   S22       1.0  0.48119  0.56422  0.89729  1.0000
  H   H76       1.0  0.23153  0.49077  0.96809  1.0000
  H   H77       1.0  0.35284  0.59919  0.84608  1.0000
  H   H78       1.0  0.21464  0.63151  0.93842  1.0000
  H   H79       1.0  0.64603  0.44946  0.90869  1.0000
  H   H80       1.0  0.53980  0.66910  0.89211  1.0000
  Fe  Fe10      1.0  0.49280  0.58148  0.98001  1.0000
  H   H81       1.0  0.29235  0.38430  0.03027  1.0000
  C   C80       1.0  0.64214  0.60154  0.04040  1.0000
  C   C81       1.0  0.20672  0.60323  0.92837  1.0000
  C   C82       1.0  0.49406  0.22903  0.87025  1.0000
  C   C83       1.0  0.36026  0.32496  0.95485  1.0000
  H   H82       1.0  0.24973  0.68232  0.91518  1.0000
  H   H83       1.0  0.29392  0.69750  0.02459  1.0000
  C   C84       1.0  0.36274  0.63885  0.90918  1.0000
  C   C85       1.0  0.39759  0.49597  0.97294  1.0000
  H   H84       1.0  0.33944  0.53183  0.99528  1.0000
  C   C86       1.0  0.16207  0.57530  0.87748  1.0000
  C   C87       1.0  0.29841  0.63887  0.87699  1.0000
  Fe  Fe11      1.0  0.22586  0.60646  0.06736  1.0000
  H   H85       1.0  0.23653  0.23683  0.91748  1.0000
  H   H86       1.0  0.56224  0.47986  0.93299  1.0000
  N   N6        1.0  0.38624  0.50374  0.06187  1.0000
  H   H87       1.0  0.36020  0.40920  0.99692  1.0000
  Fe  Fe12      1.0  0.44868  0.64449  0.05917  1.0000
  C   C88       1.0  0.22679  0.56031  0.95806  1.0000
  C   C89       1.0  0.62529  0.63435  0.07578  1.0000
  C   C90       1.0  0.62690  0.47989  0.88209  1.0000
  N   N7        1.0  0.33489  0.36180  0.97815  1.0000
  H   H88       1.0  0.38599  0.50279  0.93120  1.0000
  H   H89       1.0  0.27967  0.62725  0.85023  1.0000
  S   S23       1.0  0.16076  0.62410  0.06806  1.0000
  S   S24       1.0  0.18552  0.40281  0.98373  1.0000
  H   H90       1.0  0.15905  0.64375  0.86495  1.0000
  C   C91       1.0  0.18393  0.53145  0.90488  1.0000
  H   H91       1.0  0.61572  0.69743  0.96810  1.0000
  H   H92       1.0  0.17453  0.50395  0.89702  1.0000
  H   H93       1.0  0.18090  0.26139  0.96904  1.0000
  C   C92       1.0  0.15840  0.32915  0.87187  1.0000
  C   C93       1.0  0.42665  0.47815  0.07959  1.0000
  C   C94       1.0  0.47146  0.20354  0.87004  1.0000
  C   C95       1.0  0.23943  0.21593  0.95213  1.0000
  C   C96       1.0  0.19304  0.31074  0.84929  1.0000
  C   C97       1.0  0.41009  0.27367  0.84288  1.0000
  C   C98       1.0  0.43252  0.29957  0.84319  1.0000
  H   H94       1.0  0.36330  0.68273  0.97139  1.0000
  C   C99       1.0  0.64146  0.66586  0.09018  1.0000
  Fe  Fe13      1.0  0.15212  0.69816  0.06874  1.0000
  H   H95       1.0  0.63932  0.25406  0.87439  1.0000
  H   H96       1.0  0.25165  0.30858  0.84896  1.0000
  C   C100      1.0  0.64870  0.27717  0.85335  1.0000
  Fe  Fe14      1.0  0.50710  0.54267  0.09103  1.0000
  H   H97       1.0  0.33605  0.55763  0.08754  1.0000
  H   H98       1.0  0.64716  0.55258  0.18767  1.0000
  C   C101      1.0  0.21500  0.51622  0.21198  1.0000
  C   C102      1.0  0.59924  0.69862  0.21769  1.0000
  H   H99       1.0  0.39351  0.24030  0.13967  1.0000
  C   C103      1.0  0.40282  0.26201  0.11818  1.0000
  H   H100      1.0  0.37251  0.24920  0.27909  1.0000
  H   H101      1.0  0.62092  0.49284  0.17545  1.0000
  H   H102      1.0  0.34116  0.49932  0.09938  1.0000
  S   S25       1.0  0.28722  0.41092  0.31841  1.0000
  N   N8        1.0  0.36492  0.69900  0.31370  1.0000
  C   C104      1.0  0.57349  0.32436  0.24504  1.0000
  S   S26       1.0  0.62443  0.41490  0.30117  1.0000
  S   S27       1.0  0.15151  0.24868  0.26569  1.0000
  C   C105      1.0  0.61585  0.24261  0.10965  1.0000
  Fe  Fe15      1.0  0.17406  0.22618  0.19090  1.0000
  H   H103      1.0  0.54049  0.57253  0.23168  1.0000
  S   S28       1.0  0.16383  0.69742  0.15575  1.0000
  Fe  Fe16      1.0  0.16618  0.30921  0.25389  1.0000
  C   C106      1.0  0.49938  0.47259  0.23984  1.0000
  Fe  Fe17      1.0  0.43199  0.36130  0.30806  1.0000
  C   C107      1.0  0.54433  0.27187  0.26041  1.0000
  H   H104      1.0  0.30563  0.27816  0.30544  1.0000
  S   S29       1.0  0.38328  0.35107  0.25506  1.0000
  C   C108      1.0  0.20082  0.43356  0.11978  1.0000
  Fe  Fe18      1.0  0.34082  0.41248  0.29050  1.0000
  H   H105      1.0  0.42831  0.25902  0.33590  1.0000
  H   H106      1.0  0.47830  0.26116  0.24065  1.0000
  C   C109      1.0  0.18296  0.54176  0.23747  1.0000
  H   H107      1.0  0.38316  0.63122  0.10546  1.0000
  H   H108      1.0  0.22845  0.62825  0.26348  1.0000
  C   C110      1.0  0.36022  0.66314  0.11589  1.0000
  H   H109      1.0  0.45240  0.30937  0.19341  1.0000
  C   C111      1.0  0.21118  0.48173  0.30927  1.0000
  C   C112      1.0  0.28241  0.57670  0.31112  1.0000
  Fe  Fe19      1.0  0.17638  0.62224  0.15506  1.0000
  C   C113      1.0  0.64466  0.20388  0.14187  1.0000
  H   H110      1.0  0.37400  0.51932  0.13946  1.0000
  H   H111      1.0  0.59038  0.31718  0.09402  1.0000
  N   N9        1.0  0.51389  0.29391  0.21900  1.0000
  C   C114      1.0  0.51358  0.32948  0.18884  1.0000
  S   S30       1.0  0.33894  0.46500  0.23044  1.0000
  H   H112      1.0  0.23075  0.35047  0.17215  1.0000
  C   C115      1.0  0.36754  0.26593  0.31537  1.0000
  H   H113      1.0  0.59160  0.54278  0.26523  1.0000
  H   H114      1.0  0.20476  0.37031  0.22629  1.0000
  H   H115      1.0  0.52676  0.44045  0.24785  1.0000
  Fe  Fe20      1.0  0.38453  0.40357  0.19852  1.0000
  H   H116      1.0  0.54284  0.37426  0.17839  1.0000
  C   C116      1.0  0.63769  0.29360  0.16151  1.0000
  H   H117      1.0  0.62831  0.69181  0.11677  1.0000
  H   H118      1.0  0.59849  0.62128  0.26656  1.0000
  H   H119      1.0  0.15500  0.44846  0.22431  1.0000
  C   C117      1.0  0.38766  0.30979  0.12521  1.0000
  N   N10       1.0  0.54708  0.54607  0.30990  1.0000
  H   H120      1.0  0.39982  0.58609  0.20968  1.0000
  C   C118      1.0  0.61252  0.28736  0.11929  1.0000
  S   S31       1.0  0.52269  0.48243  0.14798  1.0000
  C   C119      1.0  0.43549  0.52529  0.26280  1.0000
  H   H121      1.0  0.43833  0.47047  0.12120  1.0000
  H   H122      1.0  0.18307  0.62124  0.31937  1.0000
  C   C120      1.0  0.21530  0.59989  0.32991  1.0000
  H   H123      1.0  0.59809  0.27015  0.30758  1.0000
  S   S32       1.0  0.39664  0.53270  0.29685  1.0000
  C   C121      1.0  0.33139  0.66168  0.14412  1.0000
  C   C122      1.0  0.47183  0.48503  0.27442  1.0000
  H   H124      1.0  0.34515  0.65202  0.27396  1.0000
  Fe  Fe21      1.0  0.39103  0.46607  0.28509  1.0000
  H   H125      1.0  0.21606  0.52866  0.17374  1.0000
  H   H126      1.0  0.46271  0.67667  0.18751  1.0000
  H   H127      1.0  0.24656  0.38318  0.21962  1.0000
  H   H128      1.0  0.48821  0.25477  0.17435  1.0000
  C   C123      1.0  0.21997  0.37975  0.19765  1.0000
  C   C124      1.0  0.49071  0.50082  0.19403  1.0000
  S   S33       1.0  0.43685  0.40858  0.24841  1.0000
  H   H129      1.0  0.48515  0.58432  0.27531  1.0000
  C   C125      1.0  0.35591  0.66153  0.31136  1.0000
  H   H130      1.0  0.26974  0.45390  0.21523  1.0000
  C   C126      1.0  0.35813  0.52084  0.09901  1.0000
  H   H131      1.0  0.44890  0.56476  0.14889  1.0000
  H   H132      1.0  0.22669  0.40879  0.10464  1.0000
  C   C127      1.0  0.48173  0.27888  0.20605  1.0000
  C   C128      1.0  0.24558  0.47415  0.23565  1.0000
  H   H133      1.0  0.54454  0.24368  0.28426  1.0000
  H   H134      1.0  0.30259  0.57918  0.28646  1.0000
  H   H135      1.0  0.56358  0.50998  0.24285  1.0000
  H   H136      1.0  0.33218  0.62856  0.15579  1.0000
  C   C129      1.0  0.42794  0.55501  0.21867  1.0000
  C   C130      1.0  0.17996  0.52363  0.28500  1.0000
  H   H137      1.0  0.59624  0.33691  0.25603  1.0000
  H   H138      1.0  0.15448  0.54281  0.30403  1.0000
  H   H139      1.0  0.54598  0.65260  0.27215  1.0000
  C   C131      1.0  0.24478  0.45821  0.28538  1.0000
  S   S34       1.0  0.22952  0.27278  0.29816  1.0000
  Fe  Fe22      1.0  0.24696  0.24772  0.22133  1.0000
  C   C132      1.0  0.24090  0.60405  0.29809  1.0000
  H   H140      1.0  0.36637  0.32465  0.15146  1.0000
  C   C133      1.0  0.57467  0.28667  0.27390  1.0000
  N   N11       1.0  0.19259  0.42353  0.16666  1.0000
  C   C134      1.0  0.32974  0.28234  0.33058  1.0000
  C   C135      1.0  0.45564  0.54276  0.18420  1.0000
  H   H141      1.0  0.48992  0.34609  0.15519  1.0000
  S   S35       1.0  0.24273  0.59781  0.15484  1.0000
  Fe  Fe23      1.0  0.21672  0.21016  0.30269  1.0000
  S   S36       1.0  0.50142  0.60943  0.12345  1.0000
  C   C136      1.0  0.40053  0.33790  0.09891  1.0000
  S   S37       1.0  0.30090  0.24714  0.19288  1.0000
  H   H142      1.0  0.47778  0.46223  0.30886  1.0000
  H   H143      1.0  0.50603  0.37398  0.32431  1.0000
  C   C137      1.0  0.56143  0.54274  0.25995  1.0000
  S   S38       1.0  0.63213  0.35016  0.17353  1.0000
  S   S39       1.0  0.18492  0.28869  0.17648  1.0000
  Fe  Fe24      1.0  0.22859  0.67348  0.14859  1.0000
  C   C138      1.0  0.54313  0.34564  0.20177  1.0000
  H   H144      1.0  0.55965  0.64381  0.20856  1.0000
  S   S40       1.0  0.46253  0.68687  0.29600  1.0000
  C   C139      1.0  0.56935  0.65065  0.24910  1.0000
  H   H145      1.0  0.61615  0.67003  0.19584  1.0000
  C   C140      1.0  0.16031  0.45527  0.18601  1.0000
  S   S41       1.0  0.38621  0.39613  0.11273  1.0000
  C   C141      1.0  0.64794  0.48848  0.16072  1.0000
  S   S42       1.0  0.58551  0.63592  0.10517  1.0000
  C   C142      1.0  0.50660  0.56771  0.31089  1.0000
  H   H146      1.0  0.33167  0.22516  0.09710  1.0000
  N   N12       1.0  0.57410  0.69401  0.24809  1.0000
  H   H147      1.0  0.65073  0.57961  0.51270  1.0000
  H   H148      1.0  0.34721  0.45621  0.45796  1.0000
  C   C143      1.0  0.46507  0.45420  0.49281  1.0000
  C   C144      1.0  0.28341  0.31995  0.39134  1.0000
  H   H149      1.0  0.35347  0.60514  0.35541  1.0000
  H   H150      1.0  0.21246  0.52756  0.41807  1.0000
  H   H151      1.0  0.50878  0.54887  0.44051  1.0000
  H   H152      1.0  0.50068  0.20861  0.57443  1.0000
  C   C145      1.0  0.33304  0.44632  0.58337  1.0000
  Fe  Fe25      1.0  0.29570  0.70060  0.54333  1.0000
  H   H153      1.0  0.46000  0.58636  0.35812  1.0000
  H   H154      1.0  0.20999  0.46868  0.34725  1.0000
  C   C146      1.0  0.44856  0.41064  0.55651  1.0000
  S   S43       1.0  0.55976  0.65043  0.39789  1.0000
  Fe  Fe26      1.0  0.17608  0.45931  0.50860  1.0000
  H   H155      1.0  0.21871  0.21525  0.46044  1.0000
  H   H156      1.0  0.39278  0.69566  0.44454  1.0000
  C   C147      1.0  0.30811  0.29400  0.54530  1.0000
  C   C148      1.0  0.39879  0.27156  0.34710  1.0000
  H   H157      1.0  0.17809  0.65863  0.52234  1.0000
  Fe  Fe27      1.0  0.49433  0.69747  0.37168  1.0000
  C   C149      1.0  0.53929  0.55776  0.54898  1.0000
  C   C150      1.0  0.36055  0.63487  0.35710  1.0000
  C   C151      1.0  0.34740  0.46203  0.49899  1.0000
  C   C152      1.0  0.44403  0.37144  0.57265  1.0000
  C   C153      1.0  0.33346  0.43801  0.53043  1.0000
  C   C154      1.0  0.47160  0.57486  0.56246  1.0000
  H   H158      1.0  0.45134  0.48372  0.51706  1.0000
  H   H159      1.0  0.17054  0.35801  0.35513  1.0000
  C   C155      1.0  0.38275  0.68551  0.40729  1.0000
  Fe  Fe28      1.0  0.25449  0.42142  0.58797  1.0000
  Fe  Fe29      1.0  0.23817  0.66533  0.48354  1.0000
  H   H160      1.0  0.37882  0.62565  0.44077  1.0000
  H   H161      1.0  0.55119  0.25924  0.44104  1.0000
  S   S44       1.0  0.63289  0.34506  0.43842  1.0000
  C   C156      1.0  0.51946  0.54800  0.40379  1.0000
  S   S45       1.0  0.29303  0.67013  0.46570  1.0000
  C   C157      1.0  0.49830  0.58805  0.54232  1.0000
  H   H162      1.0  0.36903  0.52812  0.59011  1.0000
  C   C158      1.0  0.57407  0.52525  0.35485  1.0000
  H   H163      1.0  0.28343  0.51965  0.42233  1.0000
  C   C159      1.0  0.52484  0.31530  0.38022  1.0000
  S   S46       1.0  0.23844  0.40534  0.50644  1.0000
  H   H164      1.0  0.43981  0.59846  0.55701  1.0000
  H   H165      1.0  0.27621  0.29002  0.39740  1.0000
  C   C160      1.0  0.52837  0.35272  0.35677  1.0000
  H   H166      1.0  0.44184  0.43945  0.58124  1.0000
  N   N13       1.0  0.23062  0.56903  0.37332  1.0000
  H   H167      1.0  0.44995  0.30333  0.55405  1.0000
  H   H168      1.0  0.56488  0.39006  0.35511  1.0000
  C   C161      1.0  0.29041  0.26805  0.51779  1.0000
  S   S47       1.0  0.57258  0.57304  0.52147  1.0000
  C   C162      1.0  0.35366  0.30981  0.40711  1.0000
  C   C163      1.0  0.37183  0.24637  0.52035  1.0000
  H   H169      1.0  0.17191  0.57977  0.38608  1.0000
  S   S48       1.0  0.33440  0.63175  0.58877  1.0000
  C   C164      1.0  0.35981  0.50248  0.57340  1.0000
  C   C165      1.0  0.39184  0.29374  0.39311  1.0000
  H   H170      1.0  0.41601  0.29809  0.41795  1.0000
  S   S49       1.0  0.36577  0.53531  0.48011  1.0000
  C   C166      1.0  0.59084  0.33452  0.41653  1.0000
  S   S50       1.0  0.19372  0.48096  0.58722  1.0000
  H   H171      1.0  0.63046  0.64573  0.37672  1.0000
  H   H172      1.0  0.63918  0.20125  0.37983  1.0000
  H   H173      1.0  0.20517  0.58345  0.44237  1.0000
  C   C167      1.0  0.35497  0.21912  0.49351  1.0000
  C   C168      1.0  0.20370  0.56482  0.40664  1.0000
  Fe  Fe30      1.0  0.54317  0.64251  0.47531  1.0000
  H   H174      1.0  0.49755  0.44571  0.49599  1.0000
  S   S51       1.0  0.38938  0.41903  0.34791  1.0000
  H   H175      1.0  0.25999  0.34554  0.36057  1.0000
  H   H176      1.0  0.60858  0.27766  0.47464  1.0000
  H   H177      1.0  0.48703  0.62184  0.52229  1.0000
  H   H178      1.0  0.60621  0.50805  0.35419  1.0000
  H   H179      1.0  0.44931  0.46668  0.45186  1.0000
  S   S52       1.0  0.18492  0.68390  0.41991  1.0000
  H   H180      1.0  0.47799  0.37879  0.44140  1.0000
  C   C169      1.0  0.46875  0.37672  0.47852  1.0000
  S   S53       1.0  0.27057  0.59509  0.52615  1.0000
  C   C170      1.0  0.34838  0.28377  0.54599  1.0000
  H   H181      1.0  0.36118  0.30532  0.56606  1.0000
  H   H182      1.0  0.17642  0.40580  0.42801  1.0000
  S   S54       1.0  0.42137  0.23675  0.52003  1.0000
  C   C171      1.0  0.49216  0.56909  0.35776  1.0000
  S   S55       1.0  0.23833  0.28632  0.51342  1.0000
  H   H183      1.0  0.28201  0.33750  0.42835  1.0000
  C   C172      1.0  0.31392  0.23035  0.49167  1.0000
  H   H184      1.0  0.29094  0.32266  0.56573  1.0000
  H   H185      1.0  0.58219  0.50955  0.43808  1.0000
  C   C173      1.0  0.56184  0.36170  0.37411  1.0000
  C   C174      1.0  0.37463  0.64658  0.40520  1.0000
  H   H186      1.0  0.32284  0.41341  0.51376  1.0000
  S   S56       1.0  0.47708  0.68421  0.44628  1.0000
  H   H187      1.0  0.47284  0.30741  0.46961  1.0000
  Fe  Fe31      1.0  0.32629  0.60095  0.51220  1.0000
  H   H188      1.0  0.34863  0.32695  0.44305  1.0000
  C   C175      1.0  0.58650  0.29826  0.44135  1.0000
  C   C176      1.0  0.35906  0.49568  0.52020  1.0000
  H   H189      1.0  0.30054  0.21037  0.46939  1.0000
  C   C177      1.0  0.46554  0.33647  0.49408  1.0000
  N   N14       1.0  0.32325  0.30370  0.37611  1.0000
  N   N15       1.0  0.46027  0.41313  0.50961  1.0000
  C   C178      1.0  0.45287  0.33406  0.54138  1.0000
  C   C179      1.0  0.55401  0.28798  0.42248  1.0000
  C   C180      1.0  0.56069  0.52589  0.40241  1.0000
  C   C181      1.0  0.64670  0.66132  0.35936  1.0000
  Fe  Fe32      1.0  0.21872  0.35692  0.54375  1.0000
  C   C182      1.0  0.27134  0.54303  0.38715  1.0000
  S   S57       1.0  0.48385  0.30269  0.35806  1.0000
  S   S58       1.0  0.15507  0.40977  0.54050  1.0000
  C   C183      1.0  0.64228  0.61735  0.58219  1.0000
  C   C184      1.0  0.15634  0.42260  0.39192  1.0000
  C   C185      1.0  0.15296  0.39542  0.35062  1.0000
  H   H190      1.0  0.16137  0.21481  0.40871  1.0000
  C   C186      1.0  0.55372  0.51445  0.57702  1.0000
  S   S59       1.0  0.23779  0.70097  0.55758  1.0000
  H   H191      1.0  0.33015  0.52546  0.36743  1.0000
  C   C187      1.0  0.29785  0.54627  0.35624  1.0000
  H   H192      1.0  0.58545  0.49102  0.58225  1.0000
  C   C188      1.0  0.63267  0.19320  0.71629  1.0000
  H   H193      1.0  0.64545  0.77918  0.69417  1.0000
  H   H194      1.0  0.46115  0.04568  0.68573  1.0000
  S   S60       1.0  0.28879  0.16060  0.76609  1.0000
  C   C189      1.0  0.43919  0.05251  0.60289  1.0000
  C   C190      1.0  0.49921  0.76829  0.82773  1.0000
  H   H195      1.0  0.46758  0.77707  0.82345  1.0000
  S   S61       1.0  0.40360  0.85331  0.76813  1.0000
  Fe  Fe33      1.0  0.34655  0.91533  0.77480  1.0000
  C   C191      1.0  0.43659  0.06505  0.65424  1.0000
  H   H196      1.0  0.63681  0.11892  0.63873  1.0000
  Fe  Fe34      1.0  0.37342  0.80997  0.79026  1.0000
  H   H197      1.0  0.31059  0.89123  0.67409  1.0000
  S   S62       1.0  0.37398  0.17146  0.78249  1.0000
  C   C192      1.0  0.36928  0.12664  0.62428  1.0000
  H   H198      1.0  0.64988  0.08014  0.82268  1.0000
  C   C193      1.0  0.27043  0.06189  0.68670  1.0000
  Fe  Fe35      1.0  0.32069  0.18815  0.71928  1.0000
  H   H199      1.0  0.18246  0.01922  0.70245  1.0000
  Fe  Fe36      1.0  0.34031  0.14747  0.83149  1.0000
  C   C194      1.0  0.63736  0.18567  0.77061  1.0000
  H   H200      1.0  0.57458  0.17676  0.59847  1.0000
  H   H201      1.0  0.41580  0.99552  0.83558  1.0000
  Fe  Fe37      1.0  0.57305  0.91143  0.75125  1.0000
  H   H202      1.0  0.51130  0.70976  0.78094  1.0000
  C   C195      1.0  0.62423  0.09812  0.65771  1.0000
  C   C196      1.0  0.45764  0.94106  0.79723  1.0000
  C   C197      1.0  0.21554  0.79648  0.62959  1.0000
  C   C198      1.0  0.28344  0.89176  0.64878  1.0000
  C   C199      1.0  0.36444  0.05105  0.75518  1.0000
  C   C200      1.0  0.21592  0.10337  0.73430  1.0000
  S   S63       1.0  0.55518  0.89357  0.67049  1.0000
  N   N16       1.0  0.24904  0.73233  0.69535  1.0000
  H   H203      1.0  0.42399  0.18725  0.68935  1.0000
  N   N17       1.0  0.24830  0.91299  0.67489  1.0000
  C   C201      1.0  0.56563  0.71670  0.81104  1.0000
  S   S64       1.0  0.31447  0.87208  0.78926  1.0000
  S   S65       1.0  0.64869  0.00440  0.75096  1.0000
  H   H204      1.0  0.37459  0.07633  0.77368  1.0000
  S   S66       1.0  0.54936  0.98764  0.72960  1.0000
  H   H205      1.0  0.48679  0.17323  0.74778  1.0000
  H   H206      1.0  0.15159  0.81891  0.60580  1.0000
  H   H207      1.0  0.62144  0.95637  0.81752  1.0000
  H   H208      1.0  0.57849  0.05679  0.67664  1.0000
  H   H209      1.0  0.40637  0.76860  0.64933  1.0000
  H   H210      1.0  0.44263  0.76688  0.70478  1.0000
  H   H211      1.0  0.20234  0.99156  0.81904  1.0000
  C   C202      1.0  0.42329  0.98261  0.79821  1.0000
  N   N18       1.0  0.58068  0.11551  0.64018  1.0000
  C   C203      1.0  0.52412  0.72997  0.80371  1.0000
  Fe  Fe38      1.0  0.61151  0.96916  0.71381  1.0000
  Fe  Fe39      1.0  0.61605  0.88370  0.65586  1.0000
  C   C204      1.0  0.22933  0.06331  0.76821  1.0000
  H   H212      1.0  0.27909  0.76585  0.66047  1.0000
  C   C205      1.0  0.17894  0.79450  0.63083  1.0000
  H   H213      1.0  0.22648  0.13308  0.66697  1.0000
  H   H214      1.0  0.38956  0.00987  0.66920  1.0000
  C   C206      1.0  0.17786  0.76054  0.66390  1.0000
  H   H215      1.0  0.50469  0.08578  0.64987  1.0000
  H   H216      1.0  0.34655  0.06660  0.71587  1.0000
  C   C207      1.0  0.19894  0.90597  0.71955  1.0000
  S   S67       1.0  0.37453  0.74726  0.74930  1.0000
  C   C208      1.0  0.23108  0.96012  0.67840  1.0000
  H   H217      1.0  0.27398  0.99239  0.78892  1.0000
  C   C209      1.0  0.21345  0.72943  0.69598  1.0000
  C   C210      1.0  0.19687  0.98151  0.70170  1.0000
  C   C211      1.0  0.40151  0.10210  0.66493  1.0000
  C   C212      1.0  0.51967  0.10668  0.64002  1.0000
  S   S68       1.0  0.63590  0.89326  0.73850  1.0000
  H   H218      1.0  0.49403  0.89196  0.74850  1.0000
  H   H219      1.0  0.28638  0.06110  0.65511  1.0000
  C   C213      1.0  0.18049  0.95416  0.72166  1.0000
  H   H220      1.0  0.24285  0.98170  0.66129  1.0000
  N   N19       1.0  0.45909  0.70372  0.66801  1.0000
  C   C214      1.0  0.55931  0.15726  0.61116  1.0000
  H   H221      1.0  0.30595  0.71630  0.74321  1.0000
  H   H222      1.0  0.27827  0.91223  0.61137  1.0000
  C   C215      1.0  0.56145  0.09016  0.65440  1.0000
  H   H223      1.0  0.18614  0.88458  0.73478  1.0000
  H   H224      1.0  0.47690  0.92202  0.83331  1.0000
  S   S69       1.0  0.21164  0.75737  0.82301  1.0000
  C   C216      1.0  0.26365  0.02301  0.76223  1.0000
  C   C217      1.0  0.44288  0.94930  0.70298  1.0000
  C   C218      1.0  0.25055  0.76474  0.66212  1.0000
  S   S70       1.0  0.32449  0.17214  0.63616  1.0000
  H   H225      1.0  0.15331  0.97021  0.73824  1.0000
  N   N20       1.0  0.39940  0.00688  0.75263  1.0000
  H   H226      1.0  0.24801  0.84838  0.69583  1.0000
  S   S71       1.0  0.56300  0.88845  0.82722  1.0000
  S   S72       1.0  0.59641  0.95846  0.62949  1.0000
  H   H227      1.0  0.34419  0.04556  0.77903  1.0000
  Fe  Fe40      1.0  0.53635  0.96906  0.64811  1.0000
  C   C219      1.0  0.49750  0.14987  0.61181  1.0000
  H   H228      1.0  0.45238  0.76978  0.63871  1.0000
  H   H229      1.0  0.63998  0.06156  0.64784  1.0000
  C   C220      1.0  0.46738  0.92427  0.74935  1.0000
  H   H230      1.0  0.39932  0.11112  0.70456  1.0000
  H   H231      1.0  0.21330  0.06318  0.79896  1.0000
  H   H232      1.0  0.28959  0.85547  0.63949  1.0000
  S   S73       1.0  0.17367  0.15480  0.74220  1.0000
  H   H233      1.0  0.46506  0.16295  0.60016  1.0000
  C   C221      1.0  0.28397  0.02234  0.72113  1.0000
  S   S74       1.0  0.32518  0.97171  0.71032  1.0000
  C   C222      1.0  0.40866  0.99074  0.70537  1.0000
  H   H234      1.0  0.63090  0.09942  0.70077  1.0000
  C   C223      1.0  0.23661  0.10241  0.69338  1.0000
  H   H235      1.0  0.45035  0.93692  0.66543  1.0000
  H   H236      1.0  0.21689  0.82194  0.60295  1.0000
  C   C224      1.0  0.23338  0.88580  0.69645  1.0000
  C   C225      1.0  0.43919  0.75477  0.66506  1.0000
  H   H237      1.0  0.43913  0.72618  0.83675  1.0000
  H   H238      1.0  0.29079  0.75178  0.82365  1.0000
  C   C226      1.0  0.51743  0.17529  0.59704  1.0000
  H   H239      1.0  0.54358  0.98670  0.84016  1.0000
  H   H240      1.0  0.21244  0.70300  0.72148  1.0000
  H   H241      1.0  0.28824  0.09968  0.83941  1.0000
  H   H242      1.0  0.28311  0.11716  0.59280  1.0000
  S   S75       1.0  0.36481  0.92154  0.85997  1.0000
  H   H243      1.0  0.22550  0.86529  0.94902  1.0000
  Fe  Fe41      1.0  0.51211  0.15517  0.05196  1.0000
  C   C227      1.0  0.37361  0.87547  0.01809  1.0000
  N   N21       1.0  0.34460  0.88712  0.05405  1.0000
  C   C228      1.0  0.21167  0.20048  0.02403  1.0000
  C   C229      1.0  0.24005  0.84015  0.92221  1.0000
  Fe  Fe42      1.0  0.57921  0.06671  0.02243  1.0000
  C   C230      1.0  0.57721  0.75474  0.00626  1.0000
  S   S76       1.0  0.23329  0.04999  0.97266  1.0000
  H   H244      1.0  0.54985  0.94610  0.05120  1.0000
  N   N22       1.0  0.55512  0.70516  0.95429  1.0000
  C   C231      1.0  0.27604  0.14602  0.00950  1.0000
  S   S77       1.0  0.45257  0.18175  0.08016  1.0000
  H   H245      1.0  0.22717  0.93058  0.84356  1.0000
  S   S78       1.0  0.52040  0.11903  0.97792  1.0000
  C   C232      1.0  0.50408  0.92572  0.97398  1.0000
  H   H246      1.0  0.16821  0.84748  0.04056  1.0000
  H   H247      1.0  0.25395  0.73719  0.97507  1.0000
  H   H248      1.0  0.30229  0.11310  0.01963  1.0000
  H   H249      1.0  0.18212  0.97383  0.01864  1.0000
  H   H250      1.0  0.29736  0.16197  0.94301  1.0000
  H   H251      1.0  0.50594  0.93021  0.93218  1.0000
  C   C233      1.0  0.22135  0.81341  0.89834  1.0000
  H   H252      1.0  0.24227  0.97286  0.87392  1.0000
  C   C234      1.0  0.28720  0.71755  0.98643  1.0000
  S   S79       1.0  0.29582  0.87578  0.92979  1.0000
  H   H253      1.0  0.46382  0.08611  0.06412  1.0000
  H   H254      1.0  0.63225  0.01088  0.91011  1.0000
  H   H255      1.0  0.53351  0.89805  0.99360  1.0000
  C   C235      1.0  0.17192  0.97770  0.97677  1.0000
  H   H256      1.0  0.56934  0.80098  0.88965  1.0000
  C   C236      1.0  0.33405  0.06582  0.90684  1.0000
  C   C237      1.0  0.51660  0.73036  0.96302  1.0000
  H   H257      1.0  0.37266  0.02796  0.97847  1.0000
  C   C238      1.0  0.55682  0.78112  0.86564  1.0000
  H   H258      1.0  0.19282  0.81731  0.90778  1.0000
  S   S80       1.0  0.17971  0.16905  0.89352  1.0000
  C   C239      1.0  0.24857  0.12839  0.08180  1.0000
  C   C240      1.0  0.59083  0.96305  0.96740  1.0000
  C   C241      1.0  0.58522  0.71707  0.97523  1.0000
  Fe  Fe43      1.0  0.55506  0.15979  0.96389  1.0000
  C   C242      1.0  0.27634  0.83609  0.90895  1.0000
  C   C243      1.0  0.31034  0.92823  0.04572  1.0000
  S   S81       1.0  0.60375  0.98881  0.02273  1.0000
  Fe  Fe44      1.0  0.17641  0.10520  0.92469  1.0000
  H   H259      1.0  0.29977  0.74369  0.99131  1.0000
  S   S82       1.0  0.39431  0.80839  0.87634  1.0000
  C   C244      1.0  0.21601  0.96709  0.85465  1.0000
  C   C245      1.0  0.56020  0.96658  0.87664  1.0000
  H   H260      1.0  0.23806  0.10222  0.06671  1.0000
  S   S83       1.0  0.48362  0.84201  0.88849  1.0000
  H   H261      1.0  0.25669  0.97380  0.07486  1.0000
  H   H262      1.0  0.38496  0.83800  0.01049  1.0000
  H   H263      1.0  0.61393  0.73226  0.84816  1.0000
  S   S84       1.0  0.36975  0.08173  0.88597  1.0000
  H   H264      1.0  0.47731  0.78675  0.00280  1.0000
  H   H265      1.0  0.23096  0.95890  0.95889  1.0000
  C   C246      1.0  0.23883  0.78288  0.86117  1.0000
  H   H266      1.0  0.23618  0.08568  0.87322  1.0000
  C   C247      1.0  0.31282  0.03277  0.97455  1.0000
  H   H267      1.0  0.15503  0.92677  0.06785  1.0000
  H   H268      1.0  0.55889  0.02646  0.91702  1.0000
  H   H269      1.0  0.43649  0.00322  0.94880  1.0000
  H   H270      1.0  0.53141  0.80834  0.04165  1.0000
  S   S85       1.0  0.54289  0.19946  0.03499  1.0000
  H   H271      1.0  0.48068  0.91315  0.97634  1.0000
  H   H272      1.0  0.41647  0.07746  0.99119  1.0000
  H   H273      1.0  0.17211  0.05616  0.04572  1.0000
  Fe  Fe45      1.0  0.59997  0.14120  0.07540  1.0000
  H   H274      1.0  0.32377  0.79812  0.86572  1.0000
  C   C248      1.0  0.53827  0.77954  0.01690  1.0000
  S   S86       1.0  0.54625  0.20032  0.88905  1.0000
  C   C249      1.0  0.27668  0.77596  0.85143  1.0000
  C   C250      1.0  0.27362  0.05084  0.94580  1.0000
  C   C251      1.0  0.47253  0.05362  0.04542  1.0000
  C   C252      1.0  0.59252  0.89296  0.92892  1.0000
  H   H275      1.0  0.30317  0.95118  0.01090  1.0000
  C   C253      1.0  0.56879  0.98914  0.92020  1.0000
  Fe  Fe46      1.0  0.42024  0.85618  0.85431  1.0000
  C   C254      1.0  0.34309  0.03997  0.95484  1.0000
  H   H276      1.0  0.31932  0.01611  0.01343  1.0000
  C   C255      1.0  0.44596  0.04885  0.00429  1.0000
  C   C256      1.0  0.51020  0.01644  0.06214  1.0000
  N   N23       1.0  0.18677  0.97544  0.88975  1.0000
  H   H277      1.0  0.60139  0.76382  0.02244  1.0000
  N   N24       1.0  0.49394  0.97007  0.99807  1.0000
  H   H278      1.0  0.49234  0.72228  0.94480  1.0000
  C   C257      1.0  0.19945  0.96941  0.94271  1.0000
  H   H279      1.0  0.60083  0.85608  0.93331  1.0000
  H   H280      1.0  0.15710  0.13971  0.04558  1.0000
  S   S87       1.0  0.61458  0.10472  0.00287  1.0000
  C   C258      1.0  0.60258  0.91502  0.97149  1.0000
  C   C259      1.0  0.28377  0.94102  0.08160  1.0000
  C   C260      1.0  0.51533  0.79430  0.85825  1.0000
  N   N25       1.0  0.24564  0.15961  0.03812  1.0000
  H   H281      1.0  0.36013  0.15082  0.05507  1.0000
  C   C261      1.0  0.63336  0.08205  0.85544  1.0000
  C   C262      1.0  0.50774  0.76731  0.99519  1.0000
  H   H282      1.0  0.35978  0.89614  0.97981  1.0000
  Fe  Fe47      1.0  0.33709  0.87288  0.87417  1.0000
  H   H283      1.0  0.39938  0.88274  0.03531  1.0000
  C   C263      1.0  0.52047  0.97469  0.03786  1.0000
  C   C264      1.0  0.45733  0.00668  0.98070  1.0000
  H   H284      1.0  0.61939  0.89471  0.00786  1.0000
  C   C265      1.0  0.27350  0.17385  0.96621  1.0000
  C   C266      1.0  0.26575  0.07325  0.89636  1.0000
  H   H285      1.0  0.62807  0.80473  0.86618  1.0000
  C   C267      1.0  0.29529  0.80266  0.87515  1.0000
  C   C268      1.0  0.57256  0.91823  0.88081  1.0000
  C   C269      1.0  0.29556  0.08118  0.87712  1.0000
  S   S88       1.0  0.39294  0.70985  0.06347  1.0000
  C   C270      1.0  0.16057  0.12034  0.08161  1.0000
  H   H286      1.0  0.61749  0.11912  0.86384  1.0000
  H   H287      1.0  0.48632  0.16632  0.87926  1.0000
  C   C271      1.0  0.16946  0.07299  0.08195  1.0000
  S   S89       1.0  0.37368  0.05827  0.08668  1.0000
  H   H288      1.0  0.58910  0.81351  0.08875  1.0000
  C   C272      1.0  0.58202  0.74219  0.84225  1.0000
  H   H289      1.0  0.61033  0.06911  0.84209  1.0000
  H   H290      1.0  0.36173  0.01715  0.28825  1.0000
  C   C273      1.0  0.45843  0.78405  0.16361  1.0000
  H   H291      1.0  0.21496  0.77384  0.29844  1.0000
  S   S90       1.0  0.21084  0.88016  0.22238  1.0000
  C   C274      1.0  0.46203  0.73931  0.15437  1.0000
  C   C275      1.0  0.17482  0.04767  0.12884  1.0000
  C   C276      1.0  0.17175  0.06987  0.17562  1.0000
  C   C277      1.0  0.30209  0.70308  0.15827  1.0000
  H   H292      1.0  0.54325  0.79794  0.30101  1.0000
  H   H293      1.0  0.23026  0.14804  0.11103  1.0000
  H   H294      1.0  0.42551  0.16040  0.17706  1.0000
  H   H295      1.0  0.37478  0.12017  0.33779  1.0000
  C   C278      1.0  0.45530  0.08019  0.28043  1.0000
  C   C279      1.0  0.39803  0.89446  0.32385  1.0000
  N   N26       1.0  0.49299  0.05124  0.27122  1.0000
  C   C280      1.0  0.63260  0.00029  0.31712  1.0000
  Fe  Fe48      1.0  0.18653  0.97678  0.32036  1.0000
  H   H296      1.0  0.37314  0.75138  0.27153  1.0000
  H   H297      1.0  0.63847  0.92469  0.16755  1.0000
  Fe  Fe49      1.0  0.45515  0.88649  0.14509  1.0000
  C   C281      1.0  0.32731  0.86937  0.13420  1.0000
  H   H298      1.0  0.32401  0.15202  0.23121  1.0000
  C   C282      1.0  0.33175  0.15182  0.19274  1.0000
  C   C283      1.0  0.36635  0.90342  0.28226  1.0000
  C   C284      1.0  0.35887  0.70614  0.10070  1.0000
  H   H299      1.0  0.58747  0.80785  0.24359  1.0000
  S   S91       1.0  0.46571  0.94224  0.10669  1.0000
  H   H300      1.0  0.44793  0.78435  0.29182  1.0000
  S   S92       1.0  0.18497  0.98854  0.12774  1.0000
  C   C285      1.0  0.46061  0.71089  0.19469  1.0000
  C   C286      1.0  0.48302  0.10054  0.19491  1.0000
  C   C287      1.0  0.45745  0.72614  0.24476  1.0000
  H   H301      1.0  0.27204  0.92098  0.15431  1.0000
  C   C288      1.0  0.30070  0.74591  0.14276  1.0000
  Fe  Fe50      1.0  0.41177  0.99263  0.13744  1.0000
  C   C289      1.0  0.45202  0.80068  0.21288  1.0000
  H   H302      1.0  0.52391  0.97738  0.28141  1.0000
  Fe  Fe51      1.0  0.50026  0.94383  0.18460  1.0000
  H   H303      1.0  0.30081  0.16706  0.32347  1.0000
  H   H304      1.0  0.50285  0.00384  0.33680  1.0000
  C   C290      1.0  0.23829  0.76093  0.33451  1.0000
  C   C291      1.0  0.34015  0.88252  0.28367  1.0000
  H   H305      1.0  0.62434  0.97872  0.23905  1.0000
  H   H306      1.0  0.54729  0.00773  0.32198  1.0000
  C   C292      1.0  0.15726  0.14270  0.12785  1.0000
  C   C293      1.0  0.60386  0.73987  0.21492  1.0000
  C   C294      1.0  0.55885  0.77044  0.27696  1.0000
  H   H307      1.0  0.29950  0.07502  0.23118  1.0000
  H   H308      1.0  0.44695  0.83594  0.21990  1.0000
  H   H309      1.0  0.46584  0.72662  0.11605  1.0000
  S   S93       1.0  0.44664  0.99664  0.21365  1.0000
  C   C295      1.0  0.53467  0.15994  0.28729  1.0000
  H   H310      1.0  0.49437  0.10866  0.16209  1.0000
  C   C296      1.0  0.45221  0.77150  0.25371  1.0000
  H   H311      1.0  0.28024  0.10952  0.10224  1.0000
  H   H312      1.0  0.23256  0.09432  0.25581  1.0000
  H   H313      1.0  0.44394  0.07236  0.31343  1.0000
  S   S94       1.0  0.23679  0.95898  0.27492  1.0000
  S   S95       1.0  0.48394  0.17991  0.29229  1.0000
  H   H314      1.0  0.53146  0.01962  0.09369  1.0000
  C   C297      1.0  0.43060  0.11996  0.24692  1.0000
  C   C298      1.0  0.35257  0.15097  0.09371  1.0000
  C   C299      1.0  0.35874  0.72709  0.26546  1.0000
  C   C300      1.0  0.59932  0.83856  0.10433  1.0000
  H   H315      1.0  0.52272  0.16940  0.20313  1.0000
  H   H316      1.0  0.59475  0.14008  0.19556  1.0000
  C   C301      1.0  0.63692  0.83515  0.09755  1.0000
  C   C302      1.0  0.58368  0.77590  0.24497  1.0000
  C   C303      1.0  0.33645  0.19300  0.11736  1.0000
  C   C304      1.0  0.58968  0.90429  0.15646  1.0000
  H   H317      1.0  0.62072  0.03677  0.30366  1.0000
  H   H318      1.0  0.31541  0.89003  0.25174  1.0000
  C   C305      1.0  0.35857  0.10927  0.11969  1.0000
  H   H319      1.0  0.53461  0.72529  0.30224  1.0000
  C   C306      1.0  0.25981  0.06883  0.27974  1.0000
  H   H320      1.0  0.17534  0.05068  0.21199  1.0000
  C   C307      1.0  0.62752  0.90066  0.15017  1.0000
  S   S96       1.0  0.56852  0.09927  0.09839  1.0000
  C   C308      1.0  0.44434  0.12968  0.20340  1.0000
  H   H321      1.0  0.36091  0.92791  0.24996  1.0000
  C   C309      1.0  0.34922  0.10947  0.16984  1.0000
  H   H322      1.0  0.32596  0.74819  0.25160  1.0000
  C   C310      1.0  0.58626  0.14170  0.23375  1.0000
  C   C311      1.0  0.56438  0.14560  0.33231  1.0000
  S   S97       1.0  0.49442  0.88389  0.22048  1.0000
  C   C312      1.0  0.54558  0.15835  0.23803  1.0000
  H   H323      1.0  0.33446  0.84589  0.16863  1.0000
  Fe  Fe52      1.0  0.25065  0.88438  0.29398  1.0000
  C   C313      1.0  0.63467  0.96768  0.28039  1.0000
  C   C314      1.0  0.51800  0.00806  0.30467  1.0000
  C   C315      1.0  0.60510  0.12947  0.32802  1.0000
  S   S98       1.0  0.55946  0.94801  0.19210  1.0000
  H   H324      1.0  0.35421  0.07719  0.19010  1.0000
  C   C316      1.0  0.29739  0.05798  0.26604  1.0000
  C   C317      1.0  0.61597  0.12665  0.27860  1.0000
  S   S99       1.0  0.39739  0.93656  0.16818  1.0000
  S   S100      1.0  0.31128  0.82874  0.32906  1.0000
  C   C318      1.0  0.65026  0.92063  0.29733  1.0000
  C   C319      1.0  0.32510  0.19367  0.16630  1.0000
  S   S101      1.0  0.23782  0.18316  0.22842  1.0000
  Fe  Fe53      1.0  0.43737  0.93624  0.24259  1.0000
  S   S102      1.0  0.42923  0.92304  0.32377  1.0000
  C   C320      1.0  0.33217  0.02558  0.29785  1.0000
  C   C321      1.0  0.55419  0.72911  0.27776  1.0000
  S   S103      1.0  0.46149  0.81908  0.11342  1.0000
  H   H325      1.0  0.64209  0.00717  0.11744  1.0000
  H   H326      1.0  0.40124  0.14344  0.25497  1.0000
  H   H327      1.0  0.62321  0.74359  0.18991  1.0000
  C   C322      1.0  0.50721  0.06149  0.22965  1.0000
  H   H328      1.0  0.53725  0.03921  0.22281  1.0000
  S   S104      1.0  0.26757  0.70163  0.19619  1.0000
  H   H329      1.0  0.54729  0.87440  0.14005  1.0000
  Fe  Fe54      1.0  0.19207  0.95682  0.20776  1.0000
  H   H330      1.0  0.38004  0.82479  0.10359  1.0000
  C   C323      1.0  0.32876  0.74742  0.11349  1.0000
  C   C324      1.0  0.35314  0.85768  0.09740  1.0000
  S   S105      1.0  0.65031  0.14732  0.12975  1.0000
  H   H331      1.0  0.26404  0.76766  0.32683  1.0000
  H   H332      1.0  0.27784  0.77796  0.15323  1.0000
  H   H333      1.0  0.15989  0.13495  0.21098  1.0000
  C   C325      1.0  0.57582  0.87288  0.13402  1.0000
  C   C326      1.0  0.29243  0.91139  0.12619  1.0000
  Fe  Fe55      1.0  0.16248  0.90256  0.27151  1.0000
  C   C327      1.0  0.16320  0.11747  0.17516  1.0000
  H   H334      1.0  0.22824  0.05660  0.33610  1.0000
  H   H335      1.0  0.37239  0.70434  0.23473  1.0000
  C   C328      1.0  0.34582  0.85218  0.32639  1.0000
  H   H336      1.0  0.32724  0.78063  0.10087  1.0000
  C   C329      1.0  0.25755  0.04728  0.32534  1.0000
  C   C330      1.0  0.22123  0.18680  0.48612  1.0000
  H   H337      1.0  0.30984  0.85056  0.54799  1.0000
  C   C331      1.0  0.22973  0.11311  0.55168  1.0000
  H   H338      1.0  0.43764  0.71545  0.53133  1.0000
  H   H339      1.0  0.43109  0.94834  0.42868  1.0000
  C   C332      1.0  0.22641  0.82574  0.45570  1.0000
  S   S106      1.0  0.29809  0.76873  0.55921  1.0000
  S   S107      1.0  0.44763  0.80045  0.51822  1.0000
  H   H340      1.0  0.36646  0.03663  0.46181  1.0000
  C   C333      1.0  0.17670  0.02398  0.57272  1.0000
  C   C334      1.0  0.37233  0.11425  0.57306  1.0000
  C   C335      1.0  0.17669  0.98016  0.56772  1.0000
  N   N27       1.0  0.29178  0.01534  0.35618  1.0000
  H   H341      1.0  0.48836  0.84408  0.46918  1.0000
  C   C336      1.0  0.50812  0.93687  0.48873  1.0000
  H   H342      1.0  0.27959  0.96354  0.39080  1.0000
  S   S108      1.0  0.50466  0.17622  0.44615  1.0000
  S   S109      1.0  0.42388  0.16395  0.39501  1.0000
  H   H343      1.0  0.62241  0.19657  0.49654  1.0000
  S   S110      1.0  0.59635  0.05891  0.51459  1.0000
  C   C337      1.0  0.28850  0.99177  0.40264  1.0000
  C   C338      1.0  0.34015  0.77593  0.54717  1.0000
  H   H344      1.0  0.58246  0.15196  0.47576  1.0000
  Fe  Fe56      1.0  0.45023  0.17775  0.47279  1.0000
  C   C339      1.0  0.16755  0.81216  0.42907  1.0000
  H   H345      1.0  0.31743  0.97646  0.43068  1.0000
  S   S111      1.0  0.47962  0.10327  0.50469  1.0000
  H   H346      1.0  0.34780  0.13312  0.54129  1.0000
  N   N28       1.0  0.22154  0.78471  0.37941  1.0000
  C   C340      1.0  0.25811  0.13118  0.56033  1.0000
  H   H347      1.0  0.61050  0.04603  0.40584  1.0000
  Fe  Fe57      1.0  0.56469  0.71424  0.42720  1.0000
  S   S112      1.0  0.50009  0.76210  0.39590  1.0000
  C   C341      1.0  0.16203  0.18448  0.43082  1.0000
  C   C342      1.0  0.62661  0.08896  0.51994  1.0000
  H   H348      1.0  0.35598  0.97927  0.36743  1.0000
  S   S113      1.0  0.51388  0.07914  0.39554  1.0000
  C   C343      1.0  0.44224  0.93516  0.47042  1.0000
  H   H349      1.0  0.29232  0.08384  0.44761  1.0000
  C   C344      1.0  0.64260  0.02141  0.40678  1.0000
  C   C345      1.0  0.24295  0.80164  0.41386  1.0000
  H   H350      1.0  0.60286  0.84866  0.50879  1.0000
  H   H351      1.0  0.56720  0.93521  0.50878  1.0000
  C   C346      1.0  0.33768  0.82100  0.54431  1.0000
  S   S114      1.0  0.55281  0.70300  0.50683  1.0000
  H   H352      1.0  0.62793  0.11925  0.36279  1.0000
  C   C347      1.0  0.18459  0.78907  0.38704  1.0000
  C   C348      1.0  0.50562  0.86407  0.47807  1.0000
  H   H353      1.0  0.42893  0.91143  0.48024  1.0000
  C   C349      1.0  0.55028  0.91478  0.49981  1.0000
  H   H354      1.0  0.24292  0.84036  0.48196  1.0000
  C   C350      1.0  0.37090  0.82816  0.53567  1.0000
  H   H355      1.0  0.20160  0.02964  0.56307  1.0000
  H   H356      1.0  0.26524  0.01682  0.42345  1.0000
  C   C351      1.0  0.57018  0.86637  0.49983  1.0000
  C   C352      1.0  0.37766  0.84281  0.36793  1.0000
  H   H357      1.0  0.49276  0.97456  0.48817  1.0000
  S   S115      1.0  0.18377  0.02129  0.38753  1.0000
  H   H358      1.0  0.40930  0.06799  0.52263  1.0000
  C   C353      1.0  0.35220  0.06493  0.43151  1.0000
  C   C354      1.0  0.31033  0.09173  0.42364  1.0000
  C   C355      1.0  0.63468  0.16036  0.51069  1.0000
  N   N29       1.0  0.19418  0.16792  0.47689  1.0000
  C   C356      1.0  0.25363  0.16853  0.52771  1.0000
  H   H359      1.0  0.16785  0.77507  0.36017  1.0000
  C   C357      1.0  0.40338  0.86458  0.36699  1.0000
  C   C358      1.0  0.18851  0.83091  0.46335  1.0000
  S   S116      1.0  0.48140  0.00550  0.58757  1.0000
  C   C359      1.0  0.61172  0.13518  0.49945  1.0000
  Fe  Fe58      1.0  0.45759  0.08903  0.42466  1.0000
  S   S117      1.0  0.61278  0.73684  0.41680  1.0000
  C   C360      1.0  0.31502  0.13868  0.35363  1.0000
  H   H360      1.0  0.38175  0.81998  0.40157  1.0000
  C   C361      1.0  0.37557  0.07515  0.40066  1.0000
  C   C362      1.0  0.40666  0.79030  0.52947  1.0000
  S   S118      1.0  0.42789  0.04126  0.41026  1.0000
  H   H361      1.0  0.37325  0.18974  0.47392  1.0000
  Fe  Fe59      1.0  0.48776  0.74525  0.47325  1.0000
  N   N30       1.0  0.48638  0.91135  0.47985  1.0000
  H   H362      1.0  0.56291  0.80327  0.48704  1.0000
  H   H363      1.0  0.43162  0.96534  0.49480  1.0000
  C   C363      1.0  0.40947  0.74498  0.53335  1.0000
  H   H364      1.0  0.17589  0.11788  0.50338  1.0000
  H   H365      1.0  0.42739  0.85812  0.39967  1.0000
  H   H366      1.0  0.36867  0.86317  0.53300  1.0000
  H   H367      1.0  0.23190  0.08510  0.57773  1.0000
  Fe  Fe60      1.0  0.53306  0.10032  0.47274  1.0000
  H   H368      1.0  0.27498  0.18352  0.53499  1.0000
  C   C364      1.0  0.40714  0.07727  0.56245  1.0000
  C   C365      1.0  0.37606  0.73776  0.54186  1.0000
  C   C366      1.0  0.54778  0.84083  0.48815  1.0000
  H   H369      1.0  0.27249  0.79783  0.40836  1.0000
  C   C367      1.0  0.29168  0.12807  0.38412  1.0000
  H   H370      1.0  0.20144  0.95232  0.55395  1.0000
  C   C368      1.0  0.37785  0.71141  0.36090  1.0000
  N   N31       1.0  0.64575  0.98635  0.36925  1.0000
  C   C369      1.0  0.19782  0.13201  0.50955  1.0000
  Fe  Fe61      1.0  0.48152  0.15524  0.37118  1.0000
  H   H371      1.0  0.17540  0.84944  0.49573  1.0000
  S   S119      1.0  0.23902  0.15833  0.37167  1.0000
  C   C370      1.0  0.64430  0.70475  0.37342  1.0000
  H   H372      1.0  0.55606  0.14744  0.37048  1.0000
  C   C371      1.0  0.35698  0.11228  0.36199  1.0000
  H   H373      1.0  0.16715  0.15621  0.40383  1.0000
  H   H374      1.0  0.38456  0.74144  0.36282  1.0000
  S   S120      1.0  0.20350  0.90231  0.34395  1.0000
  H   H375      1.0  0.37826  0.70279  0.54516  1.0000
  C   C372      1.0  0.32875  0.00419  0.34281  1.0000
  H   H376      1.0  0.24853  0.72280  0.34156  1.0000
  C   C373      1.0  0.92750  0.29481  0.64647  1.0000
  C   C374      1.0  0.87829  0.35073  0.69232  1.0000
  S   S121      1.0  0.65850  0.53520  0.69090  1.0000
  H   H377      1.0  0.92383  0.62177  0.68563  1.0000
  H   H378      1.0  0.86669  0.52117  0.77292  1.0000
  C   C375      1.0  0.03729  0.37050  0.83598  1.0000
  S   S122      1.0  0.99725  0.63204  0.64498  1.0000
  H   H379      1.0  0.98860  0.44356  0.72111  1.0000
  C   C376      1.0  0.09162  0.51785  0.71923  1.0000
  S   S123      1.0  0.76495  0.43010  0.68928  1.0000
  H   H380      1.0  0.98192  0.32296  0.79588  1.0000
  S   S124      1.0  0.94507  0.24166  0.61771  1.0000
  H   H381      1.0  0.13645  0.36034  0.73781  1.0000
  H   H382      1.0  0.80315  0.33812  0.67673  1.0000
  H   H383      1.0  0.10758  0.50589  0.75878  1.0000
  N   N32       1.0  0.95226  0.50654  0.67416  1.0000
  C   C377      1.0  0.77580  0.26161  0.61160  1.0000
  C   C378      1.0  0.88078  0.54975  0.64486  1.0000
  H   H384      1.0  0.09494  0.48539  0.59475  1.0000
  N   N33       1.0  0.95559  0.21952  0.76526  1.0000
  Fe  Fe62      1.0  0.75968  0.41456  0.60509  1.0000
  H   H385      1.0  0.09587  0.37288  0.68317  1.0000
  C   C379      1.0  0.94667  0.32429  0.64555  1.0000
  H   H386      1.0  0.91307  0.47550  0.64528  1.0000
  H   H387      1.0  0.03803  0.37406  0.79475  1.0000
  C   C380      1.0  0.10501  0.49064  0.67797  1.0000
  S   S125      1.0  0.87241  0.43728  0.70971  1.0000
  C   C381      1.0  0.66653  0.40323  0.62213  1.0000
  H   H388      1.0  0.98412  0.54618  0.70282  1.0000
  H   H389      1.0  0.90647  0.53131  0.81102  1.0000
  H   H390      1.0  0.70751  0.45098  0.75772  1.0000
  S   S126      1.0  0.76008  0.53121  0.64969  1.0000
  C   C382      1.0  0.05839  0.56148  0.70914  1.0000
  C   C383      1.0  0.98820  0.46175  0.68424  1.0000
  C   C384      1.0  0.94247  0.29099  0.80627  1.0000
  H   H391      1.0  0.10428  0.33205  0.73796  1.0000
  H   H392      1.0  0.69616  0.39442  0.64737  1.0000
  C   C385      1.0  0.07669  0.63953  0.59737  1.0000
  H   H393      1.0  0.13049  0.57564  0.60068  1.0000
  H   H394      1.0  0.87976  0.28443  0.67224  1.0000
  C   C386      1.0  0.89657  0.38082  0.69027  1.0000
  H   H395      1.0  0.07762  0.63860  0.63937  1.0000
  S   S127      1.0  0.11505  0.58845  0.83857  1.0000
  C   C387      1.0  0.97469  0.29375  0.78769  1.0000
  S   S128      1.0  0.77900  0.65879  0.77220  1.0000
  C   C388      1.0  0.95518  0.54687  0.68650  1.0000
  C   C389      1.0  0.92100  0.58976  0.67752  1.0000
  H   H396      1.0  0.85197  0.36090  0.71063  1.0000
  H   H397      1.0  0.02204  0.26111  0.74258  1.0000
  C   C390      1.0  0.99729  0.25900  0.75790  1.0000
  H   H398      1.0  0.97301  0.31438  0.62732  1.0000
  C   C391      1.0  0.93326  0.25340  0.79456  1.0000
  C   C392      1.0  0.89387  0.30771  0.67070  1.0000
  Fe  Fe63      1.0  0.66215  0.63649  0.81927  1.0000
  H   H399      1.0  0.68609  0.30625  0.79243  1.0000
  C   C393      1.0  0.66669  0.42327  0.77484  1.0000
  H   H400      1.0  0.83506  0.27182  0.74399  1.0000
  C   C394      1.0  0.98758  0.22163  0.74747  1.0000
  C   C395      1.0  0.02097  0.69936  0.77635  1.0000
  H   H401      1.0  0.85697  0.62429  0.64804  1.0000
  C   C396      1.0  0.89557  0.50434  0.80106  1.0000
  C   C397      1.0  0.91560  0.50749  0.65425  1.0000
  C   C398      1.0  0.74696  0.25298  0.81122  1.0000
  N   N34       1.0  0.14588  0.30734  0.68474  1.0000
  C   C399      1.0  0.93138  0.36722  0.66791  1.0000
  C   C400      1.0  0.67686  0.45488  0.75001  1.0000
  H   H402      1.0  0.85185  0.55040  0.62832  1.0000
  C   C401      1.0  0.70608  0.27395  0.81562  1.0000
  C   C402      1.0  0.81531  0.22738  0.69734  1.0000
  H   H403      1.0  0.94571  0.39031  0.66617  1.0000
  H   H404      1.0  0.02023  0.66647  0.76333  1.0000
  C   C403      1.0  0.11904  0.34512  0.71208  1.0000
  S   S129      1.0  0.05381  0.23312  0.63094  1.0000
  S   S130      1.0  0.00176  0.46579  0.83193  1.0000
  S   S131      1.0  0.71036  0.59276  0.77464  1.0000
  Fe  Fe64      1.0  0.80812  0.45833  0.67162  1.0000
  H   H405      1.0  0.01647  0.46645  0.68821  1.0000
  H   H406      1.0  0.04871  0.58289  0.74108  1.0000
  H   H407      1.0  0.68977  0.39479  0.80102  1.0000
  C   C404      1.0  0.79373  0.22390  0.64959  1.0000
  H   H408      1.0  0.98858  0.43924  0.65147  1.0000
  C   C405      1.0  0.80009  0.30662  0.66937  1.0000
  H   H409      1.0  0.11465  0.26518  0.69010  1.0000
  H   H410      1.0  0.91816  0.47687  0.78161  1.0000
  N   N35       1.0  0.03921  0.69332  0.83174  1.0000
  H   H411      1.0  0.65589  0.67116  0.68591  1.0000
  Fe  Fe65      1.0  0.74569  0.62911  0.81456  1.0000
  C   C406      1.0  0.08472  0.50642  0.62675  1.0000
  C   C407      1.0  0.03804  0.57720  0.65789  1.0000
  H   H412      1.0  0.84609  0.46394  0.80570  1.0000
  C   C408      1.0  0.88360  0.59115  0.65635  1.0000
  Fe  Fe66      1.0  0.71655  0.50111  0.66020  1.0000
  C   C409      1.0  0.13894  0.26892  0.67553  1.0000
  C   C410      1.0  0.77896  0.30308  0.62156  1.0000
  C   C411      1.0  0.81854  0.26878  0.70718  1.0000
  C   C412      1.0  0.05081  0.54939  0.61685  1.0000
  N   N36       1.0  0.65903  0.36165  0.61811  1.0000
  H   H413      1.0  0.77315  0.66625  0.59901  1.0000
  H   H414      1.0  0.92437  0.31817  0.82883  1.0000
  S   S132      1.0  0.14823  0.43804  0.68995  1.0000
  H   H415      1.0  0.75855  0.26836  0.78442  1.0000
  H   H416      1.0  0.90788  0.25164  0.80849  1.0000
  S   S133      1.0  0.08837  0.20267  0.83007  1.0000
  H   H417      1.0  0.04320  0.44259  0.59221  1.0000
  C   C413      1.0  0.96270  0.55584  0.00675  1.0000
  H   H418      1.0  0.03508  0.64769  0.94763  1.0000
  H   H419      1.0  0.08167  0.69382  0.08686  1.0000
  Fe  Fe67      1.0  0.11732  0.20872  0.91000  1.0000
  C   C414      1.0  0.92791  0.54919  0.00746  1.0000
  C   C415      1.0  0.83145  0.64516  0.91627  1.0000
  C   C416      1.0  0.77287  0.21167  0.84138  1.0000
  N   N37       1.0  0.89013  0.48328  0.84781  1.0000
  C   C417      1.0  0.67371  0.66549  0.06865  1.0000
  C   C418      1.0  0.06192  0.32298  0.91849  1.0000
  H   H420      1.0  0.00123  0.66473  0.85460  1.0000
  H   H421      1.0  0.81974  0.63241  0.06467  1.0000
  H   H422      1.0  0.82573  0.68553  0.07451  1.0000
  S   S134      1.0  0.11333  0.53303  0.96820  1.0000
  H   H423      1.0  0.81318  0.63816  0.88384  1.0000
  S   S135      1.0  0.68507  0.58380  0.88772  1.0000
  H   H424      1.0  0.00343  0.43583  0.93658  1.0000
  Fe  Fe68      1.0  0.05201  0.54184  0.97722  1.0000
  C   C419      1.0  0.08819  0.69855  0.90021  1.0000
  C   C420      1.0  0.04026  0.36200  0.94403  1.0000
  S   S136      1.0  0.06539  0.46766  0.96544  1.0000
  C   C421      1.0  0.82481  0.64213  0.96749  1.0000
  H   H425      1.0  0.80157  0.63186  0.97453  1.0000
  S   S137      1.0  0.10448  0.47637  0.86505  1.0000
  C   C422      1.0  0.04501  0.66389  0.91950  1.0000
  C   C423      1.0  0.91288  0.48155  0.89525  1.0000
  C   C424      1.0  0.88150  0.44073  0.93584  1.0000
  C   C425      1.0  0.71677  0.21372  0.87880  1.0000
  Fe  Fe69      1.0  0.73606  0.54288  0.84636  1.0000
  S   S138      1.0  0.69615  0.67563  0.85529  1.0000
  H   H426      1.0  0.90749  0.55318  0.97137  1.0000
  C   C426      1.0  0.69023  0.63355  0.03258  1.0000
  S   S139      1.0  0.02542  0.56688  0.89265  1.0000
  H   H427      1.0  0.92592  0.46027  0.97796  1.0000
  C   C427      1.0  0.11713  0.39661  0.07058  1.0000
  C   C428      1.0  0.91925  0.53798  0.05477  1.0000
  H   H428      1.0  0.68500  0.69104  0.07885  1.0000
  H   H429      1.0  0.77689  0.34793  0.98705  1.0000
  C   C429      1.0  0.02594  0.67383  0.86715  1.0000
  C   C430      1.0  0.83981  0.64976  0.06159  1.0000
  H   H430      1.0  0.12332  0.54160  0.08804  1.0000
  H   H431      1.0  0.89642  0.66958  0.03225  1.0000
  S   S140      1.0  0.72837  0.63695  0.00303  1.0000
  H   H432      1.0  0.09330  0.66590  0.97529  1.0000
  Fe  Fe70      1.0  0.04267  0.49154  0.88049  1.0000
  S   S141      1.0  0.77579  0.57529  0.88266  1.0000
  H   H433      1.0  0.79813  0.46518  0.03707  1.0000
  Fe  Fe71      1.0  0.12528  0.46031  0.95142  1.0000
  C   C431      1.0  0.76618  0.40043  0.92613  1.0000
  C   C432      1.0  0.10688  0.32688  0.07358  1.0000
  C   C433      1.0  0.86396  0.46310  0.84325  1.0000
  H   H434      1.0  0.13178  0.41627  0.05650  1.0000
  C   C434      1.0  0.87774  0.66315  0.99967  1.0000
  S   S142      1.0  0.87419  0.53282  0.05468  1.0000
  S   S143      1.0  0.89754  0.40718  0.08504  1.0000
  C   C435      1.0  0.67495  0.60088  0.01920  1.0000
  H   H435      1.0  0.86773  0.65887  0.86758  1.0000
  C   C436      1.0  0.78887  0.40421  0.01814  1.0000
  S   S144      1.0  0.80520  0.37859  0.08246  1.0000
  N   N38       1.0  0.84778  0.65130  0.00831  1.0000
  H   H436      1.0  0.90996  0.67414  0.94259  1.0000
  S   S145      1.0  0.09487  0.27121  0.95608  1.0000
  Fe  Fe72      1.0  0.08920  0.55005  0.88239  1.0000
  C   C437      1.0  0.12613  0.35173  0.05544  1.0000
  H   H437      1.0  0.68912  0.57430  0.99379  1.0000
  Fe  Fe73      1.0  0.72305  0.61907  0.92005  1.0000
  C   C438      1.0  0.86206  0.65695  0.90709  1.0000
  H   H438      1.0  0.96931  0.56441  0.97008  1.0000
  C   C439      1.0  0.77679  0.38124  0.97810  1.0000
  C   C440      1.0  0.77705  0.46701  0.95481  1.0000
  C   C441      1.0  0.78892  0.44714  0.00643  1.0000
  H   H439      1.0  0.93457  0.49624  0.89859  1.0000
  C   C442      1.0  0.04886  0.22349  0.04191  1.0000
  H   H440      1.0  0.07912  0.21860  0.03516  1.0000
  S   S146      1.0  0.75546  0.46590  0.84924  1.0000
  C   C443      1.0  0.76644  0.44327  0.91447  1.0000
  H   H441      1.0  0.11367  0.29186  0.06227  1.0000
  C   C444      1.0  0.07730  0.67480  0.93539  1.0000
  H   H442      1.0  0.14778  0.33637  0.02946  1.0000
  H   H443      1.0  0.75802  0.38197  0.89499  1.0000
  H   H444      1.0  0.67692  0.49305  0.86800  1.0000
  C   C445      1.0  0.01831  0.40544  0.91599  1.0000
  H   H445      1.0  0.07633  0.29690  0.84433  1.0000
  C   C446      1.0  0.88553  0.66579  0.94902  1.0000
  H   H446      1.0  0.12928  0.37141  0.93080  1.0000
  H   H447      1.0  0.87743  0.42483  0.97018  1.0000
  C   C447      1.0  0.98798  0.55329  0.05365  1.0000
  H   H448      1.0  0.02279  0.67545  0.08041  1.0000
  H   H449      1.0  0.77731  0.50008  0.94623  1.0000
  H   H450      1.0  0.02572  0.24980  0.01158  1.0000
  S   S147      1.0  0.03057  0.56343  0.05280  1.0000
  C   C448      1.0  0.90852  0.46080  0.94011  1.0000
  H   H451      1.0  0.04181  0.35912  0.98588  1.0000
  H   H452      1.0  0.04437  0.23781  0.08064  1.0000
  H   H453      1.0  0.83935  0.42460  0.88304  1.0000
  H   H454      1.0  0.13332  0.32135  0.85729  1.0000
  N   N39       1.0  0.69146  0.25402  0.84878  1.0000
  C   C449      1.0  0.85967  0.44109  0.88702  1.0000
  C   C450      1.0  0.05910  0.32677  0.86411  1.0000
  C   C451      1.0  0.01812  0.41006  0.86239  1.0000
  H   H455      1.0  0.86853  0.62941  0.08887  1.0000
  H   H456      1.0  0.79890  0.31114  0.22851  1.0000
  H   H457      1.0  0.80132  0.57072  0.27413  1.0000
  H   H458      1.0  0.07421  0.25054  0.20626  1.0000
  N   N40       1.0  0.86129  0.29410  0.25355  1.0000
  H   H459      1.0  0.04502  0.38958  0.18804  1.0000
  H   H460      1.0  0.68973  0.58541  0.16467  1.0000
  S   S148      1.0  0.85626  0.46459  0.30013  1.0000
  C   C452      1.0  0.85449  0.32551  0.29092  1.0000
  H   H461      1.0  0.08304  0.48187  0.26249  1.0000
  S   S149      1.0  0.14368  0.20267  0.12419  1.0000
  C   C453      1.0  0.71345  0.55084  0.15837  1.0000
  H   H462      1.0  0.80267  0.43353  0.23739  1.0000
  S   S150      1.0  0.68671  0.30459  0.32283  1.0000
  H   H463      1.0  0.73710  0.53921  0.19400  1.0000
  S   S151      1.0  0.88944  0.37215  0.19940  1.0000
  C   C454      1.0  0.78682  0.45545  0.26585  1.0000
  H   H464      1.0  0.73229  0.44790  0.24029  1.0000
  C   C455      1.0  0.13454  0.49772  0.15753  1.0000
  H   H465      1.0  0.01709  0.44845  0.30550  1.0000
  H   H466      1.0  0.90500  0.23717  0.22146  1.0000
  S   S152      1.0  0.00181  0.33285  0.17225  1.0000
  C   C456      1.0  0.74700  0.46336  0.26771  1.0000
  H   H467      1.0  0.92509  0.57405  0.23253  1.0000
  C   C457      1.0  0.80615  0.47531  0.30133  1.0000
  S   S153      1.0  0.67684  0.50013  0.30766  1.0000
  C   C458      1.0  0.05575  0.37743  0.33529  1.0000
  C   C459      1.0  0.82773  0.29744  0.21317  1.0000
  H   H468      1.0  0.05025  0.36279  0.29882  1.0000
  C   C460      1.0  0.93513  0.67255  0.25936  1.0000
  H   H469      1.0  0.99885  0.54040  0.13740  1.0000
  S   S154      1.0  0.78883  0.69575  0.26287  1.0000
  H   H470      1.0  0.08008  0.45227  0.11223  1.0000
  Fe  Fe74      1.0  0.65990  0.35746  0.25402  1.0000
  H   H471      1.0  0.76742  0.20145  0.20624  1.0000
  C   C461      1.0  0.92579  0.29191  0.32571  1.0000
  C   C462      1.0  0.04939  0.24092  0.19947  1.0000
  H   H472      1.0  0.00830  0.42002  0.13043  1.0000
  H   H473      1.0  0.95484  0.64653  0.23723  1.0000
  C   C463      1.0  0.86821  0.57349  0.20112  1.0000
  H   H474      1.0  0.82456  0.32093  0.17928  1.0000
  H   H475      1.0  0.03763  0.44660  0.16679  1.0000
  C   C464      1.0  0.71743  0.47754  0.12437  1.0000
  C   C465      1.0  0.70353  0.44305  0.11747  1.0000
  H   H476      1.0  0.82412  0.35135  0.29249  1.0000
  C   C466      1.0  0.78532  0.50395  0.33776  1.0000
  C   C467      1.0  0.94533  0.53372  0.10157  1.0000
  Fe  Fe75      1.0  0.74080  0.67890  0.21900  1.0000
  H   H477      1.0  0.87835  0.20499  0.33699  1.0000
  S   S155      1.0  0.71269  0.37459  0.26208  1.0000
  C   C468      1.0  0.93244  0.25987  0.28767  1.0000
  C   C469      1.0  0.95142  0.68537  0.30580  1.0000
  C   C470      1.0  0.83310  0.57308  0.21291  1.0000
  Fe  Fe76      1.0  0.87127  0.44553  0.22061  1.0000
  H   H478      1.0  0.87224  0.57448  0.16077  1.0000
  Fe  Fe77      1.0  0.80662  0.70029  0.18524  1.0000
  Fe  Fe78      1.0  0.67921  0.42883  0.31321  1.0000
  H   H479      1.0  0.96297  0.23438  0.28584  1.0000
  C   C471      1.0  0.66281  0.52217  0.16722  1.0000
  H   H480      1.0  0.83270  0.26269  0.19928  1.0000
  S   S156      1.0  0.76233  0.67587  0.14243  1.0000
  H   H481      1.0  0.94813  0.28803  0.15633  1.0000
  C   C472      1.0  0.67084  0.63739  0.32289  1.0000
  C   C473      1.0  0.78309  0.23466  0.27235  1.0000
  C   C474      1.0  0.10761  0.49239  0.33937  1.0000
  C   C475      1.0  0.79170  0.20207  0.23480  1.0000
  C   C476      1.0  0.88659  0.32503  0.32741  1.0000
  C   C477      1.0  0.81417  0.23546  0.30955  1.0000
  S   S157      1.0  0.12133  0.38426  0.25128  1.0000
  H   H482      1.0  0.72649  0.55602  0.12450  1.0000
  H   H483      1.0  0.10941  0.52329  0.17339  1.0000
  C   C478      1.0  0.89335  0.69306  0.24191  1.0000
  H   H484      1.0  0.96090  0.20579  0.17413  1.0000
  H   H485      1.0  0.09022  0.52984  0.33467  1.0000
  H   H486      1.0  0.74491  0.47259  0.11049  1.0000
  C   C479      1.0  0.66856  0.44862  0.13583  1.0000
  Fe  Fe79      1.0  0.93661  0.38180  0.16339  1.0000
  C   C480      1.0  0.82804  0.57262  0.26502  1.0000
  S   S158      1.0  0.92163  0.45313  0.19016  1.0000
  C   C481      1.0  0.01024  0.27477  0.18137  1.0000
  C   C482      1.0  0.89964  0.26167  0.25145  1.0000
  N   N41       1.0  0.85688  0.57317  0.30428  1.0000
  C   C483      1.0  0.89177  0.57280  0.29324  1.0000
  S   S159      1.0  0.72013  0.62949  0.25164  1.0000
  C   C484      1.0  0.72605  0.49211  0.30402  1.0000
  H   H487      1.0  0.75233  0.25942  0.27192  1.0000
  H   H488      1.0  0.80988  0.57308  0.18203  1.0000
  C   C485      1.0  0.67006  0.21008  0.18388  1.0000
  C   C486      1.0  0.07862  0.34749  0.10636  1.0000
  C   C487      1.0  0.97930  0.54229  0.10110  1.0000
  C   C488      1.0  0.10361  0.46520  0.29854  1.0000
  C   C489      1.0  0.03732  0.42551  0.33890  1.0000
  Fe  Fe80      1.0  0.84851  0.40448  0.12305  1.0000
  C   C490      1.0  0.12656  0.41679  0.30390  1.0000
  S   S160      1.0  0.87259  0.67655  0.18438  1.0000
  Fe  Fe81      1.0  0.87914  0.47822  0.11375  1.0000
  C   C491      1.0  0.97831  0.26206  0.17148  1.0000
  S   S161      1.0  0.14786  0.59694  0.21047  1.0000
  N   N42       1.0  0.69701  0.51654  0.14883  1.0000
  C   C492      1.0  0.89796  0.57299  0.24147  1.0000
  C   C493      1.0  0.03845  0.41334  0.15279  1.0000
  S   S162      1.0  0.82693  0.47756  0.14643  1.0000
  C   C494      1.0  0.98553  0.21550  0.18126  1.0000
  H   H489      1.0  0.93873  0.52536  0.13827  1.0000
  H   H490      1.0  0.68637  0.25934  0.22596  1.0000
  H   H491      1.0  0.06409  0.32767  0.12053  1.0000
  C   C495      1.0  0.69324  0.65648  0.30125  1.0000
  H   H492      1.0  0.67198  0.60429  0.31128  1.0000
  N   N43       1.0  0.06938  0.39192  0.12013  1.0000
  H   H493      1.0  0.98364  0.66891  0.31960  1.0000
  C   C496      1.0  0.14264  0.50820  0.10970  1.0000
  H   H494      1.0  0.91488  0.57257  0.32451  1.0000
  C   C497      1.0  0.66638  0.25492  0.19396  1.0000
  Fe  Fe82      1.0  0.73716  0.32627  0.33468  1.0000
  H   H495      1.0  0.72012  0.41197  0.09849  1.0000
  C   C498      1.0  0.08798  0.41667  0.10235  1.0000
  H   H496      1.0  0.65763  0.42187  0.13134  1.0000
  C   C499      1.0  0.85421  0.20417  0.30844  1.0000
  C   C500      1.0  0.74518  0.51272  0.33878  1.0000
  C   C501      1.0  0.69240  0.69868  0.31743  1.0000
  S   S163      1.0  0.99169  0.28552  0.51967  1.0000
  C   C502      1.0  0.15036  0.68815  0.50541  1.0000
  C   C503      1.0  0.86705  0.40455  0.48841  1.0000
  S   S164      1.0  0.95079  0.52554  0.43113  1.0000
  C   C504      1.0  0.68925  0.21078  0.42310  1.0000
  H   H497      1.0  0.12764  0.57834  0.50473  1.0000
  S   S165      1.0  0.13868  0.50586  0.43700  1.0000
  H   H498      1.0  0.67509  0.63054  0.47083  1.0000
  Fe  Fe83      1.0  0.75566  0.50832  0.56838  1.0000
  H   H499      1.0  0.79990  0.51985  0.36491  1.0000
  H   H500      1.0  0.86665  0.58943  0.38326  1.0000
  S   S166      1.0  0.80277  0.27708  0.35570  1.0000
  H   H501      1.0  0.04065  0.66266  0.41153  1.0000
  N   N44       1.0  0.84153  0.34822  0.50172  1.0000
  H   H502      1.0  0.72802  0.26024  0.47497  1.0000
  C   C505      1.0  0.08192  0.34839  0.37874  1.0000
  S   S167      1.0  0.08810  0.22655  0.52253  1.0000
  C   C506      1.0  0.77890  0.64757  0.56426  1.0000
  C   C507      1.0  0.04443  0.67651  0.51075  1.0000
  C   C508      1.0  0.65836  0.68206  0.58468  1.0000
  H   H503      1.0  0.14842  0.33014  0.46745  1.0000
  C   C509      1.0  0.97991  0.47620  0.47468  1.0000
  C   C510      1.0  0.98245  0.43262  0.46106  1.0000
  C   C511      1.0  0.02812  0.39628  0.54254  1.0000
  H   H504      1.0  0.87774  0.27557  0.52140  1.0000
  S   S168      1.0  0.70875  0.48381  0.57692  1.0000
  H   H505      1.0  0.03152  0.48134  0.38874  1.0000
  C   C512      1.0  0.87255  0.36110  0.50913  1.0000
  H   H506      1.0  0.75941  0.25861  0.57470  1.0000
  S   S169      1.0  0.92351  0.60379  0.54890  1.0000
  S   S170      1.0  0.75600  0.54559  0.49541  1.0000
  C   C513      1.0  0.66873  0.67457  0.53489  1.0000
  Fe  Fe84      1.0  0.99849  0.23303  0.58256  1.0000
  C   C514      1.0  0.79776  0.42186  0.45384  1.0000
  S   S171      1.0  0.75693  0.35008  0.57390  1.0000
  C   C515      1.0  0.02599  0.43979  0.55584  1.0000
  S   S172      1.0  0.98694  0.61947  0.48665  1.0000
  C   C516      1.0  0.80438  0.37808  0.47492  1.0000
  H   H507      1.0  0.12555  0.69717  0.57633  1.0000
  C   C517      1.0  0.74610  0.22313  0.46848  1.0000
  S   S173      1.0  0.05849  0.34675  0.58539  1.0000
  N   N45       1.0  0.72609  0.21026  0.42229  1.0000
  Fe  Fe85      1.0  0.94070  0.59157  0.46980  1.0000
  Fe  Fe86      1.0  0.96493  0.63822  0.56310  1.0000
  H   H508      1.0  0.72931  0.53475  0.36725  1.0000
  H   H509      1.0  0.07792  0.42872  0.46415  1.0000
  C   C518      1.0  0.80769  0.63309  0.48506  1.0000
  H   H510      1.0  0.77942  0.36852  0.47070  1.0000
  S   S174      1.0  0.89080  0.65929  0.43296  1.0000
  H   H511      1.0  0.88107  0.35070  0.35618  1.0000
  C   C519      1.0  0.13404  0.47122  0.38613  1.0000
  H   H512      1.0  0.09639  0.31112  0.37539  1.0000
  N   N46       1.0  0.08912  0.36674  0.42465  1.0000
  C   C520      1.0  0.84773  0.30326  0.52554  1.0000
  H   H513      1.0  0.08323  0.60689  0.41936  1.0000
  H   H514      1.0  0.84593  0.30610  0.56780  1.0000
  H   H515      1.0  0.96599  0.42971  0.42408  1.0000
  H   H516      1.0  0.09107  0.65929  0.42248  1.0000
  C   C521      1.0  0.10429  0.60574  0.52133  1.0000
  H   H517      1.0  0.89157  0.41491  0.49464  1.0000
  H   H518      1.0  0.95111  0.29123  0.35346  1.0000
  S   S175      1.0  0.80603  0.43750  0.58958  1.0000
  C   C522      1.0  0.04548  0.67587  0.56487  1.0000
  C   C523      1.0  0.66624  0.63737  0.50898  1.0000
  H   H519      1.0  0.11562  0.30165  0.47070  1.0000
  C   C524      1.0  0.00654  0.39269  0.49496  1.0000
  C   C525      1.0  0.04555  0.44398  0.38546  1.0000
  H   H520      1.0  0.67987  0.34555  0.54527  1.0000
  H   H521      1.0  0.79844  0.58091  0.43939  1.0000
  C   C526      1.0  0.77272  0.58877  0.50911  1.0000
  H   H522      1.0  0.67582  0.21917  0.45806  1.0000
  H   H523      1.0  0.90155  0.33800  0.53194  1.0000
  Fe  Fe87      1.0  0.87744  0.67379  0.51402  1.0000
  C   C527      1.0  0.76575  0.61269  0.55429  1.0000
  Fe  Fe88      1.0  0.65617  0.36313  0.37102  1.0000
  H   H524      1.0  0.77685  0.21830  0.46413  1.0000
  C   C528      1.0  0.80041  0.65726  0.53002  1.0000
  H   H525      1.0  0.67914  0.69700  0.51661  1.0000
  Fe  Fe89      1.0  0.04867  0.28326  0.56607  1.0000
  H   H526      1.0  0.82446  0.29224  0.50691  1.0000
  H   H527      1.0  0.10921  0.35084  0.50706  1.0000
  C   C529      1.0  0.07202  0.64267  0.43291  1.0000
  Fe  Fe90      1.0  0.93617  0.68800  0.45427  1.0000
  S   S176      1.0  0.02969  0.20949  0.39715  1.0000
  Fe  Fe91      1.0  0.03182  0.22384  0.48163  1.0000
  S   S177      1.0  0.70816  0.38190  0.38688  1.0000
  C   C530      1.0  0.00165  0.47979  0.52214  1.0000
  H   H528      1.0  0.00892  0.35911  0.48375  1.0000
  H   H529      1.0  0.76809  0.44595  0.43343  1.0000
  H   H530      1.0  0.82418  0.46950  0.44595  1.0000
  H   H531      1.0  0.03519  0.56130  0.57729  1.0000
  H   H532      1.0  0.82408  0.64061  0.45833  1.0000
  C   C531      1.0  0.82933  0.43510  0.46078  1.0000
  H   H533      1.0  0.00022  0.51327  0.53253  1.0000
  C   C532      1.0  0.79320  0.59945  0.47422  1.0000
  N   N47       1.0  0.07327  0.64127  0.48963  1.0000
  C   C533      1.0  0.11707  0.33578  0.46952  1.0000
  H   H534      1.0  0.66997  0.27371  0.54013  1.0000
  C   C534      1.0  0.85111  0.57170  0.35862  1.0000
  H   H535      1.0  0.86371  0.53481  0.37460  1.0000
  H   H536      1.0  0.81858  0.58954  0.36125  1.0000
  H   H537      1.0  0.74931  0.60523  0.58091  1.0000
  C   C535      1.0  0.07187  0.41394  0.42811  1.0000
  H   H538      1.0  0.66698  0.41740  0.58312  1.0000
  S   S178      1.0  0.81944  0.69834  0.54431  1.0000
  C   C536      1.0  0.66264  0.29450  0.57326  1.0000
  C   C537      1.0  0.66817  0.33525  0.57643  1.0000
  C   C538      1.0  0.10632  0.60418  0.57561  1.0000
  C   C539      1.0  0.65293  0.60855  0.53265  1.0000
  H   H539      1.0  0.65771  0.17500  0.69632  1.0000
  S   S179      1.0  0.07944  0.96509  0.70638  1.0000
  H   H540      1.0  0.91307  0.19587  0.72953  1.0000
  C   C540      1.0  0.95391  0.13148  0.60487  1.0000
  H   H541      1.0  0.86517  0.99959  0.61101  1.0000
  H   H542      1.0  0.71031  0.87346  0.66641  1.0000
  C   C541      1.0  0.68147  0.78960  0.83364  1.0000
  H   H543      1.0  0.98900  0.03021  0.67955  1.0000
  H   H544      1.0  0.80270  0.91067  0.79614  1.0000
  S   S180      1.0  0.14736  0.11327  0.60088  1.0000
  C   C542      1.0  0.95115  0.89145  0.79053  1.0000
  Fe  Fe92      1.0  0.73735  0.13655  0.64179  1.0000
  H   H545      1.0  0.87207  0.14284  0.65610  1.0000
  C   C543      1.0  0.03361  0.02183  0.77212  1.0000
  N   N48       1.0  0.93010  0.08562  0.67421  1.0000
  Fe  Fe93      1.0  0.15080  0.15564  0.81716  1.0000
  H   H546      1.0  0.80279  0.83257  0.80297  1.0000
  N   N49       1.0  0.73085  0.92439  0.69153  1.0000
  C   C544      1.0  0.91850  0.91862  0.81479  1.0000
  C   C545      1.0  0.78243  0.90202  0.76805  1.0000
  S   S181      1.0  0.10180  0.83194  0.73991  1.0000
  C   C546      1.0  0.78253  0.85822  0.77165  1.0000
  S   S182      1.0  0.65926  0.82922  0.61259  1.0000
  H   H547      1.0  0.70689  0.94250  0.61043  1.0000
  H   H548      1.0  0.91029  0.91932  0.66365  1.0000
  H   H549      1.0  0.66524  0.79971  0.79389  1.0000
  H   H550      1.0  0.90363  0.95606  0.80635  1.0000
  H   H551      1.0  0.94316  0.03036  0.73205  1.0000
  S   S183      1.0  0.13544  0.88475  0.82836  1.0000
  H   H552      1.0  0.92868  0.85937  0.68749  1.0000
  C   C547      1.0  0.69209  0.78066  0.65541  1.0000
  S   S184      1.0  0.82673  0.97013  0.70540  1.0000
  S   S185      1.0  0.01103  0.80871  0.77109  1.0000
  C   C548      1.0  0.06195  0.01544  0.73987  1.0000
  H   H553      1.0  0.71253  0.98827  0.64541  1.0000
  C   C549      1.0  0.67211  0.97059  0.81043  1.0000
  C   C550      1.0  0.96844  0.06518  0.66339  1.0000
  H   H554      1.0  0.94557  0.16207  0.78880  1.0000
  H   H555      1.0  0.89476  0.05150  0.69111  1.0000
  C   C551      1.0  0.96990  0.84294  0.80057  1.0000
  H   H556      1.0  0.74485  0.77250  0.62392  1.0000
  H   H557      1.0  0.75477  0.96965  0.72679  1.0000
  S   S186      1.0  0.03967  0.90931  0.80783  1.0000
  H   H558      1.0  0.08802  0.08050  0.61674  1.0000
  S   S187      1.0  0.79801  0.08665  0.78188  1.0000
  C   C552      1.0  0.02159  0.06001  0.80220  1.0000
  C   C553      1.0  0.75547  0.93524  0.72829  1.0000
  H   H559      1.0  0.02009  0.99800  0.77292  1.0000
  H   H560      1.0  0.09790  0.04483  0.70981  1.0000
  S   S188      1.0  0.68399  0.14749  0.80747  1.0000
  Fe  Fe94      1.0  0.73102  0.12590  0.75642  1.0000
  S   S189      1.0  0.06003  0.88458  0.61856  1.0000
  S   S190      1.0  0.94964  0.97693  0.63236  1.0000
  H   H561      1.0  0.78779  0.02868  0.61242  1.0000
  C   C554      1.0  0.70380  0.72450  0.72688  1.0000
  H   H562      1.0  0.82220  0.88681  0.66495  1.0000
  S   S191      1.0  0.83753  0.18035  0.74497  1.0000
  S   S192      1.0  0.73482  0.18152  0.70812  1.0000
  H   H563      1.0  0.96281  0.88133  0.66924  1.0000
  H   H564      1.0  0.07932  0.11031  0.76706  1.0000
  H   H565      1.0  0.75589  0.81411  0.73748  1.0000
  H   H566      1.0  0.90427  0.08612  0.74192  1.0000
  C   C555      1.0  0.80659  0.95900  0.64449  1.0000
  C   C556      1.0  0.98117  0.08798  0.62930  1.0000
  H   H567      1.0  0.01180  0.07142  0.62142  1.0000
  Fe  Fe95      1.0  0.79613  0.04802  0.70980  1.0000
  C   C557      1.0  0.93203  0.88301  0.65899  1.0000
  C   C558      1.0  0.73052  0.88166  0.69492  1.0000
  C   C559      1.0  0.75626  0.84795  0.73507  1.0000
  H   H568      1.0  0.96134  0.90810  0.76343  1.0000
  C   C560      1.0  0.91748  0.06235  0.71178  1.0000
  H   H569      1.0  0.07860  0.72419  0.82042  1.0000
  C   C561      1.0  0.80748  0.91525  0.63477  1.0000
  C   C562      1.0  0.75995  0.72209  0.68889  1.0000
  Fe  Fe96      1.0  0.05815  0.83468  0.79188  1.0000
  H   H570      1.0  0.73994  0.77041  0.81282  1.0000
  H   H571      1.0  0.14966  0.75822  0.66453  1.0000
  C   C563      1.0  0.06643  0.08568  0.76835  1.0000
  H   H572      1.0  0.13697  0.99204  0.82746  1.0000
  S   S193      1.0  0.80472  0.09837  0.65764  1.0000
  H   H573      1.0  0.72633  0.98048  0.81683  1.0000
  C   C564      1.0  0.78819  0.99523  0.60538  1.0000
  C   C565      1.0  0.95617  0.82168  0.83508  1.0000
  H   H574      1.0  0.67263  0.97252  0.65427  1.0000
  H   H575      1.0  0.96482  0.15633  0.72869  1.0000
  C   C566      1.0  0.65257  0.94806  0.83277  1.0000
  C   C567      1.0  0.71153  0.96187  0.83270  1.0000
  C   C568      1.0  0.03979  0.09018  0.80279  1.0000
  H   H576      1.0  0.98300  0.81079  0.61654  1.0000
  Fe  Fe97      1.0  0.08574  0.90576  0.75957  1.0000
  C   C569      1.0  0.90290  0.12766  0.64932  1.0000
  Fe  Fe98      1.0  0.80157  0.13944  0.72777  1.0000
  C   C570      1.0  0.07695  0.04866  0.73600  1.0000
  C   C571      1.0  0.67736  0.76322  0.69249  1.0000
  C   C572      1.0  0.73330  0.75952  0.65293  1.0000
  S   S194      1.0  0.72859  0.08347  0.68910  1.0000
  C   C573      1.0  0.70437  0.95866  0.64835  1.0000
  H   H577      1.0  0.99961  0.06489  0.82679  1.0000
  C   C574      1.0  0.94421  0.18153  0.75231  1.0000
  Fe  Fe99      1.0  0.14747  0.81104  0.81361  1.0000
  N   N50       1.0  0.92547  0.86943  0.60576  1.0000
  H   H578      1.0  0.79107  0.19208  0.64138  1.0000
  C   C575      1.0  0.74527  0.70448  0.72597  1.0000
  H   H579      1.0  0.98992  0.72789  0.77006  1.0000
  H   H580      1.0  0.69204  0.71070  0.75459  1.0000
  C   C576      1.0  0.11248  0.05274  0.60242  1.0000
  H   H581      1.0  0.79190  0.70643  0.68746  1.0000
  H   H582      1.0  0.03858  0.70843  0.75110  1.0000
  C   C577      1.0  0.91440  0.15141  0.61459  1.0000
  H   H583      1.0  0.08898  0.00217  0.61028  1.0000
  C   C578      1.0  0.11304  0.00843  0.59878  1.0000
  H   H584      1.0  0.66068  0.71089  0.60471  1.0000
  H   H585      1.0  0.00533  0.19486  0.72418  1.0000
  H   H586      1.0  0.80462  0.19495  0.83842  1.0000
  H   H587      1.0  0.89288  0.18515  0.59559  1.0000
  C   C579      1.0  0.95024  0.94485  0.93914  1.0000
  H   H588      1.0  0.99935  0.89773  0.90315  1.0000
  H   H589      1.0  0.02070  0.79416  0.95437  1.0000
  C   C580      1.0  0.73268  0.92697  0.87375  1.0000
  C   C581      1.0  0.06323  0.14772  0.08372  1.0000
  C   C582      1.0  0.02933  0.12317  0.99309  1.0000
  S   S195      1.0  0.86728  0.93141  0.88464  1.0000
  H   H590      1.0  0.90286  0.02845  0.99043  1.0000
  C   C583      1.0  0.71521  0.00415  0.99134  1.0000
  C   C584      1.0  0.04880  0.95564  0.96198  1.0000
  C   C585      1.0  0.98725  0.72752  0.01684  1.0000
  C   C586      1.0  0.99279  0.02926  0.92719  1.0000
  C   C587      1.0  0.00933  0.88075  0.98610  1.0000
  C   C588      1.0  0.98151  0.03625  0.97634  1.0000
  H   H591      1.0  0.10952  0.99792  0.98218  1.0000
  H   H592      1.0  0.77562  0.74983  0.90443  1.0000
  H   H593      1.0  0.01763  0.19070  0.96048  1.0000
  H   H594      1.0  0.87621  0.00356  0.94594  1.0000
  C   C589      1.0  0.72005  0.04014  0.96699  1.0000
  H   H595      1.0  0.05261  0.93572  0.04259  1.0000
  C   C590      1.0  0.00170  0.00114  0.01673  1.0000
  C   C591      1.0  0.03645  0.96206  0.01047  1.0000
  S   S196      1.0  0.80879  0.91507  0.98792  1.0000
  C   C592      1.0  0.02997  0.16678  0.99533  1.0000
  S   S197      1.0  0.09209  0.90592  0.95566  1.0000
  H   H596      1.0  0.74463  0.04866  0.98286  1.0000
  S   S198      1.0  0.90507  0.85007  0.01675  1.0000
  S   S199      1.0  0.66821  0.78920  0.06545  1.0000
  C   C593      1.0  0.13127  0.99155  0.95633  1.0000
  Fe  Fe100     1.0  0.86029  0.88578  0.94424  1.0000
  H   H597      1.0  0.04595  0.05762  0.03577  1.0000
  C   C594      1.0  0.95612  0.93060  0.03054  1.0000
  S   S200      1.0  0.73977  0.85696  0.94305  1.0000
  H   H598      1.0  0.03916  0.85263  0.98703  1.0000
  H   H599      1.0  0.70517  0.19769  0.90478  1.0000
  Fe  Fe101     1.0  0.09093  0.88223  0.87508  1.0000
  H   H600      1.0  0.97578  0.05583  0.89568  1.0000
  C   C595      1.0  0.98727  0.90652  0.93909  1.0000
  H   H601      1.0  0.88078  0.99314  0.01492  1.0000
  C   C596      1.0  0.02061  0.77019  0.98389  1.0000
  S   S201      1.0  0.10536  0.80741  0.86419  1.0000
  H   H602      1.0  0.99023  0.00353  0.05259  1.0000
  N   N51       1.0  0.93487  0.95602  0.98435  1.0000
  Fe  Fe102     1.0  0.80160  0.85038  0.96993  1.0000
  H   H603      1.0  0.76387  0.91846  0.88870  1.0000
  S   S202      1.0  0.94378  0.71849  0.01467  1.0000
  C   C597      1.0  0.99360  0.89251  0.03212  1.0000
  N   N52       1.0  0.72231  0.76450  0.93608  1.0000
  H   H604      1.0  0.73149  0.78564  0.01203  1.0000
  S   S203      1.0  0.85058  0.82288  0.92200  1.0000
  C   C598      1.0  0.04632  0.09147  0.03709  1.0000
  C   C599      1.0  0.89679  0.99740  0.98398  1.0000
  C   C600      1.0  0.71374  0.90224  0.89372  1.0000
  H   H605      1.0  0.68020  0.96455  0.98795  1.0000
  H   H606      1.0  0.03485  0.98274  0.88152  1.0000
  H   H607      1.0  0.01081  0.87307  0.06891  1.0000
  Fe  Fe103     1.0  0.94944  0.08717  0.07617  1.0000
  H   H608      1.0  0.66474  0.78280  0.95728  1.0000
  S   S204      1.0  0.11569  0.14605  0.94687  1.0000
  C   C601      1.0  0.05530  0.71267  0.05744  1.0000
  H   H609      1.0  0.91446  0.83262  0.88781  1.0000
  H   H610      1.0  0.73595  0.98455  0.02629  1.0000
  C   C602      1.0  0.67345  0.91357  0.87389  1.0000
  C   C603      1.0  0.68140  0.77983  0.92570  1.0000
  C   C604      1.0  0.65688  0.01928  0.92565  1.0000
  N   N53       1.0  0.04651  0.17867  0.04048  1.0000
  S   S205      1.0  0.84121  0.80955  0.04358  1.0000
  H   H611      1.0  0.77598  0.74188  0.99391  1.0000
  C   C605      1.0  0.02612  0.98834  0.91957  1.0000
  H   H612      1.0  0.08726  0.00767  0.88594  1.0000
  C   C606      1.0  0.06346  0.10372  0.08277  1.0000
  H   H613      1.0  0.93384  0.96572  0.90280  1.0000
  H   H614      1.0  0.94447  0.94039  0.06656  1.0000
  C   C607      1.0  0.98681  0.76117  0.98180  1.0000
  C   C608      1.0  0.11874  0.99676  0.90229  1.0000
  H   H615      1.0  0.01571  0.11400  0.95746  1.0000
  Fe  Fe104     1.0  0.08907  0.13889  0.86641  1.0000
  C   C609      1.0  0.74303  0.75364  0.99057  1.0000
  S   S206      1.0  0.94480  0.08994  0.98916  1.0000
  H   H616      1.0  0.73714  0.72639  0.00969  1.0000
  Fe  Fe105     1.0  0.85223  0.87238  0.05802  1.0000
  H   H617      1.0  0.96065  0.77946  0.95213  1.0000
  C   C610      1.0  0.14305  0.90614  0.08632  1.0000
  C   C611      1.0  0.74337  0.76078  0.89618  1.0000
  Fe  Fe106     1.0  0.89175  0.78897  0.99798  1.0000
  S   S207      1.0  0.09773  0.75628  0.02225  1.0000
  C   C612      1.0  0.14711  0.98794  0.86937  1.0000
  C   C613      1.0  0.02186  0.70244  0.05402  1.0000
  C   C614      1.0  0.05471  0.74657  0.02223  1.0000
  S   S208      1.0  0.14911  0.09093  0.84774  1.0000
  C   C615      1.0  0.72329  0.77322  0.84436  1.0000
  C   C616      1.0  0.69292  0.06505  0.92192  1.0000
  H   H618      1.0  0.69672  0.09301  0.90306  1.0000
  N   N54       1.0  0.66173  0.05459  0.90200  1.0000
  C   C617      1.0  0.68377  0.99320  0.97022  1.0000
  C   C618      1.0  0.66045  0.79255  0.87439  1.0000
  H   H619      1.0  0.77760  0.15940  0.89844  1.0000
  C   C619      1.0  0.92424  0.84899  0.86025  1.0000
  H   H620      1.0  0.14067  0.80090  0.08310  1.0000
  C   C620      1.0  0.90542  0.89740  0.85029  1.0000
  H   H621      1.0  0.11197  0.70920  0.91322  1.0000
  C   C621      1.0  0.06897  0.70721  0.84799  1.0000
  S   S209      1.0  0.03245  0.12977  0.85057  1.0000
  C   C622      1.0  0.15076  0.86148  0.07135  1.0000
  H   H622      1.0  0.65857  0.89507  0.88972  1.0000
  C   C623      1.0  0.75775  0.19180  0.87531  1.0000
  H   H623      1.0  0.97091  0.78432  0.84365  1.0000
  S   S210      1.0  0.03360  0.12467  0.21887  1.0000
  H   H624      1.0  0.82600  0.87326  0.23345  1.0000
  C   C624      1.0  0.74363  0.03992  0.20501  1.0000
  C   C625      1.0  0.90606  0.78436  0.19737  1.0000
  H   H625      1.0  0.90517  0.81465  0.29654  1.0000
  H   H626      1.0  0.96704  0.70148  0.12823  1.0000
  C   C626      1.0  0.65141  0.86554  0.12139  1.0000
  H   H627      1.0  0.12049  0.79991  0.18828  1.0000
  C   C627      1.0  0.92171  0.82506  0.27081  1.0000
  C   C628      1.0  0.88430  0.73947  0.31709  1.0000
  Fe  Fe107     1.0  0.74584  0.77036  0.24183  1.0000
  Fe  Fe108     1.0  0.98558  0.10419  0.18278  1.0000
  C   C629      1.0  0.68837  0.02405  0.15950  1.0000
  C   C630      1.0  0.77204  0.84375  0.30911  1.0000
  H   H628      1.0  0.89486  0.74551  0.13388  1.0000
  C   C631      1.0  0.86815  0.72710  0.27045  1.0000
  C   C632      1.0  0.74236  0.93545  0.14124  1.0000
  Fe  Fe109     1.0  0.71963  0.75180  0.13017  1.0000
  S   S211      1.0  0.92811  0.14654  0.12704  1.0000
  H   H629      1.0  0.92256  0.96495  0.28511  1.0000
  C   C633      1.0  0.98699  0.73493  0.19105  1.0000
  S   S212      1.0  0.14041  0.97945  0.25190  1.0000
  H   H630      1.0  0.94761  0.82743  0.29598  1.0000
  H   H631      1.0  0.73747  0.17968  0.29904  1.0000
  C   C634      1.0  0.89195  0.94805  0.17520  1.0000
  H   H632      1.0  0.77366  0.03435  0.19655  1.0000
  C   C635      1.0  0.02442  0.18205  0.20177  1.0000
  H   H633      1.0  0.07385  0.95697  0.26316  1.0000
  C   C636      1.0  0.92593  0.71860  0.33489  1.0000
  S   S213      1.0  0.84120  0.13168  0.18486  1.0000
  C   C637      1.0  0.86303  0.17256  0.26947  1.0000
  C   C638      1.0  0.03356  0.96672  0.31777  1.0000
  H   H634      1.0  0.78408  0.83064  0.23102  1.0000
  H   H635      1.0  0.12519  0.08977  0.30406  1.0000
  H   H636      1.0  0.86443  0.76531  0.33925  1.0000
  C   C639      1.0  0.92643  0.95607  0.18425  1.0000
  N   N55       1.0  0.11135  0.85366  0.13256  1.0000
  H   H637      1.0  0.93307  0.83975  0.13164  1.0000
  C   C640      1.0  0.96619  0.87911  0.15861  1.0000
  H   H638      1.0  0.00882  0.13157  0.31660  1.0000
  H   H639      1.0  0.87827  0.04607  0.26027  1.0000
  H   H640      1.0  0.97574  0.10696  0.33264  1.0000
  C   C641      1.0  0.06523  0.94010  0.29189  1.0000
  H   H641      1.0  0.01872  0.71576  0.18871  1.0000
  H   H642      1.0  0.90776  0.06635  0.30658  1.0000
  C   C642      1.0  0.95807  0.72711  0.15680  1.0000
  H   H643      1.0  0.71093  0.71269  0.30289  1.0000
  H   H644      1.0  0.92432  0.98904  0.19756  1.0000
  H   H645      1.0  0.76396  0.90070  0.13499  1.0000
  C   C643      1.0  0.83161  0.17130  0.23300  1.0000
  Fe  Fe110     1.0  0.71433  0.06751  0.34078  1.0000
  S   S214      1.0  0.73877  0.81782  0.30631  1.0000
  Fe  Fe111     1.0  0.97791  0.01324  0.16694  1.0000
  H   H646      1.0  0.78724  0.95288  0.18578  1.0000
  H   H647      1.0  0.01821  0.00396  0.30957  1.0000
  H   H648      1.0  0.66931  0.18383  0.29868  1.0000
  H   H649      1.0  0.07694  0.15680  0.11915  1.0000
  H   H650      1.0  0.69274  0.18004  0.20834  1.0000
  H   H651      1.0  0.99731  0.77316  0.25501  1.0000
  H   H652      1.0  0.07065  0.84659  0.17796  1.0000
  S   S215      1.0  0.91995  0.04880  0.11081  1.0000
  C   C644      1.0  0.96337  0.92193  0.17535  1.0000
  C   C645      1.0  0.67408  0.99524  0.13144  1.0000
  H   H653      1.0  0.72280  0.07733  0.19411  1.0000
  H   H654      1.0  0.85479  0.08397  0.30770  1.0000
  S   S216      1.0  0.83995  0.93217  0.30975  1.0000
  H   H655      1.0  0.74603  0.03257  0.24732  1.0000
  C   C646      1.0  0.79021  0.84542  0.26633  1.0000
  C   C647      1.0  0.91739  0.75208  0.15973  1.0000
  C   C648      1.0  0.07267  0.87002  0.33842  1.0000
  S   S217      1.0  0.77495  0.06486  0.33714  1.0000
  N   N56       1.0  0.72882  0.00937  0.17636  1.0000
  C   C649      1.0  0.13464  0.83553  0.09509  1.0000
  N   N57       1.0  0.89463  0.01437  0.33829  1.0000
  C   C650      1.0  0.88336  0.05468  0.30143  1.0000
  Fe  Fe112     1.0  0.90357  0.10422  0.16689  1.0000
  S   S218      1.0  0.00883  0.04823  0.12920  1.0000
  C   C651      1.0  0.70135  0.95101  0.12142  1.0000
  H   H656      1.0  0.66702  0.05824  0.16769  1.0000
  S   S219      1.0  0.69623  0.75342  0.20440  1.0000
  H   H657      1.0  0.07680  0.07954  0.11746  1.0000
  N   N58       1.0  0.93458  0.79143  0.23133  1.0000
  S   S220      1.0  0.95950  0.06580  0.22623  1.0000
  C   C652      1.0  0.89418  0.90662  0.15499  1.0000
  H   H658      1.0  0.08665  0.16880  0.22535  1.0000
  H   H659      1.0  0.08516  0.80559  0.12901  1.0000
  H   H660      1.0  0.06490  0.16404  0.30965  1.0000
  S   S221      1.0  0.12872  0.85935  0.27694  1.0000
  S   S222      1.0  0.76542  0.77599  0.16580  1.0000
  C   C653      1.0  0.81440  0.86927  0.26788  1.0000
  C   C654      1.0  0.82067  0.89111  0.31253  1.0000
  H   H661      1.0  0.06051  0.05234  0.31164  1.0000
  C   C655      1.0  0.72368  0.18842  0.33377  1.0000
  H   H662      1.0  0.11352  0.95890  0.13687  1.0000
  C   C656      1.0  0.11960  0.92424  0.12488  1.0000
  H   H663      1.0  0.99477  0.85259  0.15179  1.0000
  C   C657      1.0  0.91492  0.97033  0.32368  1.0000
  H   H664      1.0  0.89396  0.14895  0.26794  1.0000
  H   H665      1.0  0.90126  0.86029  0.25155  1.0000
  C   C658      1.0  0.05640  0.19471  0.21015  1.0000
  H   H666      1.0  0.08622  0.91135  0.17828  1.0000
  C   C659      1.0  0.08541  0.89185  0.30313  1.0000
  C   C660      1.0  0.10405  0.89725  0.14791  1.0000
  C   C661      1.0  0.09608  0.82497  0.15805  1.0000
  S   S223      1.0  0.85016  0.89957  0.13668  1.0000
  H   H667      1.0  0.86326  0.97483  0.18147  1.0000
  C   C662      1.0  0.93130  0.87192  0.14712  1.0000
  S   S224      1.0  0.66642  0.10213  0.27138  1.0000
  H   H668      1.0  0.83610  0.74436  0.25647  1.0000
  S   S225      1.0  0.00421  0.93555  0.17804  1.0000
  C   C663      1.0  0.97464  0.76738  0.22844  1.0000
  H   H669      1.0  0.87434  0.80339  0.19959  1.0000
  C   C664      1.0  0.68555  0.19030  0.33377  1.0000
  C   C665      1.0  0.75553  0.96516  0.16940  1.0000
  H   H670      1.0  0.68111  0.86176  0.11752  1.0000
  H   H671      1.0  0.69052  0.92892  0.09864  1.0000
  H   H672      1.0  0.65242  0.89479  0.26925  1.0000
  H   H673      1.0  0.69882  0.80160  0.52152  1.0000
  S   S226      1.0  0.03271  0.17143  0.54020  1.0000
  C   C666      1.0  0.77032  0.98861  0.55684  1.0000
  H   H674      1.0  0.03325  0.88031  0.39463  1.0000
  C   C667      1.0  0.03655  0.07146  0.43159  1.0000
  C   C668      1.0  0.07280  0.15764  0.39318  1.0000
  Fe  Fe113     1.0  0.00116  0.94575  0.58955  1.0000
  S   S227      1.0  0.02802  0.98161  0.54402  1.0000
  C   C669      1.0  0.04204  0.89698  0.36584  1.0000
  C   C670      1.0  0.14087  0.07381  0.38770  1.0000
  S   S228      1.0  0.14765  0.91587  0.57912  1.0000
  C   C671      1.0  0.02357  0.94553  0.35674  1.0000
  C   C672      1.0  0.76900  0.94624  0.54771  1.0000
  S   S229      1.0  0.81050  0.11108  0.45771  1.0000
  H   H675      1.0  0.81035  0.05153  0.54018  1.0000
  H   H676      1.0  0.65567  0.00561  0.44759  1.0000
  H   H677      1.0  0.87274  0.05609  0.40046  1.0000
  H   H678      1.0  0.85329  0.89888  0.49777  1.0000
  C   C673      1.0  0.08578  0.74938  0.51497  1.0000
  C   C674      1.0  0.81182  0.80653  0.47641  1.0000
  S   S230      1.0  0.05148  0.77985  0.55510  1.0000
  H   H679      1.0  0.82980  0.79733  0.44430  1.0000
  C   C675      1.0  0.92663  0.93152  0.35867  1.0000
  C   C676      1.0  0.80472  0.88684  0.35658  1.0000
  H   H680      1.0  0.07096  0.02836  0.50215  1.0000
  H   H681      1.0  0.02048  0.70540  0.48577  1.0000
  H   H682      1.0  0.80951  0.90370  0.39128  1.0000
  H   H683      1.0  0.65923  0.04116  0.39711  1.0000
  S   S231      1.0  0.80960  0.98967  0.43881  1.0000
  C   C677      1.0  0.14477  0.06021  0.59043  1.0000
  C   C678      1.0  0.66732  0.72326  0.35244  1.0000
  C   C679      1.0  0.77941  0.86442  0.35428  1.0000
  C   C680      1.0  0.88645  0.07576  0.51399  1.0000
  C   C681      1.0  0.71900  0.76109  0.45670  1.0000
  C   C682      1.0  0.10886  0.74361  0.43191  1.0000
  C   C683      1.0  0.77688  0.76406  0.42890  1.0000
  C   C684      1.0  0.13029  0.08856  0.43592  1.0000
  S   S232      1.0  0.74384  0.94127  0.48715  1.0000
  C   C685      1.0  0.72021  0.79150  0.49473  1.0000
  C   C686      1.0  0.84793  0.07758  0.50952  1.0000
  C   C687      1.0  0.09664  0.13032  0.43874  1.0000
  H   H684      1.0  0.67275  0.92908  0.42741  1.0000
  C   C688      1.0  0.12065  0.70980  0.53590  1.0000
  S   S233      1.0  0.73737  0.99048  0.34904  1.0000
  C   C689      1.0  0.84030  0.04976  0.54392  1.0000
  C   C690      1.0  0.91762  0.93801  0.40894  1.0000
  S   S234      1.0  0.94555  0.73199  0.39518  1.0000
  S   S235      1.0  0.99198  0.98021  0.39816  1.0000
  S   S236      1.0  0.91801  0.70917  0.53187  1.0000
  H   H685      1.0  0.92595  0.90813  0.43600  1.0000
  C   C691      1.0  0.07952  0.76605  0.46285  1.0000
  C   C692      1.0  0.87121  0.02032  0.58348  1.0000
  Fe  Fe114     1.0  0.79859  0.98801  0.35235  1.0000
  H   H686      1.0  0.01391  0.09600  0.45174  1.0000
  H   H687      1.0  0.80012  0.84476  0.47928  1.0000
  H   H688      1.0  0.10466  0.75705  0.39201  1.0000
  C   C693      1.0  0.88201  0.87951  0.52324  1.0000
  H   H689      1.0  0.96326  0.14960  0.57819  1.0000
  Fe  Fe115     1.0  0.74703  0.99593  0.43506  1.0000
  C   C694      1.0  0.91144  0.83956  0.50722  1.0000
  C   C695      1.0  0.99948  0.11794  0.34900  1.0000
  H   H690      1.0  0.13815  0.81572  0.43465  1.0000
  N   N59       1.0  0.77836  0.79312  0.46704  1.0000
  Fe  Fe116     1.0  0.08793  0.17605  0.58250  1.0000
  H   H691      1.0  0.05245  0.79675  0.44676  1.0000
  C   C696      1.0  0.74719  0.74766  0.42314  1.0000
  H   H692      1.0  0.74956  0.20042  0.50339  1.0000
  H   H693      1.0  0.94776  0.04209  0.55390  1.0000
  C   C697      1.0  0.88975  0.89426  0.57273  1.0000
  H   H694      1.0  0.89303  0.98857  0.46412  1.0000
  C   C698      1.0  0.68843  0.09222  0.55973  1.0000
  H   H695      1.0  0.14783  0.06708  0.47134  1.0000
  C   C699      1.0  0.89868  0.98307  0.42441  1.0000
  C   C700      1.0  0.88724  0.02113  0.38827  1.0000
  C   C701      1.0  0.66573  0.06695  0.54815  1.0000
  H   H696      1.0  0.97125  0.78410  0.52860  1.0000
  C   C702      1.0  0.14530  0.97204  0.58176  1.0000
  S   S237      1.0  0.07530  0.88014  0.49794  1.0000
  C   C703      1.0  0.75022  0.80740  0.49928  1.0000
  H   H697      1.0  0.89247  0.09694  0.48694  1.0000
  C   C704      1.0  0.66370  0.90678  0.35056  1.0000
  Fe  Fe117     1.0  0.01574  0.94256  0.47770  1.0000
  N   N60       1.0  0.03401  0.07824  0.37888  1.0000
  C   C705      1.0  0.09453  0.00757  0.38110  1.0000
  C   C706      1.0  0.67263  0.13908  0.54234  1.0000
  H   H698      1.0  0.83207  0.78817  0.51354  1.0000
  C   C707      1.0  0.91777  0.04454  0.55170  1.0000
  H   H699      1.0  0.08937  0.14087  0.47646  1.0000
  H   H700      1.0  0.75636  0.01715  0.52690  1.0000
  H   H701      1.0  0.90608  0.82772  0.46881  1.0000
  Fe  Fe118     1.0  0.78060  0.06730  0.42384  1.0000
  H   H702      1.0  0.67807  0.03073  0.56220  1.0000
  H   H703      1.0  0.98692  0.14734  0.37381  1.0000
  H   H704      1.0  0.11706  0.98284  0.36098  1.0000
  Fe  Fe119     1.0  0.04445  0.85288  0.54729  1.0000
  Fe  Fe120     1.0  0.08602  0.91734  0.56722  1.0000
  S   S238      1.0  0.98422  0.91185  0.52109  1.0000
  H   H705      1.0  0.79897  0.75283  0.40304  1.0000
  C   C708      1.0  0.94799  0.81488  0.54087  1.0000
  S   S239      1.0  0.71819  0.07484  0.42727  1.0000
  S   S240      1.0  0.69903  0.17149  0.56432  1.0000
  C   C709      1.0  0.06866  0.03305  0.46041  1.0000
  H   H706      1.0  0.76430  0.86472  0.38668  1.0000
  H   H707      1.0  0.12278  0.97087  0.45706  1.0000
  H   H708      1.0  0.75171  0.82998  0.52984  1.0000
  C   C710      1.0  0.09770  0.00079  0.43497  1.0000
  H   H709      1.0  0.08767  0.83261  0.34629  1.0000
  H   H710      1.0  0.78764  0.87578  0.57918  1.0000
  H   H711      1.0  0.71819  0.07568  0.58251  1.0000
  H   H712      1.0  0.86698  0.92559  0.58460  1.0000
  H   H713      1.0  0.13219  0.19447  0.44211  1.0000
  C   C711      1.0  0.06248  0.04695  0.35350  1.0000
  H   H714      1.0  0.69657  0.74751  0.45366  1.0000
  H   H715      1.0  0.77310  0.19774  0.37817  1.0000
  C   C712      1.0  0.91012  0.01701  0.58661  1.0000
  C   C713      1.0  0.14479  0.70571  0.45388  1.0000
  C   C714      1.0  0.66147  0.94024  0.38620  1.0000
  H   H716      1.0  0.67650  0.87016  0.36391  1.0000
  H   H717      1.0  0.74667  0.72396  0.39348  1.0000
  H   H718      1.0  0.66531  0.75704  0.36246  1.0000
  C   C715      1.0  0.78796  0.90905  0.58642  1.0000
  C   C716      1.0  0.95449  0.83023  0.59043  1.0000
  H   H719      1.0  0.02252  0.70357  0.58169  1.0000
  C   C717      1.0  0.08333  0.14296  0.34472  1.0000
  C   C718      1.0  0.74361  0.19878  0.37860  1.0000
  H   H720      1.0  0.94240  0.89680  0.34667  1.0000
  C   C719      1.0  0.11738  0.10098  0.34174  1.0000
  C   C720      1.0  0.66841  0.20077  0.37895  1.0000
