data_image0
_chemical_formula_structural       HC2H3CH3C3FeC3HCH3C3H4SH2C3FeNHC2H2SHSNH2C3FeHNC3HCHNH2C2SCHCHC6HCHCS2CHSC3H4CHC5FeHCS2HCSCNHCHC2HFeHC2S2FeHCH2C3SCHSHSH5CHC4H3S2CFeC2HC2FeHCSC7HS2H2FeHNSHCH3SHCNCH2SHC2H2CSH2C2HC3SH2C2SNCHFeH2C2SCHSNCHFeHFeHS2H2SH2C2HCHCH2CH2CH3C3FeSCH4C3FeCHCHC3HSH3CSC3SHS2CHSHFeC2H4C3HFeCHCHSNHSFeHC2HC2SC2SHC2H2Fe2H2SC3SHN2CHC4HCHSH2CH2FeC2FeCHCSHSCHNCH2CSH2C2HSH2C2H3SCSFeC2S2HC2H2C2H5SHSCSCS2H2FeC2SCSHFe2SC5HCFeH2SCHSCH2NCHFeHCSH3CFeH2CSCHFeSFe3C2SC3HSCHSHCNCH5CHNCH4CH4NHCSC2H3C4SFeCHSH3CNHC3HCFeCHC2HCSC2H4C3HCSCHC2HFeCHC2HCH2C2HCNSH2S2CHCH2FeSH2C3HSFeC4HS2HCHCFeH2CHC2SHCFeH2CH2CSFeHCSHCSHCNCHS3FeH2CHSFeH3C2FeHSCSC2HCHCHC2HC2HFeHCHNCHCH2SC2HC3HSH5C2SHNC2HCNSHCSCH2C3HCFeCNHCH2CHNH2S2C4HSCH2FeCH3C2HC3H2C3HCH2CHCH3C2H2CFeHCNHFeCHC2HNHC2FeSFeCH2FeH3SH2CH2FeCSFeC6HCHNC2H3SCSH3FeSCS2C2HCH6SFeHCS2C3FeCH2SCHC5HCHC3H2SNCH2SC4HCNSC2H2CFeSHSNHCSH3CH2CHSHFeSH2C2FeH2CH4CHCHCHCHCH3C2FeCHSH3C4NC2HSC3HCH4S2CHC2H2S2C5H2CSHCFe2CH3FeSCFeH2CSC2HCSCHSC3HFeC2HS2HCHSC2H2CHCHCHCHCH2CNCSHCHCHSCFeSH2C3HC2H2SHCFeCH2CFeHC3HS2CH3CHCHCSHC3HCSNHCHCH3NH2SNFeCSH2C3H2CHSC2SCHCHSH2FeCHCH2CH5SCSFeCHC2HFeHS2H3CH3SHSH4CNH4SC2SFeCSC4H2NHC3SCHC3SCHCSHC2H4C2HNCHFeCHCHFeCHC2H2CH2CH3C2HCHCFeH2SH2CSCH2SFeCFeCFeC4H3C2H3CS2HCH2SHCS2FeCHCHNC2HSCH2SFeC3SC3H2SC5HCH2SHCNCHCFeCFeC3H2C3S2FeSHSHCHSCHFeSH3CNC2FeCHNH4CNH5S2H2CHFeCSHNC2Fe2CNHCSC2HC3HC2HCHC3NCH3CHFeCFeHC3H2C2HCHCS2HCHC4HFeH3CH3FeH3SC2SHCFeH4S2CFeCH2CHCH2C2FeC3S3NHSC2H3C2HCH2SC2H2CH
_chemical_formula_sum              "H576 C576 Fe96 S192 N48"
_cell_length_a       32.3469
_cell_length_b       35.872
_cell_length_c       23.0849
_cell_angle_alpha    88.0431
_cell_angle_beta     74.4266
_cell_angle_gamma    118.8

_space_group_name_H-M_alt    "P 1"
_space_group_IT_number       1

loop_
  _space_group_symop_operation_xyz
  'x, y, z'

loop_
  _atom_site_type_symbol
  _atom_site_label
  _atom_site_symmetry_multiplicity
  _atom_site_fract_x
  _atom_site_fract_y
  _atom_site_fract_z
  _atom_site_occupancy
  H   H1        1.0  0.44218  0.10876  0.05854  1.0000
  C   C1        1.0  0.18908  0.05978  0.13612  1.0000
  C   C2        1.0  0.36304  0.25776  0.99096  1.0000
  H   H2        1.0  0.13056  0.34051  0.97136  1.0000
  H   H3        1.0  0.18891  0.11541  0.94021  1.0000
  H   H4        1.0  0.34003  0.00795  0.94662  1.0000
  C   C3        1.0  0.36200  0.02977  0.97183  1.0000
  H   H5        1.0  0.25868  0.40939  0.07092  1.0000
  H   H6        1.0  0.20645  0.30131  0.93872  1.0000
  H   H7        1.0  0.18036  0.11005  0.09788  1.0000
  C   C4        1.0  0.21780  0.32512  0.96767  1.0000
  C   C5        1.0  0.13004  0.46049  0.05104  1.0000
  C   C6        1.0  0.12993  0.04915  0.97736  1.0000
  Fe  Fe1       1.0  0.12333  0.18220  0.08165  1.0000
  C   C7        1.0  0.31565  0.09442  0.96772  1.0000
  C   C8        1.0  0.30823  0.26897  0.07603  1.0000
  C   C9        1.0  0.13325  0.49423  0.01440  1.0000
  H   H8        1.0  0.17395  0.37619  0.06279  1.0000
  C   C10       1.0  0.12196  0.11151  0.99833  1.0000
  H   H9        1.0  0.27126  0.24596  0.11018  1.0000
  H   H10       1.0  0.51359  0.11303  0.92102  1.0000
  H   H11       1.0  0.48941  0.14443  0.89663  1.0000
  C   C11       1.0  0.46587  0.45688  0.12497  1.0000
  C   C12       1.0  0.19961  0.36668  0.03716  1.0000
  C   C13       1.0  0.13422  0.31663  0.99802  1.0000
  H   H12       1.0  0.40485  0.34641  0.08448  1.0000
  H   H13       1.0  0.24191  0.22536  0.02014  1.0000
  H   H14       1.0  0.27917  0.06877  0.99519  1.0000
  H   H15       1.0  0.33188  0.12477  0.04429  1.0000
  S   S1        1.0  0.40178  0.36598  0.96285  1.0000
  H   H16       1.0  0.47588  0.36936  0.12415  1.0000
  H   H17       1.0  0.33644  0.27494  0.09889  1.0000
  C   C14       1.0  0.34253  0.02412  0.03522  1.0000
  C   C15       1.0  0.48277  0.38054  0.07653  1.0000
  C   C16       1.0  0.26616  0.34357  0.97107  1.0000
  Fe  Fe2       1.0  0.15732  0.42642  0.92264  1.0000
  N   N1        1.0  0.50971  0.48716  0.13205  1.0000
  H   H18       1.0  0.39389  0.27613  0.00792  1.0000
  C   C17       1.0  0.37140  0.24095  0.93812  1.0000
  C   C18       1.0  0.13236  0.46399  0.11040  1.0000
  H   H19       1.0  0.29198  0.33437  0.94492  1.0000
  H   H20       1.0  0.52755  0.12217  0.10312  1.0000
  S   S2        1.0  0.14168  0.24871  0.09613  1.0000
  H   H21       1.0  0.04952  0.09713  0.05612  1.0000
  S   S3        1.0  0.43277  0.19805  0.99451  1.0000
  N   N2        1.0  0.18505  0.33640  0.00112  1.0000
  H   H22       1.0  0.25486  0.19457  0.92725  1.0000
  H   H23       1.0  0.41533  0.44174  0.07280  1.0000
  C   C19       1.0  0.44252  0.36754  0.05404  1.0000
  C   C20       1.0  0.45129  0.38222  0.99255  1.0000
  C   C21       1.0  0.05122  0.03874  0.04227  1.0000
  Fe  Fe3       1.0  0.39913  0.19043  0.09563  1.0000
  H   H24       1.0  0.12439  0.28775  0.97602  1.0000
  N   N3        1.0  0.43836  0.09206  0.97161  1.0000
  C   C22       1.0  0.27833  0.22950  0.99775  1.0000
  C   C23       1.0  0.39348  0.15930  0.96046  1.0000
  C   C24       1.0  0.33361  0.09547  0.90488  1.0000
  H   H25       1.0  0.10653  0.30601  0.04484  1.0000
  C   C25       1.0  0.44933  0.46632  0.07951  1.0000
  H   H26       1.0  0.13031  0.49127  0.96906  1.0000
  N   N4        1.0  0.31667  0.25123  0.02067  1.0000
  H   H27       1.0  0.31013  0.30017  0.06426  1.0000
  H   H28       1.0  0.35664  0.04867  0.11588  1.0000
  C   C26       1.0  0.41010  0.06417  0.94067  1.0000
  C   C27       1.0  0.41977  0.08670  0.03392  1.0000
  S   S4        1.0  0.50691  0.05312  0.03075  1.0000
  C   C28       1.0  0.28539  0.21204  0.94519  1.0000
  H   H29       1.0  0.50542  0.15108  0.96558  1.0000
  C   C29       1.0  0.28098  0.37390  0.00857  1.0000
  H   H30       1.0  0.31826  0.38816  0.01192  1.0000
  C   C30       1.0  0.50031  0.40957  0.95390  1.0000
  C   C31       1.0  0.08037  0.02145  0.01425  1.0000
  C   C32       1.0  0.24765  0.38578  0.04160  1.0000
  C   C33       1.0  0.34557  0.12623  0.99558  1.0000
  C   C34       1.0  0.07219  0.08384  0.03473  1.0000
  C   C35       1.0  0.37149  0.05279  0.06663  1.0000
  H   H31       1.0  0.04085  0.11043  0.91900  1.0000
  C   C36       1.0  0.41097  0.16104  0.89749  1.0000
  H   H32       1.0  0.50266  0.28434  0.92534  1.0000
  C   C37       1.0  0.48929  0.12691  0.93738  1.0000
  S   S5        1.0  0.22619  0.42166  0.89517  1.0000
  S   S6        1.0  0.14879  0.16772  0.99023  1.0000
  C   C38       1.0  0.15065  0.09415  0.96911  1.0000
  H   H33       1.0  0.15217  0.03601  0.95402  1.0000
  S   S7        1.0  0.12083  0.41303  0.02415  1.0000
  C   C39       1.0  0.16152  0.07754  0.12436  1.0000
  C   C40       1.0  0.33212  0.21737  0.91587  1.0000
  C   C41       1.0  0.13838  0.50145  0.13298  1.0000
  H   H34       1.0  0.12995  0.43791  0.13873  1.0000
  H   H35       1.0  0.50780  0.42089  0.90643  1.0000
  H   H36       1.0  0.40798  0.24571  0.91473  1.0000
  H   H37       1.0  0.22952  0.07870  0.12031  1.0000
  C   C42       1.0  0.04753  0.08463  0.90564  1.0000
  H   H38       1.0  0.08822  0.06779  0.14054  1.0000
  C   C43       1.0  0.17265  0.36548  0.19372  1.0000
  C   C44       1.0  0.08046  0.30062  0.31645  1.0000
  C   C45       1.0  0.17978  0.33006  0.19097  1.0000
  C   C46       1.0  0.43965  0.36183  0.26785  1.0000
  C   C47       1.0  0.23870  0.23277  0.31376  1.0000
  Fe  Fe4       1.0  0.31635  0.13528  0.21381  1.0000
  H   H39       1.0  0.08680  0.38757  0.25506  1.0000
  C   C48       1.0  0.10940  0.05314  0.14749  1.0000
  S   S8        1.0  0.05817  0.08348  0.28224  1.0000
  S   S9        1.0  0.09653  0.20768  0.24396  1.0000
  H   H40       1.0  0.49991  0.46849  0.22485  1.0000
  C   C49       1.0  0.31253  0.01445  0.26431  1.0000
  S   S10       1.0  0.47974  0.19569  0.25862  1.0000
  C   C50       1.0  0.12998  0.35504  0.38755  1.0000
  N   N5        1.0  0.08536  0.01157  0.17934  1.0000
  H   H41       1.0  0.23576  0.14437  0.24429  1.0000
  C   C51       1.0  0.24985  0.36655  0.22797  1.0000
  H   H42       1.0  0.26390  0.42803  0.25217  1.0000
  C   C52       1.0  0.38147  0.00509  0.22060  1.0000
  C   C53       1.0  0.39359  0.06662  0.26866  1.0000
  H   H43       1.0  0.15499  0.30247  0.17605  1.0000
  Fe  Fe5       1.0  0.08362  0.14450  0.21734  1.0000
  H   H44       1.0  0.50028  0.23537  0.36266  1.0000
  C   C54       1.0  0.43803  0.29390  0.27875  1.0000
  C   C55       1.0  0.24110  0.40111  0.23373  1.0000
  S   S11       1.0  0.38411  0.48867  0.29229  1.0000
  S   S12       1.0  0.37615  0.29692  0.22009  1.0000
  Fe  Fe6       1.0  0.06761  0.21624  0.16998  1.0000
  H   H45       1.0  0.29726  0.22186  0.32021  1.0000
  C   C56       1.0  0.34312  0.05253  0.28163  1.0000
  H   H46       1.0  0.26400  0.26328  0.28160  1.0000
  H   H47       1.0  0.14319  0.00775  0.31760  1.0000
  C   C57       1.0  0.48592  0.35078  0.32727  1.0000
  C   C58       1.0  0.20405  0.40145  0.21375  1.0000
  C   C59       1.0  0.52668  0.47550  0.17874  1.0000
  S   S13       1.0  0.38615  0.13608  0.16222  1.0000
  C   C60       1.0  0.15683  0.11847  0.26844  1.0000
  H   H48       1.0  0.28042  0.36749  0.23985  1.0000
  S   S14       1.0  0.35253  0.18134  0.27114  1.0000
  H   H49       1.0  0.42728  0.38187  0.25112  1.0000
  S   S15       1.0  0.44250  0.24146  0.14272  1.0000
  H   H50       1.0  0.06780  0.01271  0.32670  1.0000
  H   H51       1.0  0.32747  0.07070  0.30559  1.0000
  H   H52       1.0  0.31537  0.33115  0.30344  1.0000
  H   H53       1.0  0.52901  0.44604  0.17171  1.0000
  H   H54       1.0  0.48493  0.40996  0.31257  1.0000
  C   C61       1.0  0.46929  0.30920  0.31452  1.0000
  H   H55       1.0  0.44397  0.42480  0.15365  1.0000
  C   C62       1.0  0.25739  0.20912  0.33452  1.0000
  C   C63       1.0  0.19451  0.07552  0.27807  1.0000
  C   C64       1.0  0.21978  0.33139  0.20524  1.0000
  C   C65       1.0  0.32322  0.34360  0.34374  1.0000
  H   H56       1.0  0.30802  0.39491  0.32941  1.0000
  H   H57       1.0  0.45226  0.05343  0.22788  1.0000
  H   H58       1.0  0.16076  0.14960  0.25711  1.0000
  S   S16       1.0  0.34215  0.49043  0.15150  1.0000
  S   S17       1.0  0.15949  0.17456  0.14712  1.0000
  C   C66       1.0  0.14699  0.03877  0.30444  1.0000
  Fe  Fe7       1.0  0.42355  0.18716  0.21372  1.0000
  C   C67       1.0  0.18723  0.21637  0.33361  1.0000
  C   C68       1.0  0.42169  0.31942  0.25685  1.0000
  H   H59       1.0  0.41740  0.09575  0.28295  1.0000
  C   C69       1.0  0.10873  0.36749  0.35118  1.0000
  C   C70       1.0  0.50841  0.15693  0.16937  1.0000
  Fe  Fe8       1.0  0.16967  0.23769  0.16949  1.0000
  H   H60       1.0  0.18566  0.00388  0.17905  1.0000
  C   C71       1.0  0.46407  0.49966  0.32304  1.0000
  S   S18       1.0  0.52125  0.36709  0.37704  1.0000
  C   C72       1.0  0.51253  0.17107  0.22438  1.0000
  C   C73       1.0  0.19931  0.11562  0.26229  1.0000
  C   C74       1.0  0.16433  0.01750  0.16892  1.0000
  C   C75       1.0  0.47216  0.37769  0.30268  1.0000
  C   C76       1.0  0.10960  0.08120  0.28884  1.0000
  C   C77       1.0  0.41308  0.04289  0.23773  1.0000
  C   C78       1.0  0.10438  0.04159  0.30965  1.0000
  H   H61       1.0  0.48062  0.28861  0.33215  1.0000
  S   S19       1.0  0.24757  0.07070  0.25882  1.0000
  S   S20       1.0  0.20015  0.44821  0.20807  1.0000
  H   H62       1.0  0.14383  0.36549  0.17846  1.0000
  H   H63       1.0  0.48782  0.16402  0.14549  1.0000
  Fe  Fe9       1.0  0.36993  0.23416  0.19762  1.0000
  H   H64       1.0  0.43751  0.47253  0.36045  1.0000
  N   N6        1.0  0.08440  0.34040  0.31623  1.0000
  S   S21       1.0  0.23309  0.28994  0.19254  1.0000
  H   H65       1.0  0.42588  0.26178  0.26958  1.0000
  C   C79       1.0  0.12619  0.31461  0.38804  1.0000
  H   H66       1.0  0.17314  0.23508  0.31708  1.0000
  H   H67       1.0  0.27329  0.00382  0.27496  1.0000
  H   H68       1.0  0.06073  0.27883  0.28937  1.0000
  S   S22       1.0  0.43845  0.04068  0.37553  1.0000
  H   H69       1.0  0.09702  0.25523  0.35336  1.0000
  C   C80       1.0  0.10132  0.28717  0.35227  1.0000
  N   N7        1.0  0.15518  0.17694  0.37216  1.0000
  C   C81       1.0  0.22454  0.16893  0.37350  1.0000
  H   H70       1.0  0.09043  0.17409  0.36020  1.0000
  H   H71       1.0  0.23882  0.14983  0.38812  1.0000
  S   S23       1.0  0.04623  0.14925  0.15040  1.0000
  H   H72       1.0  0.11182  0.39899  0.35103  1.0000
  C   C82       1.0  0.31958  0.37961  0.35789  1.0000
  C   C83       1.0  0.33899  0.32483  0.38054  1.0000
  H   H73       1.0  0.05024  0.33288  0.24639  1.0000
  H   H74       1.0  0.34239  0.29715  0.36878  1.0000
  C   C84       1.0  0.06059  0.35361  0.28078  1.0000
  S   S24       1.0  0.32714  0.18742  0.14386  1.0000
  H   H75       1.0  0.35097  0.48725  0.59515  1.0000
  H   H76       1.0  0.20275  0.49279  0.51447  1.0000
  C   C85       1.0  0.34878  0.37771  0.44309  1.0000
  C   C86       1.0  0.30593  0.10101  0.61069  1.0000
  H   H77       1.0  0.14183  0.30436  0.41684  1.0000
  C   C87       1.0  0.05956  0.04585  0.49698  1.0000
  C   C88       1.0  0.50096  0.21486  0.39908  1.0000
  C   C89       1.0  0.34171  0.46174  0.63132  1.0000
  S   S25       1.0  0.47257  0.01455  0.48567  1.0000
  H   H78       1.0  0.36061  0.29034  0.46020  1.0000
  H   H79       1.0  0.37941  0.13300  0.54329  1.0000
  C   C90       1.0  0.07034  0.04376  0.59652  1.0000
  C   C91       1.0  0.15089  0.29050  0.55262  1.0000
  S   S26       1.0  0.27648  0.23552  0.59020  1.0000
  N   N8        1.0  0.35177  0.34211  0.42929  1.0000
  C   C92       1.0  0.10949  0.29310  0.55023  1.0000
  H   H80       1.0  0.23821  0.11581  0.47668  1.0000
  Fe  Fe10      1.0  0.22338  0.25410  0.57319  1.0000
  H   H81       1.0  0.14902  0.25956  0.55441  1.0000
  H   H82       1.0  0.44354  0.06006  0.60300  1.0000
  C   C93       1.0  0.44719  0.23514  0.47065  1.0000
  C   C94       1.0  0.11099  0.33270  0.54990  1.0000
  S   S27       1.0  0.39773  0.05426  0.51366  1.0000
  C   C95       1.0  0.31201  0.41831  0.62888  1.0000
  H   H83       1.0  0.42750  0.23724  0.62264  1.0000
  S   S28       1.0  0.21412  0.22000  0.49434  1.0000
  N   N9        1.0  0.48077  0.22126  0.46029  1.0000
  C   C96       1.0  0.47998  0.49341  0.64040  1.0000
  H   H84       1.0  0.39672  0.17166  0.40057  1.0000
  Fe  Fe11      1.0  0.26203  0.19692  0.51676  1.0000
  H   H85       1.0  0.07620  0.26425  0.54995  1.0000
  Fe  Fe12      1.0  0.47189  0.07229  0.44645  1.0000
  H   H86       1.0  0.15582  0.40079  0.54942  1.0000
  S   S29       1.0  0.24381  0.32370  0.56322  1.0000
  S   S30       1.0  0.08028  0.11898  0.54493  1.0000
  H   H87       1.0  0.48837  0.21177  0.60296  1.0000
  H   H88       1.0  0.41922  0.12309  0.61674  1.0000
  S   S31       1.0  0.19799  0.13692  0.58193  1.0000
  H   H89       1.0  0.08935  0.16776  0.43822  1.0000
  H   H90       1.0  0.38499  0.09824  0.40011  1.0000
  C   C97       1.0  0.33210  0.39667  0.40809  1.0000
  C   C98       1.0  0.42718  0.24072  0.52921  1.0000
  H   H91       1.0  0.43553  0.24191  0.43363  1.0000
  C   C99       1.0  0.35292  0.10203  0.41724  1.0000
  H   H92       1.0  0.22918  0.39637  0.55294  1.0000
  C   C100      1.0  0.31845  0.14870  0.44103  1.0000
  H   H93       1.0  0.27669  0.49448  0.52928  1.0000
  H   H94       1.0  0.32975  0.42492  0.41899  1.0000
  C   C101      1.0  0.06969  0.06614  0.54623  1.0000
  H   H95       1.0  0.08010  0.12460  0.39565  1.0000
  H   H96       1.0  0.52005  0.19967  0.49938  1.0000
  C   C102      1.0  0.37955  0.11141  0.63174  1.0000
  H   H97       1.0  0.22610  0.04278  0.47205  1.0000
  H   H98       1.0  0.35886  0.39136  0.48177  1.0000
  H   H99       1.0  0.40036  0.25150  0.53712  1.0000
  C   C103      1.0  0.49421  0.21157  0.50746  1.0000
  C   C104      1.0  0.05126  0.00379  0.49730  1.0000
  C   C105      1.0  0.35730  0.11704  0.59067  1.0000
  Fe  Fe13      1.0  0.36420  0.01682  0.44694  1.0000
  S   S32       1.0  0.32764  0.20056  0.44690  1.0000
  C   C106      1.0  0.44211  0.23244  0.57714  1.0000
  H   H100      1.0  0.05860  0.06261  0.45810  1.0000
  H   H101      1.0  0.14799  0.12218  0.42309  1.0000
  H   H102      1.0  0.14846  0.37633  0.41602  1.0000
  H   H103      1.0  0.35873  0.32494  0.51385  1.0000
  C   C107      1.0  0.37219  0.32449  0.46437  1.0000
  C   C108      1.0  0.15453  0.37004  0.54979  1.0000
  C   C109      1.0  0.26342  0.07082  0.45764  1.0000
  Fe  Fe14      1.0  0.15052  0.16234  0.56512  1.0000
  C   C110      1.0  0.47596  0.21787  0.56626  1.0000
  H   H104      1.0  0.47312  0.49819  0.55065  1.0000
  C   C111      1.0  0.35965  0.14358  0.41805  1.0000
  H   H105      1.0  0.29795  0.40980  0.59079  1.0000
  C   C112      1.0  0.19387  0.32759  0.55443  1.0000
  C   C113      1.0  0.19604  0.36753  0.55183  1.0000
  C   C114      1.0  0.30473  0.06567  0.43683  1.0000
  H   H106      1.0  0.41364  0.34410  0.44703  1.0000
  S   S33       1.0  0.05855  0.33614  0.55150  1.0000
  H   H107      1.0  0.28881  0.10511  0.57832  1.0000
  H   H108      1.0  0.47888  0.18035  0.39548  1.0000
  H   H109      1.0  0.07828  0.05930  0.63469  1.0000
  C   C115      1.0  0.27034  0.11226  0.46060  1.0000
  S   S34       1.0  0.29617  0.01380  0.43620  1.0000
  C   C116      1.0  0.10134  0.16018  0.39267  1.0000
  C   C117      1.0  0.17324  0.15340  0.39259  1.0000
  C   C118      1.0  0.46455  0.08503  0.68016  1.0000
  S   S35       1.0  0.49301  0.11544  0.77828  1.0000
  H   H110      1.0  0.51678  0.03134  0.72703  1.0000
  S   S36       1.0  0.12107  0.38140  0.86329  1.0000
  S   S37       1.0  0.13578  0.45720  0.71791  1.0000
  C   C119      1.0  0.30031  0.38586  0.67588  1.0000
  H   H111      1.0  0.36745  0.27955  0.71374  1.0000
  S   S38       1.0  0.48319  0.34138  0.83999  1.0000
  H   H112      1.0  0.19463  0.24675  0.78078  1.0000
  Fe  Fe15      1.0  0.43601  0.37168  0.86223  1.0000
  C   C120      1.0  0.05959  0.22226  0.85897  1.0000
  C   C121      1.0  0.06770  0.19136  0.83053  1.0000
  H   H113      1.0  0.35334  0.15989  0.78304  1.0000
  H   H114      1.0  0.13073  0.37829  0.69723  1.0000
  H   H115      1.0  0.48896  0.11795  0.65503  1.0000
  H   H116      1.0  0.17116  0.33501  0.70083  1.0000
  C   C122      1.0  0.29907  0.07415  0.71042  1.0000
  C   C123      1.0  0.38131  0.12899  0.86992  1.0000
  C   C124      1.0  0.10496  0.27448  0.70816  1.0000
  H   H117      1.0  0.27672  0.05756  0.75746  1.0000
  Fe  Fe16      1.0  0.25730  0.47857  0.82129  1.0000
  C   C125      1.0  0.42617  0.03259  0.77456  1.0000
  H   H118      1.0  0.14019  0.06962  0.82381  1.0000
  C   C126      1.0  0.35036  0.08996  0.69210  1.0000
  H   H119      1.0  0.12294  0.17684  0.78041  1.0000
  S   S39       1.0  0.49341  0.43439  0.79655  1.0000
  N   N10       1.0  0.06655  0.01897  0.87480  1.0000
  H   H120      1.0  0.28022  0.23929  0.71307  1.0000
  S   S40       1.0  0.39587  0.34260  0.79537  1.0000
  Fe  Fe17      1.0  0.19207  0.38029  0.83202  1.0000
  H   H121      1.0  0.38266  0.43128  0.78790  1.0000
  C   C127      1.0  0.07647  0.45094  0.74364  1.0000
  C   C128      1.0  0.33759  0.17725  0.76743  1.0000
  H   H122      1.0  0.20824  0.06026  0.73951  1.0000
  C   C129      1.0  0.04968  0.44079  0.80624  1.0000
  C   C130      1.0  0.09454  0.09480  0.86788  1.0000
  S   S41       1.0  0.22927  0.43704  0.75509  1.0000
  C   C131      1.0  0.10056  0.26294  0.85708  1.0000
  C   C132      1.0  0.13221  0.31922  0.70369  1.0000
  S   S42       1.0  0.44630  0.43655  0.65475  1.0000
  H   H123      1.0  0.33516  0.44506  0.82023  1.0000
  C   C133      1.0  0.10909  0.34341  0.70194  1.0000
  C   C134      1.0  0.40500  0.00986  0.68385  1.0000
  H   H124      1.0  0.33810  0.20336  0.87592  1.0000
  H   H125      1.0  0.12278  0.25555  0.70837  1.0000
  Fe  Fe18      1.0  0.45757  0.40309  0.72755  1.0000
  Fe  Fe19      1.0  0.20838  0.17730  0.65414  1.0000
  H   H126      1.0  0.42446  0.06885  0.89144  1.0000
  H   H127      1.0  0.36720  0.08548  0.72467  1.0000
  S   S43       1.0  0.29828  0.05439  0.86959  1.0000
  C   C135      1.0  0.10332  0.06137  0.85234  1.0000
  C   C136      1.0  0.45846  0.07524  0.74207  1.0000
  C   C137      1.0  0.05524  0.45494  0.70023  1.0000
  S   S44       1.0  0.20187  0.32303  0.82054  1.0000
  H   H128      1.0  0.42242  0.02434  0.82181  1.0000
  N   N11       1.0  0.27762  0.08023  0.67009  1.0000
  N   N12       1.0  0.06026  0.32352  0.70427  1.0000
  C   C138      1.0  0.28787  0.15476  0.76893  1.0000
  H   H129      1.0  0.30978  0.37198  0.76092  1.0000
  C   C139      1.0  0.36629  0.45100  0.77895  1.0000
  C   C140      1.0  0.11644  0.20038  0.80292  1.0000
  C   C141      1.0  0.15709  0.24015  0.80283  1.0000
  C   C142      1.0  0.34547  0.24474  0.72884  1.0000
  H   H130      1.0  0.12442  0.12838  0.85218  1.0000
  C   C143      1.0  0.05473  0.25420  0.71283  1.0000
  H   H131      1.0  0.09429  0.28731  0.87706  1.0000
  S   S45       1.0  0.42708  0.25026  0.75108  1.0000
  H   H132      1.0  0.07552  0.46184  0.65178  1.0000
  H   H133      1.0  0.27684  0.35194  0.67479  1.0000
  C   C144      1.0  0.14938  0.27195  0.82837  1.0000
  H   H134      1.0  0.21435  0.08351  0.66633  1.0000
  H   H135      1.0  0.44789  0.18670  0.86988  1.0000
  Fe  Fe20      1.0  0.44815  0.31726  0.76755  1.0000
  C   C145      1.0  0.22355  0.06222  0.68954  1.0000
  C   C146      1.0  0.26773  0.17687  0.74728  1.0000
  Fe  Fe21      1.0  0.16115  0.44204  0.79150  1.0000
  C   C147      1.0  0.29633  0.22192  0.72777  1.0000
  H   H136      1.0  0.39597  0.12980  0.82156  1.0000
  C   C148      1.0  0.35931  0.47212  0.68104  1.0000
  S   S46       1.0  0.50691  0.37550  0.69541  1.0000
  H   H137      1.0  0.26528  0.12023  0.78625  1.0000
  S   S47       1.0  0.20817  0.14747  0.74083  1.0000
  C   C149      1.0  0.36618  0.22231  0.74833  1.0000
  H   H138      1.0  0.49190  0.49950  0.72785  1.0000
  N   N13       1.0  0.34804  0.44005  0.72670  1.0000
  C   C150      1.0  0.31884  0.39740  0.72469  1.0000
  H   H139      1.0  0.06594  0.43739  0.83990  1.0000
  H   H140      1.0  0.39597  0.48564  0.77002  1.0000
  C   C151      1.0  0.43814  0.05229  0.65093  1.0000
  S   S48       1.0  0.19162  0.48752  0.85326  1.0000
  H   H141      1.0  0.20488  0.02948  0.67830  1.0000
  H   H142      1.0  0.06356  0.38048  0.66802  1.0000
  C   C152      1.0  0.03703  0.34969  0.70201  1.0000
  C   C153      1.0  0.03277  0.27941  0.71079  1.0000
  H   H143      1.0  0.03309  0.21921  0.71822  1.0000
  S   S49       1.0  0.15559  0.19837  0.64274  1.0000
  H   H144      1.0  0.53006  0.04772  0.79643  1.0000
  H   H145      1.0  0.47735  0.81603  0.00631  1.0000
  C   C154      1.0  0.33267  0.52647  0.91122  1.0000
  C   C155      1.0  0.42651  0.68876  0.10016  1.0000
  H   H146      1.0  0.51957  0.66426  0.95849  1.0000
  H   H147      1.0  0.30529  0.99734  0.05986  1.0000
  H   H148      1.0  0.52544  0.72921  0.89422  1.0000
  S   S50       1.0  0.50002  0.96264  0.99267  1.0000
  C   C156      1.0  0.41640  0.96725  0.94446  1.0000
  S   S51       1.0  0.43572  0.57622  0.99837  1.0000
  Fe  Fe22      1.0  0.09089  0.59322  0.09760  1.0000
  C   C157      1.0  0.42211  0.72215  0.01094  1.0000
  C   C158      1.0  0.17725  0.82203  0.99385  1.0000
  S   S52       1.0  0.03811  0.54467  0.05597  1.0000
  S   S53       1.0  0.10433  0.65067  0.03699  1.0000
  H   H149      1.0  0.29586  0.83717  0.13768  1.0000
  C   C159      1.0  0.15029  0.62520  0.89510  1.0000
  C   C160      1.0  0.18954  0.75703  0.94303  1.0000
  H   H150      1.0  0.36544  0.63592  0.98834  1.0000
  H   H151      1.0  0.46521  0.51494  0.00636  1.0000
  C   C161      1.0  0.13798  0.53117  0.03751  1.0000
  C   C162      1.0  0.34724  0.62773  0.95366  1.0000
  H   H152      1.0  0.20427  0.80879  0.06246  1.0000
  H   H153      1.0  0.07453  0.68491  0.93334  1.0000
  H   H154      1.0  0.31021  0.87449  0.02745  1.0000
  H   H155      1.0  0.32522  0.85151  0.92844  1.0000
  H   H156      1.0  0.22509  0.64650  0.89307  1.0000
  S   S54       1.0  0.31800  0.56633  0.12311  1.0000
  H   H157      1.0  0.19355  0.73139  0.92383  1.0000
  S   S55       1.0  0.37126  0.80176  0.94173  1.0000
  C   C163      1.0  0.16778  0.81280  0.93893  1.0000
  S   S56       1.0  0.14425  0.58018  0.12607  1.0000
  C   C164      1.0  0.35463  0.53637  0.95776  1.0000
  S   S57       1.0  0.31107  0.70162  0.92434  1.0000
  S   S58       1.0  0.23356  0.93960  0.96935  1.0000
  H   H158      1.0  0.48289  0.87359  0.93704  1.0000
  H   H159      1.0  0.23849  0.61032  0.03605  1.0000
  Fe  Fe23      1.0  0.29265  0.75232  0.95110  1.0000
  C   C165      1.0  0.06183  0.70759  0.92983  1.0000
  C   C166      1.0  0.37594  0.93811  0.99555  1.0000
  S   S59       1.0  0.16315  0.95710  0.90658  1.0000
  C   C167      1.0  0.51748  0.83131  0.98588  1.0000
  S   S60       1.0  0.22877  0.74429  0.02839  1.0000
  H   H160      1.0  0.29248  0.50867  0.92312  1.0000
  Fe  Fe24      1.0  0.16273  0.89961  0.94816  1.0000
  Fe  Fe25      1.0  0.39066  0.75354  0.90504  1.0000
  S   S61       1.0  0.15123  0.84382  0.90067  1.0000
  C   C168      1.0  0.35059  0.88407  0.93212  1.0000
  C   C169      1.0  0.03100  0.75168  0.97884  1.0000
  C   C170      1.0  0.03214  0.76778  0.92215  1.0000
  C   C171      1.0  0.17366  0.78009  0.91360  1.0000
  C   C172      1.0  0.44611  0.70645  0.03749  1.0000
  H   H161      1.0  0.23315  0.58006  0.93889  1.0000
  C   C173      1.0  0.40665  0.56057  0.94232  1.0000
  Fe  Fe26      1.0  0.11875  0.95331  0.00190  1.0000
  H   H162      1.0  0.14401  0.70127  0.13901  1.0000
  H   H163      1.0  0.17228  0.84680  0.01424  1.0000
  S   S62       1.0  0.05662  0.60555  0.89970  1.0000
  C   C174      1.0  0.52098  0.53872  0.05137  1.0000
  H   H164      1.0  0.36039  0.73319  0.02716  1.0000
  S   S63       1.0  0.05509  0.96530  0.02536  1.0000
  C   C175      1.0  0.19434  0.79980  0.02220  1.0000
  H   H165      1.0  0.28916  0.61933  0.06142  1.0000
  H   H166      1.0  0.33136  0.52579  0.00536  1.0000
  N   N14       1.0  0.29646  0.60804  0.96962  1.0000
  C   C176      1.0  0.36026  0.70439  0.11049  1.0000
  H   H167      1.0  0.44448  0.67555  0.11992  1.0000
  Fe  Fe27      1.0  0.45414  0.98148  0.06288  1.0000
  H   H168      1.0  0.04644  0.70944  0.02591  1.0000
  C   C177      1.0  0.04571  0.72127  0.98271  1.0000
  S   S64       1.0  0.37372  0.95018  0.06920  1.0000
  H   H169      1.0  0.05378  0.95521  0.89530  1.0000
  H   H170      1.0  0.47902  0.70683  0.00947  1.0000
  H   H171      1.0  0.24643  0.56507  0.05409  1.0000
  C   C178      1.0  0.27347  0.59628  0.92602  1.0000
  Fe  Fe28      1.0  0.04668  0.60181  0.00046  1.0000
  H   H172      1.0  0.13487  0.61352  0.94394  1.0000
  H   H173      1.0  0.52397  0.79605  0.05717  1.0000
  C   C179      1.0  0.34172  0.89720  0.98851  1.0000
  S   S65       1.0  0.18577  0.99701  0.02740  1.0000
  C   C180      1.0  0.38343  0.68744  0.13667  1.0000
  H   H174      1.0  0.13991  0.55704  0.00927  1.0000
  Fe  Fe29      1.0  0.18386  0.93674  0.06003  1.0000
  S   S66       1.0  0.11277  0.89244  0.04163  1.0000
  Fe  Fe30      1.0  0.03950  0.64643  0.10940  1.0000
  Fe  Fe31      1.0  0.38366  0.55704  0.09472  1.0000
  Fe  Fe32      1.0  0.23020  0.99674  0.93509  1.0000
  C   C181      1.0  0.26623  0.60009  0.03352  1.0000
  C   C182      1.0  0.37937  0.72141  0.04744  1.0000
  S   S67       1.0  0.44477  0.74102  0.93179  1.0000
  C   C183      1.0  0.20100  0.76760  0.99673  1.0000
  C   C184      1.0  0.14036  0.53472  0.09682  1.0000
  C   C185      1.0  0.47733  0.50742  0.04226  1.0000
  H   H175      1.0  0.44296  0.99906  0.94934  1.0000
  S   S68       1.0  0.48624  0.97559  0.13566  1.0000
  C   C186      1.0  0.51349  0.87229  0.90268  1.0000
  H   H176      1.0  0.32646  0.70279  0.13825  1.0000
  S   S69       1.0  0.20301  0.93392  0.14595  1.0000
  H   H177      1.0  0.10252  0.51988  0.35551  1.0000
  C   C187      1.0  0.51504  0.51993  0.31522  1.0000
  N   N15       1.0  0.33172  0.99099  0.23487  1.0000
  C   C188      1.0  0.23200  0.84542  0.16189  1.0000
  H   H178      1.0  0.24480  0.75716  0.15394  1.0000
  H   H179      1.0  0.09509  0.59375  0.24578  1.0000
  H   H180      1.0  0.50844  0.65647  0.28464  1.0000
  H   H181      1.0  0.47003  0.55972  0.20092  1.0000
  H   H182      1.0  0.09901  0.87182  0.16584  1.0000
  C   C189      1.0  0.45881  0.69391  0.26332  1.0000
  H   H183      1.0  0.03499  0.77115  0.19988  1.0000
  N   N16       1.0  0.17547  0.75555  0.18012  1.0000
  C   C190      1.0  0.13692  0.54932  0.33003  1.0000
  H   H184      1.0  0.50530  0.87073  0.30259  1.0000
  H   H185      1.0  0.11940  0.64480  0.34770  1.0000
  H   H186      1.0  0.18126  0.63603  0.22119  1.0000
  H   H187      1.0  0.10724  0.69490  0.21653  1.0000
  C   C191      1.0  0.15226  0.77920  0.18903  1.0000
  H   H188      1.0  0.29850  0.96078  0.16936  1.0000
  H   H189      1.0  0.31319  0.92874  0.21265  1.0000
  H   H190      1.0  0.06271  0.56425  0.32316  1.0000
  H   H191      1.0  0.09326  0.96046  0.21451  1.0000
  N   N17       1.0  0.13710  0.57744  0.28829  1.0000
  H   H192      1.0  0.25979  0.60385  0.31710  1.0000
  C   C192      1.0  0.18071  0.61434  0.25560  1.0000
  S   S70       1.0  0.41492  0.58863  0.16696  1.0000
  C   C193      1.0  0.44771  0.51409  0.28190  1.0000
  C   C194      1.0  0.14595  0.70855  0.18492  1.0000
  H   H193      1.0  0.26068  0.93469  0.24807  1.0000
  H   H194      1.0  0.19019  0.95100  0.26798  1.0000
  H   H195      1.0  0.18073  0.53586  0.37395  1.0000
  C   C195      1.0  0.45663  0.78744  0.35825  1.0000
  C   C196      1.0  0.10484  0.66609  0.34500  1.0000
  C   C197      1.0  0.48219  0.54919  0.23369  1.0000
  C   C198      1.0  0.36658  0.58544  0.36563  1.0000
  S   S71       1.0  0.35463  0.65835  0.21210  1.0000
  Fe  Fe33      1.0  0.36729  0.52244  0.22675  1.0000
  C   C199      1.0  0.03531  0.67613  0.34832  1.0000
  H   H196      1.0  0.43281  0.70653  0.27384  1.0000
  S   S72       1.0  0.45136  0.93977  0.35983  1.0000
  H   H197      1.0  0.48097  0.77460  0.33683  1.0000
  H   H198      1.0  0.16282  0.69216  0.20273  1.0000
  H   H199      1.0  0.46601  0.69034  0.21463  1.0000
  C   C200      1.0  0.13648  0.71098  0.33483  1.0000
  N   N18       1.0  0.43769  0.65183  0.30260  1.0000
  H   H200      1.0  0.11498  0.92492  0.35837  1.0000
  C   C201      1.0  0.25545  0.82108  0.15332  1.0000
  C   C202      1.0  0.38654  0.85251  0.38370  1.0000
  C   C203      1.0  0.06437  0.88314  0.31358  1.0000
  H   H201      1.0  0.25968  0.65418  0.24050  1.0000
  C   C204      1.0  0.39793  0.57063  0.37281  1.0000
  Fe  Fe34      1.0  0.34712  0.59442  0.19844  1.0000
  C   C205      1.0  0.44931  0.59675  0.34459  1.0000
  H   H202      1.0  0.49436  0.71823  0.26957  1.0000
  C   C206      1.0  0.15409  0.92746  0.26556  1.0000
  C   C207      1.0  0.22535  0.62455  0.26581  1.0000
  H   H203      1.0  0.25402  0.88054  0.15225  1.0000
  C   C208      1.0  0.10263  0.88377  0.20747  1.0000
  S   S73       1.0  0.30202  0.53135  0.26513  1.0000
  C   C209      1.0  0.09004  0.56769  0.27921  1.0000
  C   C210      1.0  0.22639  0.77586  0.16269  1.0000
  H   H204      1.0  0.11200  0.76322  0.20223  1.0000
  H   H205      1.0  0.16130  0.84269  0.18674  1.0000
  H   H206      1.0  0.32653  0.56523  0.38733  1.0000
  H   H207      1.0  0.14211  0.77328  0.32358  1.0000
  C   C211      1.0  0.14967  0.91335  0.21067  1.0000
  C   C212      1.0  0.29941  0.95188  0.21537  1.0000
  C   C213      1.0  0.18005  0.82433  0.18062  1.0000
  H   H208      1.0  0.07441  0.53708  0.26156  1.0000
  C   C214      1.0  0.22541  0.59628  0.30873  1.0000
  S   S74       1.0  0.19949  0.73243  0.32674  1.0000
  C   C215      1.0  0.38721  0.62656  0.33073  1.0000
  H   H209      1.0  0.36247  0.63791  0.32611  1.0000
  C   C216      1.0  0.06000  0.86861  0.25896  1.0000
  C   C217      1.0  0.11144  0.91263  0.31683  1.0000
  H   H210      1.0  0.47394  0.58542  0.34987  1.0000
  Fe  Fe35      1.0  0.27870  0.50239  0.18734  1.0000
  C   C218      1.0  0.11214  0.99336  0.18931  1.0000
  H   H211      1.0  0.38201  0.85738  0.33979  1.0000
  C   C219      1.0  0.46860  0.63710  0.30831  1.0000
  C   C220      1.0  0.18106  0.55818  0.34065  1.0000
  H   H212      1.0  0.05225  0.74237  0.33574  1.0000
  C   C221      1.0  0.05441  0.64872  0.35111  1.0000
  H   H213      1.0  0.39684  0.98687  0.19627  1.0000
  H   H214      1.0  0.52742  0.50811  0.34643  1.0000
  C   C222      1.0  0.11763  0.73853  0.33115  1.0000
  C   C223      1.0  0.06698  0.72110  0.33787  1.0000
  H   H215      1.0  0.44245  0.79554  0.32376  1.0000
  C   C224      1.0  0.50809  0.86626  0.34781  1.0000
  N   N19       1.0  0.48486  0.82565  0.38248  1.0000
  S   S75       1.0  0.04800  0.70615  0.14506  1.0000
  H   H216      1.0  0.53039  0.95797  0.23622  1.0000
  H   H217      1.0  0.14055  0.50418  0.17875  1.0000
  S   S76       1.0  0.03080  0.59287  0.17286  1.0000
  S   S77       1.0  0.03154  0.92574  0.55091  1.0000
  C   C225      1.0  0.51489  0.56125  0.57111  1.0000
  H   H218      1.0  0.18905  0.95100  0.49891  1.0000
  C   C226      1.0  0.36569  0.80473  0.47681  1.0000
  H   H219      1.0  0.21717  0.53874  0.63881  1.0000
  H   H220      1.0  0.36474  0.89954  0.59365  1.0000
  Fe  Fe36      1.0  0.48944  0.71957  0.54027  1.0000
  S   S78       1.0  0.47115  0.76691  0.58323  1.0000
  H   H221      1.0  0.40507  0.83466  0.53924  1.0000
  H   H222      1.0  0.17446  0.87889  0.54299  1.0000
  C   C227      1.0  0.06568  0.54577  0.60929  1.0000
  C   C228      1.0  0.07290  0.82799  0.46571  1.0000
  C   C229      1.0  0.27715  0.52452  0.52032  1.0000
  H   H223      1.0  0.29466  0.82669  0.59851  1.0000
  S   S79       1.0  0.33120  0.75329  0.52332  1.0000
  Fe  Fe37      1.0  0.44058  0.62942  0.50939  1.0000
  C   C230      1.0  0.09177  0.80361  0.48424  1.0000
  C   C231      1.0  0.09136  0.87063  0.47511  1.0000
  C   C232      1.0  0.31973  0.60281  0.50558  1.0000
  C   C233      1.0  0.35914  0.87175  0.62206  1.0000
  H   H224      1.0  0.51854  0.85189  0.50864  1.0000
  S   S80       1.0  0.03347  0.83399  0.64018  1.0000
  S   S81       1.0  0.21252  0.74163  0.48794  1.0000
  H   H225      1.0  0.33362  0.78387  0.40493  1.0000
  C   C234      1.0  0.12838  0.82197  0.51238  1.0000
  H   H226      1.0  0.44860  0.90911  0.47776  1.0000
  C   C235      1.0  0.48772  0.51590  0.58431  1.0000
  Fe  Fe38      1.0  0.14949  0.67959  0.55011  1.0000
  H   H227      1.0  0.07544  0.88887  0.46202  1.0000
  H   H228      1.0  0.38236  0.53887  0.40020  1.0000
  C   C236      1.0  0.23560  0.56216  0.50023  1.0000
  H   H229      1.0  0.52172  0.57801  0.52707  1.0000
  C   C237      1.0  0.35929  0.81100  0.42045  1.0000
  C   C238      1.0  0.48925  0.82026  0.43901  1.0000
  S   S82       1.0  0.13550  0.64295  0.47413  1.0000
  H   H230      1.0  0.27022  0.65366  0.61048  1.0000
  C   C239      1.0  0.28964  0.64234  0.63052  1.0000
  Fe  Fe39      1.0  0.43425  0.98177  0.41917  1.0000
  H   H231      1.0  0.42334  0.76189  0.39563  1.0000
  H   H232      1.0  0.35211  0.63346  0.50340  1.0000
  C   C240      1.0  0.14639  0.86492  0.52044  1.0000
  H   H233      1.0  0.27806  0.63177  0.48941  1.0000
  H   H234      1.0  0.18256  0.75203  0.61240  1.0000
  C   C241      1.0  0.51614  0.85620  0.46315  1.0000
  S   S83       1.0  0.35758  0.95566  0.48604  1.0000
  Fe  Fe40      1.0  0.20204  0.70379  0.41251  1.0000
  H   H235      1.0  0.07781  0.77048  0.47721  1.0000
  C   C242      1.0  0.39894  0.83984  0.49663  1.0000
  S   S84       1.0  0.51458  0.63692  0.45939  1.0000
  H   H236      1.0  0.47071  0.78805  0.46637  1.0000
  C   C243      1.0  0.15322  0.75834  0.63442  1.0000
  S   S85       1.0  0.18251  0.56038  0.49134  1.0000
  H   H237      1.0  0.13027  0.93396  0.55836  1.0000
  C   C244      1.0  0.27777  0.60182  0.49739  1.0000
  N   N20       1.0  0.12852  0.88891  0.50075  1.0000
  C   C245      1.0  0.42376  0.88173  0.46173  1.0000
  H   H238      1.0  0.07630  0.52980  0.51898  1.0000
  S   S86       1.0  0.46133  0.69471  0.46269  1.0000
  S   S87       1.0  0.46263  0.65361  0.59031  1.0000
  S   S88       1.0  0.08690  0.67536  0.62685  1.0000
  Fe  Fe41      1.0  0.26151  0.71614  0.49946  1.0000
  H   H239      1.0  0.14261  0.80302  0.52808  1.0000
  H   H240      1.0  0.13960  0.95236  0.47993  1.0000
  C   C246      1.0  0.04929  0.98052  0.54875  1.0000
  H   H241      1.0  0.04399  0.81413  0.44438  1.0000
  S   S89       1.0  0.37181  0.56435  0.52522  1.0000
  Fe  Fe42      1.0  0.19153  0.62624  0.48591  1.0000
  H   H242      1.0  0.04522  0.98897  0.45805  1.0000
  H   H243      1.0  0.20404  0.82464  0.63704  1.0000
  H   H244      1.0  0.44396  0.94255  0.60720  1.0000
  C   C247      1.0  0.41814  0.88790  0.40483  1.0000
  C   C248      1.0  0.14783  0.93374  0.51003  1.0000
  Fe  Fe43      1.0  0.39613  0.99454  0.54832  1.0000
  H   H245      1.0  0.05709  0.98289  0.63852  1.0000
  S   S90       1.0  0.19909  0.65712  0.56763  1.0000
  C   C249      1.0  0.23543  0.52355  0.51159  1.0000
  S   S91       1.0  0.25715  0.68401  0.41804  1.0000
  C   C250      1.0  0.31938  0.56413  0.51710  1.0000
  C   C251      1.0  0.31917  0.83062  0.62491  1.0000
  H   H246      1.0  0.35345  0.70688  0.61322  1.0000
  C   C252      1.0  0.50575  0.79466  0.62998  1.0000
  H   H247      1.0  0.20513  0.58116  0.62451  1.0000
  C   C253      1.0  0.33698  0.67273  0.63170  1.0000
  H   H248      1.0  0.10510  0.56160  0.60385  1.0000
  C   C254      1.0  0.04966  0.52775  0.56112  1.0000
  C   C255      1.0  0.05883  0.00055  0.59845  1.0000
  H   H249      1.0  0.19125  0.55741  0.70253  1.0000
  C   C256      1.0  0.10316  0.72577  0.64827  1.0000
  C   C257      1.0  0.07656  0.98443  0.85792  1.0000
  H   H250      1.0  0.25415  0.82349  0.76931  1.0000
  Fe  Fe44      1.0  0.32229  0.72788  0.82866  1.0000
  H   H251      1.0  0.43813  0.57590  0.78679  1.0000
  C   C258      1.0  0.43417  0.91946  0.64874  1.0000
  H   H252      1.0  0.49727  0.84727  0.87548  1.0000
  N   N21       1.0  0.25484  0.91816  0.76523  1.0000
  C   C259      1.0  0.49874  0.51651  0.68385  1.0000
  H   H253      1.0  0.08256  0.55902  0.71394  1.0000
  C   C260      1.0  0.24024  0.94345  0.73331  1.0000
  H   H254      1.0  0.20030  0.93235  0.75677  1.0000
  H   H255      1.0  0.23089  0.86744  0.71490  1.0000
  S   S92       1.0  0.14184  0.85926  0.69321  1.0000
  C   C261      1.0  0.38449  0.84136  0.68841  1.0000
  C   C262      1.0  0.11938  0.62247  0.86124  1.0000
  H   H256      1.0  0.40935  0.84535  0.71424  1.0000
  C   C263      1.0  0.24733  0.87932  0.75028  1.0000
  C   C264      1.0  0.28028  0.86914  0.82747  1.0000
  C   C265      1.0  0.21800  0.56782  0.65519  1.0000
  H   H257      1.0  0.20661  0.66410  0.71868  1.0000
  S   S93       1.0  0.28688  0.68437  0.76763  1.0000
  H   H258      1.0  0.42468  0.93275  0.68980  1.0000
  H   H259      1.0  0.10877  0.73954  0.78067  1.0000
  H   H260      1.0  0.05128  0.68731  0.80473  1.0000
  H   H261      1.0  0.38236  0.50598  0.68255  1.0000
  H   H262      1.0  0.06701  0.97529  0.81584  1.0000
  C   C266      1.0  0.19086  0.65293  0.76785  1.0000
  C   C267      1.0  0.26039  0.85440  0.78074  1.0000
  S   S94       1.0  0.33673  0.53252  0.79042  1.0000
  H   H263      1.0  0.45752  0.97623  0.84959  1.0000
  N   N22       1.0  0.03199  0.54244  0.66294  1.0000
  C   C268      1.0  0.04928  0.56079  0.71340  1.0000
  C   C269      1.0  0.30171  0.60659  0.86402  1.0000
  H   H264      1.0  0.46787  0.91757  0.64640  1.0000
  C   C270      1.0  0.41472  0.56475  0.83440  1.0000
  N   N23       1.0  0.39174  0.87653  0.65269  1.0000
  S   S95       1.0  0.40355  0.77730  0.80725  1.0000
  H   H265      1.0  0.26385  0.97858  0.73203  1.0000
  C   C271      1.0  0.20156  0.64354  0.86605  1.0000
  S   S96       1.0  0.06251  0.91945  0.70335  1.0000
  C   C272      1.0  0.07755  0.77437  0.69358  1.0000
  H   H266      1.0  0.05880  0.59516  0.70866  1.0000
  H   H267      1.0  0.11579  0.63362  0.77085  1.0000
  C   C273      1.0  0.04917  0.75382  0.86989  1.0000
  C   C274      1.0  0.42476  0.95436  0.88779  1.0000
  C   C275      1.0  0.13950  0.63560  0.79731  1.0000
  H   H268      1.0  0.51337  0.86894  0.72067  1.0000
  C   C276      1.0  0.52558  0.56205  0.67080  1.0000
  Fe  Fe45      1.0  0.37785  0.82216  0.84560  1.0000
  C   C277      1.0  0.29332  0.58550  0.68025  1.0000
  N   N24       1.0  0.26838  0.59935  0.65464  1.0000
  H   H269      1.0  0.24531  0.93906  0.68493  1.0000
  C   C278      1.0  0.06544  0.73369  0.67870  1.0000
  H   H270      1.0  0.28981  0.85001  0.85221  1.0000
  H   H271      1.0  0.27671  0.55137  0.69889  1.0000
  C   C279      1.0  0.36192  0.65909  0.65945  1.0000
  H   H272      1.0  0.41681  0.65449  0.87980  1.0000
  N   N25       1.0  0.06435  0.72451  0.87414  1.0000
  H   H273      1.0  0.39769  0.68277  0.66291  1.0000
  H   H274      1.0  0.34167  0.77185  0.71710  1.0000
  S   S97       1.0  0.29840  0.77524  0.85668  1.0000
  S   S98       1.0  0.40938  0.89321  0.81518  1.0000
  C   C280      1.0  0.34574  0.79976  0.69106  1.0000
  C   C281      1.0  0.40010  0.99989  0.74517  1.0000
  C   C282      1.0  0.16538  0.79924  0.64926  1.0000
  C   C283      1.0  0.43650  0.57389  0.88076  1.0000
  H   H275      1.0  0.36019  0.60401  0.70310  1.0000
  S   S99       1.0  0.36899  0.96933  0.64911  1.0000
  C   C284      1.0  0.36283  0.54123  0.84953  1.0000
  H   H276      1.0  0.37722  0.96677  0.76959  1.0000
  H   H277      1.0  0.52221  0.96708  0.75628  1.0000
  Fe  Fe46      1.0  0.07175  0.86157  0.70863  1.0000
  C   C285      1.0  0.28659  0.90813  0.84354  1.0000
  H   H278      1.0  0.28347  0.59828  0.82935  1.0000
  H   H279      1.0  0.04792  0.77990  0.71692  1.0000
  H   H280      1.0  0.16682  0.77310  0.87084  1.0000
  C   C286      1.0  0.31298  0.79434  0.65898  1.0000
  C   C287      1.0  0.39308  0.91212  0.88216  1.0000
  H   H281      1.0  0.27903  0.96303  0.82413  1.0000
  C   C288      1.0  0.34047  0.61513  0.68300  1.0000
  C   C289      1.0  0.08298  0.71105  0.81862  1.0000
  C   C290      1.0  0.49684  0.82528  0.65752  1.0000
  H   H282      1.0  0.28357  0.76199  0.65954  1.0000
  H   H283      1.0  0.10431  0.69563  0.82599  1.0000
  C   C291      1.0  0.12745  0.80747  0.67818  1.0000
  C   C292      1.0  0.52152  0.84611  0.69828  1.0000
  C   C293      1.0  0.22205  0.65793  0.80260  1.0000
  H   H284      1.0  0.37593  0.63618  0.79927  1.0000
  C   C294      1.0  0.27357  0.93246  0.81175  1.0000
  H   H285      1.0  0.47655  0.59152  0.86901  1.0000
  H   H286      1.0  0.05170  0.76761  0.82568  1.0000
  C   C295      1.0  0.35362  0.62819  0.84709  1.0000
  H   H287      1.0  0.51224  0.74541  0.79820  1.0000
  C   C296      1.0  0.52594  0.72336  0.80189  1.0000
  H   H288      1.0  0.30191  0.91953  0.88002  1.0000
  H   H289      1.0  0.47020  0.83233  0.64793  1.0000
  H   H290      1.0  0.11623  0.99486  0.85011  1.0000
  C   C297      1.0  0.37659  0.63841  0.89215  1.0000
  C   C298      1.0  0.65354  0.14343  0.90286  1.0000
  H   H291      1.0  0.90234  0.01746  0.13190  1.0000
  H   H292      1.0  0.55746  0.36080  0.92966  1.0000
  C   C299      1.0  0.57288  0.33978  0.92172  1.0000
  Fe  Fe47      1.0  0.76299  0.33625  0.97025  1.0000
  H   H293      1.0  0.02371  0.43818  0.07696  1.0000
  C   C300      1.0  0.98705  0.35242  0.09150  1.0000
  N   N26       1.0  0.62230  0.35554  0.91334  1.0000
  H   H294      1.0  0.55820  0.28148  0.08168  1.0000
  Fe  Fe48      1.0  0.84249  0.32703  0.00403  1.0000
  C   C301      1.0  0.71752  0.13899  0.04699  1.0000
  H   H295      1.0  0.95874  0.17219  0.03652  1.0000
  C   C302      1.0  0.80507  0.17920  0.99646  1.0000
  C   C303      1.0  0.65393  0.40110  0.91576  1.0000
  H   H296      1.0  0.53764  0.23605  0.90505  1.0000
  N   N27       1.0  0.75876  0.14559  0.00118  1.0000
  H   H297      1.0  0.99234  0.36958  0.04674  1.0000
  C   C304      1.0  0.56142  0.26947  0.90785  1.0000
  C   C305      1.0  0.00988  0.04129  0.92722  1.0000
  Fe  Fe49      1.0  0.87571  0.10629  0.01881  1.0000
  S   S100      1.0  0.88084  0.32682  0.90811  1.0000
  Fe  Fe50      1.0  0.83565  0.05232  0.92790  1.0000
  C   C306      1.0  0.72216  0.16616  0.08995  1.0000
  H   H298      1.0  0.70019  0.20386  0.92721  1.0000
  H   H299      1.0  0.57787  0.44471  0.94621  1.0000
  Fe  Fe51      1.0  0.80382  0.28160  0.90606  1.0000
  H   H300      1.0  0.77379  0.22151  0.11883  1.0000
  H   H301      1.0  0.69059  0.02666  0.07804  1.0000
  H   H302      1.0  0.67756  0.45258  0.12534  1.0000
  S   S101      1.0  0.94065  0.09525  0.00193  1.0000
  H   H303      1.0  0.61890  0.14014  0.93114  1.0000
  H   H304      1.0  0.76257  0.36776  0.08333  1.0000
  C   C307      1.0  0.69936  0.17938  0.90064  1.0000
  H   H305      1.0  0.78292  0.13122  0.91379  1.0000
  H   H306      1.0  0.83783  0.18445  0.96036  1.0000
  Fe  Fe52      1.0  0.94791  0.10808  0.90260  1.0000
  C   C308      1.0  0.75379  0.11484  0.95952  1.0000
  S   S102      1.0  0.88683  0.12329  0.91954  1.0000
  Fe  Fe53      1.0  0.88504  0.02624  0.00362  1.0000
  C   C309      1.0  0.69621  0.43414  0.11613  1.0000
  C   C310      1.0  0.02008  0.00865  0.91129  1.0000
  C   C311      1.0  0.81178  0.50003  0.99311  1.0000
  C   C312      1.0  0.99107  0.21191  0.09742  1.0000
  C   C313      1.0  0.54021  0.42354  0.97671  1.0000
  C   C314      1.0  0.64218  0.32941  0.90104  1.0000
  H   H307      1.0  0.93723  0.47480  0.06556  1.0000
  C   C315      1.0  0.75666  0.41650  0.13036  1.0000
  H   H308      1.0  0.60653  0.26124  0.12949  1.0000
  N   N28       1.0  0.98525  0.37778  0.13961  1.0000
  C   C316      1.0  0.87999  0.36586  0.11406  1.0000
  C   C317      1.0  0.80988  0.47888  0.94328  1.0000
  H   H309      1.0  0.77584  0.46306  0.93164  1.0000
  H   H310      1.0  0.68933  0.16093  0.12603  1.0000
  H   H311      1.0  0.02624  0.21298  0.07949  1.0000
  S   S103      1.0  0.83759  0.38477  0.97581  1.0000
  C   C318      1.0  0.74499  0.38702  0.09079  1.0000
  S   S104      1.0  0.86453  0.31827  0.08513  1.0000
  H   H312      1.0  0.84790  0.23338  0.03502  1.0000
  H   H313      1.0  0.75791  0.08841  0.97838  1.0000
  H   H314      1.0  0.97346  0.03293  0.95742  1.0000
  Fe  Fe54      1.0  0.55451  0.03377  0.96564  1.0000
  S   S105      1.0  0.76583  0.27845  0.00446  1.0000
  C   C319      1.0  0.90583  0.18386  0.09963  1.0000
  S   S106      1.0  0.59517  0.03228  0.02875  1.0000
  S   S107      1.0  0.69945  0.34845  0.00737  1.0000
  C   C320      1.0  0.76937  0.20011  0.08591  1.0000
  C   C321      1.0  0.90706  0.40596  0.07386  1.0000
  H   H315      1.0  0.71710  0.10055  0.95176  1.0000
  C   C322      1.0  0.91705  0.44397  0.09679  1.0000
  H   H316      1.0  0.69102  0.40808  0.91707  1.0000
  H   H317      1.0  0.63620  0.40909  0.95792  1.0000
  H   H318      1.0  0.01257  0.01738  0.06997  1.0000
  H   H319      1.0  0.95151  0.32084  0.10291  1.0000
  H   H320      1.0  0.68067  0.11270  0.05056  1.0000
  H   H321      1.0  0.92034  0.40769  0.02500  1.0000
  S   S108      1.0  0.81957  0.03619  0.02869  1.0000
  Fe  Fe55      1.0  0.63894  0.49791  0.01318  1.0000
  H   H322      1.0  0.65888  0.40200  0.05270  1.0000
  C   C323      1.0  0.81105  0.20701  0.03855  1.0000
  S   S109      1.0  0.58118  0.43087  0.06766  1.0000
  S   S110      1.0  0.85421  0.14435  0.08260  1.0000
  C   C324      1.0  0.71064  0.38239  0.06149  1.0000
  C   C325      1.0  0.68580  0.40563  0.07477  1.0000
  C   C326      1.0  0.95262  0.18830  0.07352  1.0000
  Fe  Fe56      1.0  0.54348  0.04592  0.09672  1.0000
  C   C327      1.0  0.69737  0.02883  0.12287  1.0000
  H   H323      1.0  0.73280  0.05957  0.11728  1.0000
  H   H324      1.0  0.53761  0.33692  0.11865  1.0000
  S   S111      1.0  0.89739  0.03815  0.90283  1.0000
  C   C328      1.0  0.57036  0.29680  0.11832  1.0000
  H   H325      1.0  0.01822  0.34621  0.08619  1.0000
  C   C329      1.0  0.54173  0.29659  0.91917  1.0000
  C   C330      1.0  0.85196  0.47790  0.90921  1.0000
  C   C331      1.0  0.00643  0.42177  0.12459  1.0000
  C   C332      1.0  0.89514  0.49756  0.92571  1.0000
  C   C333      1.0  0.61201  0.28591  0.89870  1.0000
  H   H326      1.0  0.92781  0.49632  0.90005  1.0000
  C   C334      1.0  0.55893  0.32791  0.13891  1.0000
  H   H327      1.0  0.77913  0.50111  0.01898  1.0000
  C   C335      1.0  0.53149  0.40968  0.03823  1.0000
  C   C336      1.0  0.93807  0.23180  0.16804  1.0000
  C   C337      1.0  0.57288  0.02052  0.25758  1.0000
  H   H328      1.0  0.02200  0.48103  0.15838  1.0000
  H   H329      1.0  0.58458  0.13330  0.25336  1.0000
  S   S112      1.0  0.91169  0.48876  0.18927  1.0000
  N   N29       1.0  0.74317  0.27151  0.38611  1.0000
  C   C338      1.0  0.57578  0.34789  0.18542  1.0000
  H   H330      1.0  0.86295  0.20402  0.16507  1.0000
  H   H331      1.0  0.65709  0.36101  0.25777  1.0000
  S   S113      1.0  0.02631  0.25246  0.18529  1.0000
  C   C339      1.0  0.87623  0.05170  0.36189  1.0000
  C   C340      1.0  0.73238  0.44013  0.14306  1.0000
  C   C341      1.0  0.59266  0.13931  0.38908  1.0000
  C   C342      1.0  0.62166  0.35917  0.25835  1.0000
  H   H332      1.0  0.98186  0.44414  0.26765  1.0000
  C   C343      1.0  0.76910  0.31454  0.34702  1.0000
  N   N30       1.0  0.88860  0.13974  0.26045  1.0000
  S   S114      1.0  0.58412  0.09343  0.14941  1.0000
  C   C344      1.0  0.54086  0.16342  0.25396  1.0000
  C   C345      1.0  0.61402  0.30620  0.19137  1.0000
  H   H333      1.0  0.96354  0.00436  0.34529  1.0000
  H   H334      1.0  0.95563  0.20835  0.33995  1.0000
  C   C346      1.0  0.00574  0.44625  0.17041  1.0000
  Fe  Fe57      1.0  0.76225  0.01190  0.34934  1.0000
  S   S115      1.0  0.61581  0.47004  0.24720  1.0000
  H   H335      1.0  0.78450  0.42086  0.15138  1.0000
  S   S116      1.0  0.72853  0.12979  0.29069  1.0000
  N   N31       1.0  0.65474  0.02623  0.16978  1.0000
  H   H336      1.0  0.62440  0.08418  0.26707  1.0000
  C   C347      1.0  0.67309  0.16930  0.30943  1.0000
  S   S117      1.0  0.63836  0.00588  0.35910  1.0000
  H   H337      1.0  0.54036  0.22335  0.38952  1.0000
  H   H338      1.0  0.84260  0.33260  0.20806  1.0000
  H   H339      1.0  0.81443  0.12166  0.26585  1.0000
  C   C348      1.0  0.55821  0.12481  0.17596  1.0000
  H   H340      1.0  0.02647  0.35143  0.31223  1.0000
  H   H341      1.0  0.94768  0.32248  0.21146  1.0000
  C   C349      1.0  0.92665  0.06962  0.32814  1.0000
  H   H342      1.0  0.63008  0.39317  0.25106  1.0000
  S   S118      1.0  0.78349  0.45477  0.38448  1.0000
  H   H343      1.0  0.70090  0.19274  0.26846  1.0000
  Fe  Fe58      1.0  0.69039  0.48636  0.25345  1.0000
  S   S119      1.0  0.74689  0.02922  0.26652  1.0000
  H   H344      1.0  0.86800  0.10772  0.18781  1.0000
  H   H345      1.0  0.80824  0.32484  0.32047  1.0000
  C   C350      1.0  0.96263  0.38075  0.24670  1.0000
  C   C351      1.0  0.84512  0.14001  0.28284  1.0000
  Fe  Fe59      1.0  0.58523  0.43540  0.34467  1.0000
  H   H346      1.0  0.59281  0.34170  0.30387  1.0000
  H   H347      1.0  0.62524  0.19633  0.31989  1.0000
  C   C352      1.0  0.87998  0.18960  0.34756  1.0000
  H   H348      1.0  0.63567  0.29754  0.21138  1.0000
  H   H349      1.0  0.93767  0.05700  0.28870  1.0000
  H   H350      1.0  0.93179  0.24735  0.20600  1.0000
  H   H351      1.0  0.00154  0.12110  0.31500  1.0000
  C   C353      1.0  0.98314  0.23234  0.14608  1.0000
  H   H352      1.0  0.80549  0.16487  0.34444  1.0000
  C   C354      1.0  0.92770  0.16362  0.28109  1.0000
  H   H353      1.0  0.69725  0.08856  0.19020  1.0000
  C   C355      1.0  0.89963  0.44173  0.15989  1.0000
  H   H354      1.0  0.76962  0.33892  0.37576  1.0000
  C   C356      1.0  0.89910  0.20714  0.14510  1.0000
  H   H355      1.0  0.88259  0.08065  0.23923  1.0000
  C   C357      1.0  0.67890  0.13603  0.33209  1.0000
  H   H356      1.0  0.94528  0.36433  0.29424  1.0000
  H   H357      1.0  0.80991  0.27104  0.37968  1.0000
  H   H358      1.0  0.70245  0.39216  0.35099  1.0000
  C   C358      1.0  0.96406  0.35728  0.19973  1.0000
  C   C359      1.0  0.66086  0.05963  0.20023  1.0000
  Fe  Fe60      1.0  0.71512  0.06414  0.32438  1.0000
  C   C360      1.0  0.89287  0.11275  0.21554  1.0000
  H   H359      1.0  0.56716  0.37238  0.20062  1.0000
  S   S120      1.0  0.65894  0.44781  0.34836  1.0000
  H   H360      1.0  0.96231  0.16366  0.26322  1.0000
  H   H361      1.0  0.85959  0.40018  0.24895  1.0000
  H   H362      1.0  0.54377  0.17408  0.29669  1.0000
  C   C361      1.0  0.64294  0.10592  0.38517  1.0000
  C   C362      1.0  0.56387  0.14040  0.22956  1.0000
  C   C363      1.0  0.86364  0.36370  0.17725  1.0000
  C   C364      1.0  0.98338  0.42552  0.23181  1.0000
  N   N32       1.0  0.60384  0.33755  0.21010  1.0000
  C   C365      1.0  0.92420  0.18921  0.32439  1.0000
  C   C366      1.0  0.62002  0.05720  0.24452  1.0000
  H   H363      1.0  0.93154  0.12834  0.18310  1.0000
  S   S121      1.0  0.75023  0.47863  0.18979  1.0000
  C   C367      1.0  0.87293  0.40165  0.20016  1.0000
  C   C368      1.0  0.84009  0.16482  0.32679  1.0000
  C   C369      1.0  0.63017  0.17116  0.33827  1.0000
  H   H364      1.0  0.75002  0.31465  0.31354  1.0000
  C   C370      1.0  0.96302  0.10542  0.34345  1.0000
  H   H365      1.0  0.87662  0.20906  0.38147  1.0000
  H   H366      1.0  0.01454  0.00658  0.21603  1.0000
  H   H367      1.0  0.90508  0.42614  0.38996  1.0000
  H   H368      1.0  0.54087  0.01894  0.29076  1.0000
  S   S122      1.0  0.59198  0.49274  0.38615  1.0000
  S   S123      1.0  0.83118  0.00932  0.33886  1.0000
  C   C371      1.0  0.53098  0.13342  0.14532  1.0000
  H   H369      1.0  0.56424  0.50179  0.17720  1.0000
  C   C372      1.0  0.59761  0.28549  0.14508  1.0000
  C   C373      1.0  0.57851  0.34508  0.57215  1.0000
  H   H370      1.0  0.74211  0.45174  0.56742  1.0000
  H   H371      1.0  0.92543  0.48637  0.62875  1.0000
  S   S124      1.0  0.87517  0.28022  0.44357  1.0000
  S   S125      1.0  0.53769  0.14017  0.42293  1.0000
  C   C374      1.0  0.71756  0.45873  0.54914  1.0000
  C   C375      1.0  0.89930  0.10267  0.42984  1.0000
  C   C376      1.0  0.69355  0.19192  0.46537  1.0000
  C   C377      1.0  0.73603  0.38259  0.47568  1.0000
  C   C378      1.0  0.60015  0.37826  0.52129  1.0000
  H   H372      1.0  0.61202  0.09877  0.60575  1.0000
  H   H373      1.0  0.67401  0.16064  0.49572  1.0000
  C   C379      1.0  0.59972  0.10735  0.41332  1.0000
  S   S126      1.0  0.73737  0.05202  0.40344  1.0000
  H   H374      1.0  0.98589  0.49167  0.53151  1.0000
  C   C380      1.0  0.76970  0.25407  0.39961  1.0000
  Fe  Fe61      1.0  0.96363  0.20125  0.47253  1.0000
  Fe  Fe62      1.0  0.99432  0.27571  0.54158  1.0000
  C   C381      1.0  0.70066  0.37789  0.39432  1.0000
  H   H375      1.0  0.61715  0.49325  0.57350  1.0000
  H   H376      1.0  0.75288  0.10420  0.55639  1.0000
  H   H377      1.0  0.54319  0.31588  0.57801  1.0000
  Fe  Fe63      1.0  0.91015  0.25291  0.48954  1.0000
  S   S127      1.0  0.98961  0.27135  0.44706  1.0000
  C   C382      1.0  0.64934  0.38655  0.60585  1.0000
  Fe  Fe64      1.0  0.66564  0.18660  0.63007  1.0000
  H   H378      1.0  0.56027  0.47286  0.63711  1.0000
  H   H379      1.0  0.88867  0.11392  0.47060  1.0000
  C   C383      1.0  0.98397  0.40258  0.43282  1.0000
  S   S128      1.0  0.59352  0.16589  0.61291  1.0000
  C   C384      1.0  0.80875  0.26725  0.60748  1.0000
  C   C385      1.0  0.89164  0.36164  0.41310  1.0000
  H   H380      1.0  0.71272  0.03029  0.53469  1.0000
  C   C386      1.0  0.60323  0.34911  0.61467  1.0000
  S   S129      1.0  0.69407  0.25727  0.60359  1.0000
  C   C387      1.0  0.95583  0.35732  0.44259  1.0000
  H   H381      1.0  0.63182  0.31886  0.40474  1.0000
  S   S130      1.0  0.99560  0.17027  0.40687  1.0000
  C   C388      1.0  0.74533  0.21404  0.43946  1.0000
  C   C389      1.0  0.82027  0.30958  0.58859  1.0000
  C   C390      1.0  0.64636  0.41517  0.51393  1.0000
  H   H382      1.0  0.66892  0.38919  0.63823  1.0000
  Fe  Fe65      1.0  0.84576  0.49245  0.42197  1.0000
  C   C391      1.0  0.69240  0.24995  0.41145  1.0000
  C   C392      1.0  0.63946  0.02247  0.55808  1.0000
  H   H383      1.0  0.62662  0.19342  0.47210  1.0000
  S   S131      1.0  0.97482  0.20673  0.56398  1.0000
  S   S132      1.0  0.88328  0.18228  0.50638  1.0000
  H   H384      1.0  0.64818  0.08133  0.40459  1.0000
  C   C393      1.0  0.60163  0.49084  0.62353  1.0000
  H   H385      1.0  0.89684  0.04921  0.56237  1.0000
  S   S133      1.0  0.86629  0.46456  0.49027  1.0000
  C   C394      1.0  0.82184  0.33624  0.63157  1.0000
  C   C395      1.0  0.65855  0.31799  0.48051  1.0000
  H   H386      1.0  0.90212  0.11804  0.58242  1.0000
  H   H387      1.0  0.57176  0.02484  0.58370  1.0000
  C   C396      1.0  0.66693  0.21018  0.45195  1.0000
  H   H388      1.0  0.76441  0.40062  0.49614  1.0000
  C   C397      1.0  0.69631  0.34092  0.50584  1.0000
  H   H389      1.0  0.82969  0.36883  0.61790  1.0000
  C   C398      1.0  0.71331  0.08691  0.56265  1.0000
  H   H390      1.0  0.57230  0.08411  0.45444  1.0000
  C   C399      1.0  0.86935  0.08788  0.60824  1.0000
  H   H391      1.0  0.96956  0.33851  0.45912  1.0000
  C   C400      1.0  0.66090  0.33645  0.42456  1.0000
  H   H392      1.0  0.58187  0.37511  0.48706  1.0000
  H   H393      1.0  0.76640  0.20047  0.45093  1.0000
  C   C401      1.0  0.82448  0.00910  0.63081  1.0000
  N   N33       1.0  0.67027  0.41899  0.55601  1.0000
  C   C402      1.0  0.90989  0.33681  0.43227  1.0000
  S   S134      1.0  0.71531  0.15982  0.59485  1.0000
  H   H394      1.0  0.01926  0.41827  0.44152  1.0000
  C   C403      1.0  0.91932  0.40696  0.40456  1.0000
  H   H395      1.0  0.82719  0.32129  0.54111  1.0000
  C   C404      1.0  0.94512  0.00765  0.44114  1.0000
  H   H396      1.0  0.94470  0.03749  0.43399  1.0000
  S   S135      1.0  0.60792  0.26634  0.51778  1.0000
  C   C405      1.0  0.68533  0.10678  0.58170  1.0000
  Fe  Fe66      1.0  0.61934  0.23660  0.59447  1.0000
  S   S136      1.0  0.99916  0.48360  0.40676  1.0000
  H   H397      1.0  0.66372  0.44017  0.47345  1.0000
  H   H398      1.0  0.82360  0.05368  0.44021  1.0000
  C   C406      1.0  0.86246  0.06802  0.41308  1.0000
  C   C407      1.0  0.73771  0.40133  0.42038  1.0000
  C   C408      1.0  0.96543  0.42734  0.41457  1.0000
  H   H399      1.0  0.80695  0.24651  0.57394  1.0000
  C   C409      1.0  0.69041  0.04485  0.55090  1.0000
  C   C410      1.0  0.61104  0.04177  0.57885  1.0000
  H   H400      1.0  0.69402  0.32744  0.54980  1.0000
  H   H401      1.0  0.73848  0.47445  0.50002  1.0000
  S   S137      1.0  0.91558  0.26081  0.58346  1.0000
  H   H402      1.0  0.71019  0.48199  0.57399  1.0000
  C   C411      1.0  0.86629  0.04859  0.59683  1.0000
  Fe  Fe67      1.0  0.89544  0.19107  0.59690  1.0000
  C   C412      1.0  0.63406  0.08402  0.59037  1.0000
  H   H403      1.0  0.67115  0.26335  0.40046  1.0000
  H   H404      1.0  0.85590  0.34601  0.40570  1.0000
  C   C413      1.0  0.94951  0.12239  0.39372  1.0000
  Fe  Fe68      1.0  0.56500  0.16818  0.71169  1.0000
  H   H405      1.0  0.85045  0.06994  0.76635  1.0000
  C   C414      1.0  0.78470  0.00937  0.67333  1.0000
  C   C415      1.0  0.74399  0.18329  0.86414  1.0000
  C   C416      1.0  0.88578  0.07136  0.74708  1.0000
  H   H406      1.0  0.81060  0.20786  0.71542  1.0000
  S   S138      1.0  0.69918  0.30787  0.74781  1.0000
  S   S139      1.0  0.92317  0.43729  0.80388  1.0000
  C   C417      1.0  0.69187  0.41715  0.74791  1.0000
  H   H407      1.0  0.81198  0.34042  0.72682  1.0000
  H   H408      1.0  0.93533  0.00734  0.72775  1.0000
  H   H409      1.0  0.79588  0.19275  0.64755  1.0000
  C   C418      1.0  0.98101  0.44031  0.78160  1.0000
  H   H410      1.0  0.68194  0.01155  0.87969  1.0000
  C   C419      1.0  0.62666  0.32851  0.76072  1.0000
  H   H411      1.0  0.65935  0.42248  0.87502  1.0000
  C   C420      1.0  0.81218  0.32041  0.69265  1.0000
  S   S140      1.0  0.58420  0.23705  0.69168  1.0000
  H   H412      1.0  0.00381  0.33283  0.68679  1.0000
  C   C421      1.0  0.97678  0.07645  0.69722  1.0000
  C   C422      1.0  0.74287  0.15124  0.83071  1.0000
  C   C423      1.0  0.00179  0.43552  0.82529  1.0000
  H   H413      1.0  0.99029  0.45029  0.68551  1.0000
  C   C424      1.0  0.70970  0.38833  0.74615  1.0000
  S   S141      1.0  0.01844  0.14333  0.82224  1.0000
  N   N34       1.0  0.88826  0.03433  0.74865  1.0000
  H   H414      1.0  0.74880  0.40053  0.73943  1.0000
  C   C425      1.0  0.97434  0.11418  0.69394  1.0000
  H   H415      1.0  0.69697  0.09128  0.80635  1.0000
  C   C426      1.0  0.78877  0.04850  0.68698  1.0000
  H   H416      1.0  0.79214  0.26550  0.75779  1.0000
  H   H417      1.0  0.00800  0.14518  0.67216  1.0000
  H   H418      1.0  0.58705  0.32315  0.65380  1.0000
  N   N35       1.0  0.58088  0.03302  0.73808  1.0000
  H   H419      1.0  0.77731  0.15332  0.80411  1.0000
  H   H420      1.0  0.92591  0.14072  0.71705  1.0000
  S   S142      1.0  0.80200  0.22703  0.86013  1.0000
  N   N36       1.0  0.79977  0.25217  0.66741  1.0000
  Fe  Fe69      1.0  0.65772  0.25380  0.70257  1.0000
  C   C427      1.0  0.69736  0.11608  0.83180  1.0000
  S   S143      1.0  0.61975  0.43759  0.75524  1.0000
  H   H421      1.0  0.71714  0.45150  0.74237  1.0000
  H   H422      1.0  0.74756  0.18735  0.71392  1.0000
  C   C428      1.0  0.93314  0.03654  0.72512  1.0000
  C   C429      1.0  0.67712  0.34398  0.75161  1.0000
  C   C430      1.0  0.92860  0.11174  0.71927  1.0000
  H   H423      1.0  0.02588  0.35731  0.74783  1.0000
  H   H424      1.0  0.02191  0.21554  0.88000  1.0000
  C   C431      1.0  0.83126  0.08791  0.65472  1.0000
  H   H425      1.0  0.75933  0.04821  0.72323  1.0000
  S   S144      1.0  0.59624  0.06759  0.86880  1.0000
  C   C432      1.0  0.63091  0.06091  0.72538  1.0000
  C   C433      1.0  0.60888  0.35720  0.76271  1.0000
  S   S145      1.0  0.63592  0.18473  0.73015  1.0000
  C   C434      1.0  0.78779  0.20788  0.68703  1.0000
  H   H426      1.0  0.64564  0.09549  0.72243  1.0000
  C   C435      1.0  0.66394  0.04543  0.71548  1.0000
  H   H427      1.0  0.99381  0.26358  0.71380  1.0000
  S   S146      1.0  0.83748  0.13670  0.67482  1.0000
  H   H428      1.0  0.57009  0.34486  0.76835  1.0000
  H   H429      1.0  0.62836  0.26571  0.88778  1.0000
  Fe  Fe70      1.0  0.53794  0.40190  0.76993  1.0000
  C   C436      1.0  0.64148  0.40156  0.75603  1.0000
  H   H430      1.0  0.70370  0.06812  0.70362  1.0000
  C   C437      1.0  0.80070  0.27791  0.70998  1.0000
  H   H431      1.0  0.98133  0.42850  0.87365  1.0000
  H   H432      1.0  0.60085  0.29422  0.76844  1.0000
  C   C438      1.0  0.00731  0.44896  0.71924  1.0000
  H   H433      1.0  0.01238  0.07832  0.67821  1.0000
  H   H434      1.0  0.61354  0.47200  0.64691  1.0000
  H   H435      1.0  0.56659  0.08437  0.72397  1.0000
  H   H436      1.0  0.85087  0.46126  0.87075  1.0000
  H   H437      1.0  0.68177  0.34218  0.89191  1.0000
  S   S147      1.0  0.79367  0.33480  0.87111  1.0000
  C   C439      1.0  0.65271  0.11227  0.86741  1.0000
  S   S148      1.0  0.77723  0.02981  0.88241  1.0000
  Fe  Fe71      1.0  0.86846  0.37981  0.87955  1.0000
  C   C440      1.0  0.54685  0.04983  0.74680  1.0000
  H   H438      1.0  0.59747  0.96627  0.95452  1.0000
  C   C441      1.0  0.62003  0.86995  0.93438  1.0000
  C   C442      1.0  0.62877  0.96682  0.96372  1.0000
  H   H439      1.0  0.82887  0.93735  0.93854  1.0000
  Fe  Fe72      1.0  0.66286  0.59116  0.99108  1.0000
  H   H440      1.0  0.87775  0.87062  0.99737  1.0000
  S   S149      1.0  0.67744  0.55483  0.05656  1.0000
  S   S150      1.0  0.64628  0.64477  0.00116  1.0000
  H   H441      1.0  0.85609  0.88623  0.10992  1.0000
  H   H442      1.0  0.98776  0.87324  0.07027  1.0000
  H   H443      1.0  0.82116  0.54212  0.08141  1.0000
  C   C443      1.0  0.93568  0.87726  0.03238  1.0000
  H   H444      1.0  0.74165  0.96902  0.99468  1.0000
  H   H445      1.0  0.92916  0.53310  0.98901  1.0000
  H   H446      1.0  0.58517  0.70498  0.92969  1.0000
  S   S151      1.0  0.88041  0.96455  0.03901  1.0000
  H   H447      1.0  0.68289  0.73407  0.95156  1.0000
  S   S152      1.0  0.61948  0.53351  0.95351  1.0000
  H   H448      1.0  0.66034  0.88630  0.91491  1.0000
  H   H449      1.0  0.90215  0.73202  0.03357  1.0000
  H   H450      1.0  0.84441  0.72472  0.08351  1.0000
  H   H451      1.0  0.95079  0.91171  0.03196  1.0000
  C   C444      1.0  0.89462  0.85413  0.01282  1.0000
  N   N37       1.0  0.89628  0.78892  0.03422  1.0000
  H   H452      1.0  0.02232  0.79245  0.91807  1.0000
  H   H453      1.0  0.54269  0.57101  0.02315  1.0000
  H   H454      1.0  0.86011  0.52361  0.09823  1.0000
  H   H455      1.0  0.57138  0.55229  0.10260  1.0000
  S   S153      1.0  0.74189  0.87097  0.91750  1.0000
  C   C445      1.0  0.93618  0.81129  0.05434  1.0000
  C   C446      1.0  0.86606  0.91087  0.13749  1.0000
  S   S154      1.0  0.82568  0.60268  0.97901  1.0000
  Fe  Fe73      1.0  0.53606  0.96239  0.06234  1.0000
  C   C447      1.0  0.87391  0.74191  0.03819  1.0000
  S   S155      1.0  0.70898  0.51154  0.94039  1.0000
  C   C448      1.0  0.89558  0.51810  0.97620  1.0000
  C   C449      1.0  0.85587  0.54108  0.06152  1.0000
  C   C450      1.0  0.83867  0.91566  0.91521  1.0000
  C   C451      1.0  0.66222  0.94317  0.02936  1.0000
  H   H456      1.0  0.91293  0.68890  0.93312  1.0000
  H   H457      1.0  0.77976  0.96880  0.13788  1.0000
  N   N38       1.0  0.85427  0.51927  0.00895  1.0000
  H   H458      1.0  0.77495  0.93521  0.05085  1.0000
  C   C452      1.0  0.95648  0.85572  0.05366  1.0000
  C   C453      1.0  0.80261  0.87978  0.89996  1.0000
  C   C454      1.0  0.71742  0.99403  0.93315  1.0000
  S   S156      1.0  0.98236  0.60170  0.06899  1.0000
  C   C455      1.0  0.85931  0.63472  0.90535  1.0000
  H   H459      1.0  0.84299  0.79200  0.99920  1.0000
  C   C456      1.0  0.88000  0.95318  0.11363  1.0000
  C   C457      1.0  0.67948  0.71605  0.91471  1.0000
  C   C458      1.0  0.71024  0.96880  0.98657  1.0000
  S   S157      1.0  0.73422  0.61154  0.91782  1.0000
  C   C459      1.0  0.74799  0.90231  0.07936  1.0000
  H   H460      1.0  0.56404  0.64947  0.92155  1.0000
  C   C460      1.0  0.67652  0.99216  0.92105  1.0000
  S   S158      1.0  0.56288  0.91667  0.07451  1.0000
  H   H461      1.0  0.65669  0.92472  0.07162  1.0000
  C   C461      1.0  0.87519  0.80971  0.01409  1.0000
  C   C462      1.0  0.66324  0.67184  0.92648  1.0000
  H   H462      1.0  0.85712  0.73095  0.00138  1.0000
  H   H463      1.0  0.75934  0.88030  0.05665  1.0000
  H   H464      1.0  0.95589  0.66612  0.11507  1.0000
  H   H465      1.0  0.88690  0.57526  0.04689  1.0000
  C   C463      1.0  0.62168  0.94300  0.01836  1.0000
  C   C464      1.0  0.55511  0.67572  0.92064  1.0000
  H   H466      1.0  0.88755  0.68248  0.13528  1.0000
  N   N39       1.0  0.54205  0.86164  0.93281  1.0000
  C   C465      1.0  0.88776  0.92417  0.89936  1.0000
  H   H467      1.0  0.71004  0.89292  0.07881  1.0000
  Fe  Fe74      1.0  0.74640  0.57099  0.97914  1.0000
  C   C466      1.0  0.54368  0.81965  0.01465  1.0000
  H   H468      1.0  0.99108  0.97505  0.92960  1.0000
  C   C467      1.0  0.59261  0.88053  0.90657  1.0000
  H   H469      1.0  0.95198  0.79472  0.07220  1.0000
  Fe  Fe75      1.0  0.97873  0.54815  0.12731  1.0000
  C   C468      1.0  0.95858  0.69279  0.13739  1.0000
  H   H470      1.0  0.91529  0.95231  0.91099  1.0000
  C   C469      1.0  0.53696  0.52789  0.09649  1.0000
  C   C470      1.0  0.59536  0.83931  0.98871  1.0000
  H   H471      1.0  0.61654  0.83142  0.01087  1.0000
  H   H472      1.0  0.02022  0.76356  0.01943  1.0000
  C   C471      1.0  0.89887  0.67719  0.89594  1.0000
  H   H473      1.0  0.70223  0.00142  0.13586  1.0000
  H   H474      1.0  0.55110  0.93487  0.34397  1.0000
  C   C472      1.0  0.86310  0.89978  0.19777  1.0000
  H   H475      1.0  0.94559  0.64016  0.24832  1.0000
  H   H476      1.0  0.63397  0.58805  0.37054  1.0000
  H   H477      1.0  0.83813  0.50928  0.24753  1.0000
  C   C473      1.0  0.92277  0.73589  0.17927  1.0000
  C   C474      1.0  0.96434  0.76085  0.19722  1.0000
  H   H478      1.0  0.96668  0.78710  0.22039  1.0000
  C   C475      1.0  0.66599  0.71365  0.34221  1.0000
  H   H479      1.0  0.03031  0.61408  0.35783  1.0000
  C   C476      1.0  0.53300  0.57036  0.22703  1.0000
  Fe  Fe76      1.0  0.66891  0.50865  0.38070  1.0000
  H   H480      1.0  0.79185  0.58838  0.34711  1.0000
  H   H481      1.0  0.01600  0.95935  0.23970  1.0000
  S   S159      1.0  0.92375  0.53043  0.35552  1.0000
  H   H482      1.0  0.62236  0.85865  0.17590  1.0000
  H   H483      1.0  0.55969  0.59740  0.18941  1.0000
  C   C477      1.0  0.73207  0.85934  0.23879  1.0000
  S   S160      1.0  0.86379  0.91541  0.31245  1.0000
  C   C478      1.0  0.61145  0.85490  0.32695  1.0000
  H   H484      1.0  0.67374  0.73430  0.30063  1.0000
  H   H485      1.0  0.85155  0.86683  0.21603  1.0000
  S   S161      1.0  0.70569  0.54849  0.28599  1.0000
  Fe  Fe77      1.0  0.87955  0.78383  0.27255  1.0000
  C   C479      1.0  0.76598  0.93787  0.16597  1.0000
  Fe  Fe78      1.0  0.62818  0.52883  0.28858  1.0000
  C   C480      1.0  0.59252  0.78508  0.29960  1.0000
  Fe  Fe79      1.0  0.67160  0.96968  0.30779  1.0000
  C   C481      1.0  0.76769  0.93674  0.22588  1.0000
  C   C482      1.0  0.88784  0.97339  0.21092  1.0000
  C   C483      1.0  0.87300  0.93080  0.23501  1.0000
  C   C484      1.0  0.61547  0.84553  0.22268  1.0000
  H   H486      1.0  0.02382  0.84540  0.25655  1.0000
  H   H487      1.0  0.85991  0.67322  0.30066  1.0000
  H   H488      1.0  0.01760  0.97167  0.16228  1.0000
  C   C485      1.0  0.60861  0.99001  0.18249  1.0000
  C   C486      1.0  0.73140  0.86169  0.17840  1.0000
  H   H489      1.0  0.75347  0.89646  0.30819  1.0000
  H   H490      1.0  0.59856  0.78200  0.20484  1.0000
  H   H491      1.0  0.61459  0.87495  0.36114  1.0000
  C   C487      1.0  0.92002  0.70213  0.14868  1.0000
  S   S162      1.0  0.57615  0.73103  0.31904  1.0000
  S   S163      1.0  0.64041  0.92668  0.24392  1.0000
  H   H492      1.0  0.96775  0.93751  0.36245  1.0000
  C   C488      1.0  0.00302  0.75187  0.18539  1.0000
  H   H493      1.0  0.60397  0.96330  0.15905  1.0000
  H   H494      1.0  0.71625  0.60276  0.38073  1.0000
  S   S164      1.0  0.93400  0.85433  0.26534  1.0000
  H   H495      1.0  0.78349  0.96644  0.24340  1.0000
  C   C489      1.0  0.89634  0.57475  0.24245  1.0000
  S   S165      1.0  0.87428  0.74695  0.19572  1.0000
  S   S166      1.0  0.61324  0.57862  0.25436  1.0000
  Fe  Fe80      1.0  0.86812  0.85554  0.32619  1.0000
  C   C490      1.0  0.95622  0.98928  0.39131  1.0000
  H   H496      1.0  0.86912  0.65542  0.36829  1.0000
  C   C491      1.0  0.56702  0.98657  0.22655  1.0000
  H   H497      1.0  0.92083  0.68481  0.29908  1.0000
  N   N40       1.0  0.86956  0.61878  0.29827  1.0000
  C   C492      1.0  0.90705  0.61393  0.26187  1.0000
  C   C493      1.0  0.60194  0.80222  0.23907  1.0000
  H   H498      1.0  0.89610  0.99754  0.23942  1.0000
  S   S167      1.0  0.97122  0.65404  0.36302  1.0000
  C   C494      1.0  0.75087  0.89727  0.26231  1.0000
  H   H499      1.0  0.92595  0.57073  0.21430  1.0000
  H   H500      1.0  0.71845  0.82841  0.26691  1.0000
  S   S168      1.0  0.01125  0.86513  0.37764  1.0000
  Fe  Fe81      1.0  0.94117  0.83300  0.35274  1.0000
  C   C495      1.0  0.62116  0.87213  0.26632  1.0000
  C   C496      1.0  0.89142  0.98468  0.15013  1.0000
  C   C497      1.0  0.84721  0.54030  0.26111  1.0000
  S   S169      1.0  0.89290  0.76227  0.35466  1.0000
  C   C498      1.0  0.99996  0.71757  0.15614  1.0000
  C   C499      1.0  0.54948  0.55519  0.26712  1.0000
  C   C500      1.0  0.80954  0.54529  0.29910  1.0000
  H   H501      1.0  0.63181  0.65491  0.30818  1.0000
  H   H502      1.0  0.69804  0.76641  0.38860  1.0000
  S   S170      1.0  0.81258  0.78661  0.32694  1.0000
  C   C501      1.0  0.67932  0.73158  0.39162  1.0000
  C   C502      1.0  0.59651  0.81122  0.34379  1.0000
  C   C503      1.0  0.64199  0.66866  0.34686  1.0000
  C   C504      1.0  0.88036  0.66011  0.31751  1.0000
  C   C505      1.0  0.82138  0.58495  0.31735  1.0000
  H   H503      1.0  0.77157  0.51807  0.31507  1.0000
  C   C506      1.0  0.53470  0.90287  0.37082  1.0000
  H   H504      1.0  0.71680  0.83213  0.16031  1.0000
  H   H505      1.0  0.58878  0.79805  0.39075  1.0000
  S   S171      1.0  0.68908  0.95001  0.38702  1.0000
  H   H506      1.0  0.57369  0.58349  0.38842  1.0000
  C   C507      1.0  0.03067  0.98596  0.20038  1.0000
  N   N41       1.0  0.74898  0.90073  0.14254  1.0000
  C   C508      1.0  0.53397  0.58449  0.61412  1.0000
  H   H507      1.0  0.79951  0.54397  0.59415  1.0000
  C   C509      1.0  0.72596  0.58278  0.46280  1.0000
  Fe  Fe82      1.0  0.53770  0.66480  0.53840  1.0000
  C   C510      1.0  0.74463  0.95678  0.53896  1.0000
  Fe  Fe83      1.0  0.87870  0.52329  0.53121  1.0000
  C   C511      1.0  0.92149  0.92813  0.57237  1.0000
  C   C512      1.0  0.64483  0.65963  0.44779  1.0000
  C   C513      1.0  0.63358  0.56878  0.59727  1.0000
  H   H508      1.0  0.92819  0.90054  0.57347  1.0000
  H   H509      1.0  0.95079  0.90366  0.46761  1.0000
  C   C514      1.0  0.64997  0.60989  0.61245  1.0000
  C   C515      1.0  0.66993  0.87809  0.52771  1.0000
  C   C516      1.0  0.80939  0.94520  0.47308  1.0000
  S   S172      1.0  0.56939  0.64142  0.59618  1.0000
  S   S173      1.0  0.56715  0.73347  0.49452  1.0000
  Fe  Fe84      1.0  0.82933  0.76935  0.40862  1.0000
  S   S174      1.0  0.86449  0.52066  0.63190  1.0000
  H   H510      1.0  0.66232  0.63792  0.57852  1.0000
  S   S175      1.0  0.82297  0.95991  0.62105  1.0000
  H   H511      1.0  0.00671  0.67377  0.47391  1.0000
  C   C517      1.0  0.99895  0.50642  0.56803  1.0000
  H   H512      1.0  0.78184  0.70767  0.61401  1.0000
  S   S176      1.0  0.87830  0.83833  0.41314  1.0000
  C   C518      1.0  0.89872  0.63922  0.62454  1.0000
  H   H513      1.0  0.86191  0.65400  0.56982  1.0000
  Fe  Fe85      1.0  0.94467  0.50655  0.42710  1.0000
  S   S177      1.0  0.85211  0.54842  0.46781  1.0000
  H   H514      1.0  0.73028  0.87255  0.46980  1.0000
  H   H515      1.0  0.63278  0.56512  0.55112  1.0000
  H   H516      1.0  0.55810  0.92585  0.44815  1.0000
  C   C519      1.0  0.69465  0.94303  0.57016  1.0000
  N   N42       1.0  0.94012  0.63774  0.62487  1.0000
  C   C520      1.0  0.94793  0.93233  0.46070  1.0000
  C   C521      1.0  0.93427  0.66620  0.51542  1.0000
  Fe  Fe86      1.0  0.66224  0.99118  0.43521  1.0000
  C   C522      1.0  0.95827  0.95167  0.40094  1.0000
  H   H517      1.0  0.63740  0.63886  0.48889  1.0000
  N   N43       1.0  0.63152  0.64231  0.39936  1.0000
  H   H518      1.0  0.77038  0.64849  0.56048  1.0000
  H   H519      1.0  0.54845  0.76277  0.61919  1.0000
  H   H520      1.0  0.82074  0.92783  0.50015  1.0000
  H   H521      1.0  0.94420  0.95133  0.59732  1.0000
  C   C523      1.0  0.66885  0.70444  0.44477  1.0000
  N   N44       1.0  0.75690  0.93166  0.50310  1.0000
  H   H522      1.0  0.67968  0.71787  0.48332  1.0000
  H   H523      1.0  0.59610  0.57727  0.44919  1.0000
  H   H524      1.0  0.74132  0.57305  0.54538  1.0000
  H   H525      1.0  0.64088  0.84724  0.52320  1.0000
  H   H526      1.0  0.61826  0.89321  0.58716  1.0000
  S   S178      1.0  0.77478  0.72006  0.49371  1.0000
  S   S179      1.0  0.61338  0.97328  0.53283  1.0000
  H   H527      1.0  0.93191  0.67713  0.47263  1.0000
  H   H528      1.0  0.01112  0.64813  0.57131  1.0000
  C   C524      1.0  0.74721  0.65607  0.42657  1.0000
  H   H529      1.0  0.81559  0.93845  0.42575  1.0000
  Fe  Fe87      1.0  0.93183  0.58396  0.40691  1.0000
  C   C525      1.0  0.76062  0.66859  0.47854  1.0000
  S   S180      1.0  0.95888  0.56291  0.47380  1.0000
  H   H530      1.0  0.68486  0.96283  0.59867  1.0000
  N   N45       1.0  0.93531  0.94976  0.50949  1.0000
  C   C526      1.0  0.97857  0.64989  0.57150  1.0000
  C   C527      1.0  0.93457  0.98726  0.50027  1.0000
  Fe  Fe88      1.0  0.01922  0.88895  0.64024  1.0000
  Fe  Fe89      1.0  0.53745  0.70440  0.41970  1.0000
  C   C528      1.0  0.75943  0.63887  0.52069  1.0000
  N   N46       1.0  0.61929  0.53376  0.63986  1.0000
  H   H531      1.0  0.88138  0.91570  0.59685  1.0000
  C   C529      1.0  0.89504  0.65332  0.56990  1.0000
  S   S181      1.0  0.69848  0.52779  0.45896  1.0000
  C   C530      1.0  0.97632  0.66448  0.51612  1.0000
  C   C531      1.0  0.53857  0.89776  0.42900  1.0000
  H   H532      1.0  0.83420  0.98061  0.46876  1.0000
  C   C532      1.0  0.74292  0.59618  0.51222  1.0000
  C   C533      1.0  0.60758  0.59542  0.40236  1.0000
  C   C534      1.0  0.72871  0.61283  0.41942  1.0000
  H   H533      1.0  0.77354  0.98756  0.54382  1.0000
  C   C535      1.0  0.72037  0.89260  0.49762  1.0000
  C   C536      1.0  0.65715  0.90366  0.56398  1.0000
  H   H534      1.0  0.92599  0.00161  0.53888  1.0000
  C   C537      1.0  0.96502  0.50373  0.62245  1.0000
  H   H535      1.0  0.74918  0.67930  0.39317  1.0000
  C   C538      1.0  0.54114  0.78615  0.64099  1.0000
  C   C539      1.0  0.84156  0.61966  0.85713  1.0000
  C   C540      1.0  0.94274  0.62292  0.68304  1.0000
  N   N47       1.0  0.80291  0.72087  0.77079  1.0000
  C   C541      1.0  0.84306  0.99204  0.77715  1.0000
  H   H536      1.0  0.76026  0.64323  0.68751  1.0000
  H   H537      1.0  0.57917  0.93801  0.73960  1.0000
  H   H538      1.0  0.73581  0.56008  0.65473  1.0000
  C   C542      1.0  0.68591  0.71380  0.80759  1.0000
  H   H539      1.0  0.84432  0.75667  0.82708  1.0000
  Fe  Fe90      1.0  0.65069  0.85555  0.76146  1.0000
  C   C543      1.0  0.80765  0.75198  0.67372  1.0000
  Fe  Fe91      1.0  0.69249  0.55172  0.88376  1.0000
  H   H540      1.0  0.59286  0.80012  0.69092  1.0000
  C   C544      1.0  0.53687  0.70447  0.75256  1.0000
  C   C545      1.0  0.74602  0.54844  0.74056  1.0000
  C   C546      1.0  0.64955  0.61469  0.67213  1.0000
  H   H541      1.0  0.53740  0.90447  0.87146  1.0000
  H   H542      1.0  0.93994  0.64421  0.71579  1.0000
  C   C547      1.0  0.69153  0.73711  0.85514  1.0000
  C   C548      1.0  0.63330  0.57849  0.71577  1.0000
  H   H543      1.0  0.63249  0.58139  0.76258  1.0000
  C   C549      1.0  0.55599  0.83692  0.71073  1.0000
  H   H544      1.0  0.56516  0.66305  0.71935  1.0000
  C   C550      1.0  0.77177  0.53658  0.76955  1.0000
  S   S182      1.0  0.00297  0.82366  0.79024  1.0000
  S   S183      1.0  0.69373  0.73801  0.73491  1.0000
  H   H545      1.0  0.02671  0.70868  0.68994  1.0000
  C   C551      1.0  0.86006  0.64773  0.80127  1.0000
  H   H546      1.0  0.80885  0.99357  0.78175  1.0000
  C   C552      1.0  0.64533  0.00096  0.72053  1.0000
  C   C553      1.0  0.56195  0.66825  0.81331  1.0000
  C   C554      1.0  0.80753  0.52754  0.73569  1.0000
  C   C555      1.0  0.90100  0.89638  0.86929  1.0000
  H   H547      1.0  0.57618  0.64678  0.81722  1.0000
  Fe  Fe92      1.0  0.70270  0.80364  0.74018  1.0000
  H   H548      1.0  0.66875  0.65227  0.78235  1.0000
  H   H549      1.0  0.77696  0.72621  0.86291  1.0000
  H   H550      1.0  0.95539  0.51958  0.71197  1.0000
  C   C556      1.0  0.59407  0.97261  0.73533  1.0000
  H   H551      1.0  0.61220  0.90462  0.86454  1.0000
  H   H552      1.0  0.60765  0.51052  0.73261  1.0000
  H   H553      1.0  0.75073  0.97962  0.69590  1.0000
  Fe  Fe93      1.0  0.98862  0.87811  0.77774  1.0000
  H   H554      1.0  0.81147  0.58674  0.86422  1.0000
  H   H555      1.0  0.82717  0.51822  0.75869  1.0000
  H   H556      1.0  0.84354  0.63616  0.76599  1.0000
  S   S184      1.0  0.65112  0.80701  0.82416  1.0000
  C   C557      1.0  0.53313  0.71393  0.85638  1.0000
  C   C558      1.0  0.67174  0.67013  0.81899  1.0000
  S   S185      1.0  0.70260  0.56121  0.78316  1.0000
  H   H557      1.0  0.84204  0.96742  0.74879  1.0000
  C   C559      1.0  0.81762  0.53017  0.67248  1.0000
  Fe  Fe94      1.0  0.96421  0.79795  0.72118  1.0000
  H   H558      1.0  0.91170  0.58912  0.70295  1.0000
  H   H559      1.0  0.78764  0.82358  0.85869  1.0000
  H   H560      1.0  0.81269  0.69941  0.85088  1.0000
  H   H561      1.0  0.53958  0.57979  0.70470  1.0000
  S   S186      1.0  0.94500  0.85004  0.71391  1.0000
  S   S187      1.0  0.58528  0.86250  0.76332  1.0000
  C   C560      1.0  0.81566  0.85189  0.86955  1.0000
  Fe  Fe95      1.0  0.76172  0.90254  0.69530  1.0000
  C   C561      1.0  0.56640  0.80743  0.68133  1.0000
  H   H562      1.0  0.76400  0.53411  0.81815  1.0000
  H   H563      1.0  0.66140  0.64641  0.68423  1.0000
  C   C562      1.0  0.75598  0.55114  0.67715  1.0000
  H   H564      1.0  0.70514  0.77138  0.84638  1.0000
  C   C563      1.0  0.66051  0.64920  0.87813  1.0000
  H   H565      1.0  0.77325  0.65249  0.78760  1.0000
  H   H566      1.0  0.86797  0.62894  0.66659  1.0000
  C   C564      1.0  0.81436  0.75618  0.73102  1.0000
  C   C565      1.0  0.56211  0.98928  0.74437  1.0000
  Fe  Fe96      1.0  0.72152  0.86185  0.83170  1.0000
  C   C566      1.0  0.98229  0.52262  0.66940  1.0000
  C   C567      1.0  0.89729  0.69104  0.79276  1.0000
  C   C568      1.0  0.61885  0.53816  0.69860  1.0000
  S   S188      1.0  0.69678  0.84817  0.67607  1.0000
  S   S189      1.0  0.71526  0.91106  0.77899  1.0000
  S   S190      1.0  0.91400  0.72675  0.72538  1.0000
  N   N48       1.0  0.54989  0.68600  0.86197  1.0000
  H   H567      1.0  0.67053  0.98849  0.71330  1.0000
  S   S191      1.0  0.77313  0.85722  0.74956  1.0000
  C   C569      1.0  0.77597  0.67525  0.69889  1.0000
  C   C570      1.0  0.78818  0.71123  0.65776  1.0000
  H   H568      1.0  0.97830  0.62353  0.67712  1.0000
  H   H569      1.0  0.64859  0.61521  0.88638  1.0000
  H   H570      1.0  0.82815  0.78773  0.74384  1.0000
  C   C571      1.0  0.78342  0.68069  0.75567  1.0000
  C   C572      1.0  0.86479  0.86008  0.85447  1.0000
  H   H571      1.0  0.84150  0.98124  0.82375  1.0000
  C   C573      1.0  0.91788  0.70532  0.83950  1.0000
  H   H572      1.0  0.94726  0.73813  0.83322  1.0000
  H   H573      1.0  0.87431  0.83787  0.83263  1.0000
  S   S192      1.0  0.96205  0.90621  0.85469  1.0000
  C   C574      1.0  0.55551  0.67711  0.75794  1.0000
  C   C575      1.0  0.80937  0.72608  0.83103  1.0000
  H   H574      1.0  0.02018  0.54221  0.75861  1.0000
  H   H575      1.0  0.53143  0.71126  0.70997  1.0000
  C   C576      1.0  0.79179  0.54185  0.64299  1.0000
  H   H576      1.0  0.81592  0.77983  0.64265  1.0000
