data_image0
_chemical_formula_structural       H2SCFeS2FeSHFeSFeS3FeC2HSHFeH2SCH2SHC6H4NCHC6H4C2H2C3H2CH2CHCFeCSHCFeH2CHCSCH2CHN2C5SH6SNHSH2CH2C3FeS2FeS2FeS3FeS2FeS2FeSFeCS2HCSHSH3C2SCHSHFeSNSCFeS2FeS2FeSFeS3FeS2FeS2FeSFeS3FeS2FeS2FeSFeS2H2SC2FeCHC6H4C6H4C6H5C6H4C6H6C2HC7H4C6H4CHCH2C6H6C3FeCH3C6H3NC2H4NH3CH3C5H2SH3C2HNC6H8NC6H7NC6H8CH2CH2CH2NC6H3CH3C3HCHCSH2C2H2NC3H3CHC2N2HCHFeHCHC2HCHCHCHCH2FeSHC2H5CHC2HNCHCH3CH2CFeCFeSCH4SC2SHCH2CHC2HSC2HCHFeH2NCH4C3N2FeCSFeS2Fe3HS2CHSCH2CHCHCH4C6H5SC4HCH3CH2CHC3HSHCH4CH2CHC2S2HCH2FeS2FeS2FeSFeS3FeS2FeS2FeSFeS3FeS2FeS2Fe2S3FeSCHNFeS2FeS2FeS2Fe2S5FeSFeSH6C6H4CHCHC6H4C6H4C6H4C6H4C6H4C6H4C6H4C6H5CH2N2C5H3CHSCHC5H3NC6H8CH3NC6H8NC6H9C2HC3HSC2FeNHCH2FeH3CNC4HC2NHC2SHC2SCH2NC3H2C2HS2NC2HC3HC4SC3H3CFeH3CHSC2HFeC2HCH3CHC3H3CSCH3CFeHNC2HSHCSHSFeCHC2S2C2H8C2H2CHSC2H2C2SC2NCFeSH2CSH3CFeCH4CH5NHCSCHC3Fe2C2SCHCHCH3CHC2H2CH3CH3CHC2HCNC2H2SHCNH2CHSNCHCH4C2SHCSCH2CHSC2HSHCH3SCSCNCSFeS2FeS2FeSFeS3FeS2FeS2FeSFeS3FeS2FeS2FeSFeS3FeS2FeS2FeSFeS3FeS2FeS2FeSFeHS2C6H4C6H4C6H4C6H4C3H4C6H4C6H6C5H2C6H4C5H3C6H4C6H4C6H4NC6H7NC3SHNHC2HSHNC3H4C3HCH4CH2CH6CSCFeHC2H2CNH3NC6H8C3H5CH2CHCNC6H2CH2CH2SH3NC4SCHC2H4CHC3SCH3CHFeNSH3CH4CHC2HN2HFeH3FeSHCHCSC2HFeCHCH2C3HC2H2CHNCH2CH2CHFeHCHC2HSC3FeS2FeSFeSFeS3FeS2FeS2FeSFeS3FeS2FeS2FeSFeS3FeS2FeS2FeSFeS3FeHSFeS2FeHFeS3FeS2FeS2FeCFeS3CH4N2S2C3HC2H3C3HCHFeC9H2CH4C2HFeH2C6H4C6H4C6H4C6H4C6H4CNC2H3C6H4C6H4C6H4C6H4C6H3NHNHCSCH3CHC2HSH3C2H2NC6H8NC6H8NC6H6C2SCH2SC3SH2SHCH3C3HCH3NCNCH2CHCHC3HC3H2C3HCHSHCFeH3CH3CSCH2SNC5HCNHCHCSH2C3H3CH4CH5C2H3FeHCNHCHCH3C2NHCHC2SHC2HCSHCH5FeH2C4H2FeSHFeS2FeSFeS3FeS2FeS2FeSFeS3FeSNFeS2FeSFeS3FeS2FeS2FeSFeS3FeS2FeS2FeSFeS3FeS2FeS2FeSFeS3C2S2FeS2FeSFeS2C6HCH2C6H7C8H4C6H4C6H4C6H5CH2CH4C6H4C6H4C6H4C6H4C6H4C6H4C6H3FeHC5H4CSH3C3NC6H10CH2C2SNHC5NC6H8NC6H7C2H3CHSCH2CHCHCSC2HNH3CH4CHNHCH2C2HCHCHN2H3C3H3C2H3SC2HC2HFeCHCH4NSHCSNCHCH2C2H5C3HNCNHCHCHCH3C4H3CHCHNH2C2HCFeH6C2H3CNCH2C2H3NC3HC3HC2SFeHC3HCH2SC2SCH7SC2H2CHC2HCH2CFeHCHNH2C5HS2HFeSFeHCS2H6NCS2HC6H4CH2FeH2C4HCH3CH2CH2NFeS2FeS2Fe2S4FeS2FeCFeSFeS2FeS2FeSFeS3FeS2FeS2FeSFeS3FeS2FeS2FeSFeS3FeS2FeS2FeSFeS3HSHSHFeCFeSCSFeS2FeS2FeS3C6H4C6H2CHC6H4C2HC3H4C6H4C6H4C6H4C6H4C6H4C6H3C6H4C6H4C6H5C6HSH2NC5H5NC6H8NC6H8NC6H8CFeH7C3SHCNCH2C2H2SHCNCNC2H2CHCHC2H2CH2C2H5NC2HSCH4C2H2NC2H2C2H2CHCHC3HC2SH6C2H2C3H3CNHFeH2NH4SHNHC3HC2HC2FeHSC4NCHCH2C2HFeCH3NH4CHC2H4C3HC4HC4HCH2CHNH2CH4SCH2SHCH
_chemical_formula_sum              "H1152 S384 C1152 Fe192 N96"
_cell_length_a       117.498
_cell_length_b       115.949
_cell_length_c       31.3018
_cell_angle_alpha    76.9305
_cell_angle_beta     77.3317
_cell_angle_gamma    102.278

_space_group_name_H-M_alt    "P 1"
_space_group_IT_number       1

loop_
  _space_group_symop_operation_xyz
  'x, y, z'

loop_
  _atom_site_type_symbol
  _atom_site_label
  _atom_site_symmetry_multiplicity
  _atom_site_fract_x
  _atom_site_fract_y
  _atom_site_fract_z
  _atom_site_occupancy
  H   H1        1.0  0.09334  0.46621  0.34428  1.0000
  H   H2        1.0  0.07108  0.48371  0.42054  1.0000
  S   S1        1.0  0.08925  0.47829  0.26102  1.0000
  C   C1        1.0  0.04798  0.49212  0.14308  1.0000
  Fe  Fe1       1.0  0.04842  0.46224  0.08047  1.0000
  S   S2        1.0  0.06169  0.47518  0.01662  1.0000
  S   S3        1.0  0.05247  0.45986  0.14998  1.0000
  Fe  Fe2       1.0  0.02953  0.45390  0.02781  1.0000
  S   S4        1.0  0.04195  0.46673  0.96034  1.0000
  H   H3        1.0  0.15909  0.50353  0.51995  1.0000
  Fe  Fe3       1.0  0.05704  0.46038  0.98346  1.0000
  S   S5        1.0  0.07411  0.45735  0.94359  1.0000
  Fe  Fe4       1.0  0.04556  0.48038  0.99993  1.0000
  S   S6        1.0  0.04561  0.50014  0.97487  1.0000
  S   S7        1.0  0.04457  0.44663  0.04891  1.0000
  S   S8        1.0  0.03232  0.46828  0.06583  1.0000
  Fe  Fe5       1.0  0.12140  0.50705  0.71654  1.0000
  C   C2        1.0  0.07826  0.47917  0.41698  1.0000
  C   C3        1.0  0.07970  0.50318  0.88160  1.0000
  H   H4        1.0  0.08264  0.48157  0.47844  1.0000
  S   S9        1.0  0.12090  0.48616  0.28972  1.0000
  H   H5        1.0  0.10675  0.45583  0.43240  1.0000
  Fe  Fe6       1.0  0.13344  0.50282  0.23365  1.0000
  H   H6        1.0  0.09238  0.46344  0.13673  1.0000
  H   H7        1.0  0.04785  0.48293  0.16138  1.0000
  S   S10       1.0  0.13885  0.50381  0.68023  1.0000
  C   C4        1.0  0.12636  0.50243  0.52465  1.0000
  H   H8        1.0  0.01321  0.44095  0.94726  1.0000
  H   H9        1.0  0.09929  0.47166  0.46852  1.0000
  S   S11       1.0  0.14971  0.50197  0.18120  1.0000
  H   H10       1.0  0.03232  0.48584  0.12130  1.0000
  C   C5        1.0  0.09473  0.48545  0.80460  1.0000
  C   C6        1.0  0.08200  0.48206  0.81937  1.0000
  C   C7        1.0  0.07566  0.47385  0.86269  1.0000
  C   C8        1.0  0.08200  0.46861  0.89104  1.0000
  C   C9        1.0  0.09476  0.47201  0.87647  1.0000
  C   C10       1.0  0.10113  0.48058  0.83360  1.0000
  H   H11       1.0  0.15763  0.48741  0.54070  1.0000
  H   H12       1.0  0.06584  0.47118  0.87337  1.0000
  H   H13       1.0  0.09971  0.46792  0.89813  1.0000
  H   H14       1.0  0.07651  0.47588  0.35329  1.0000
  N   N1        1.0  0.09707  0.46805  0.40658  1.0000
  C   C11       1.0  0.16991  0.50154  0.65962  1.0000
  H   H15       1.0  0.11094  0.48306  0.82233  1.0000
  C   C12       1.0  0.07953  0.47437  0.22655  1.0000
  C   C13       1.0  0.08104  0.48109  0.18109  1.0000
  C   C14       1.0  0.07286  0.47700  0.15646  1.0000
  C   C15       1.0  0.06314  0.46622  0.17732  1.0000
  C   C16       1.0  0.06172  0.45976  0.22257  1.0000
  C   C17       1.0  0.06980  0.46373  0.24667  1.0000
  H   H16       1.0  0.08850  0.48934  0.16495  1.0000
  H   H17       1.0  0.07412  0.48213  0.12149  1.0000
  H   H18       1.0  0.05428  0.45149  0.23932  1.0000
  H   H19       1.0  0.06844  0.45845  0.28153  1.0000
  C   C18       1.0  0.07811  0.44893  0.13235  1.0000
  C   C19       1.0  0.03923  0.49383  0.12019  1.0000
  H   H20       1.0  0.05362  0.43623  0.13735  1.0000
  H   H21       1.0  0.17070  0.50740  0.10478  1.0000
  C   C20       1.0  0.08468  0.47791  0.44955  1.0000
  C   C21       1.0  0.12123  0.49672  0.49512  1.0000
  C   C22       1.0  0.10738  0.46275  0.40037  1.0000
  H   H22       1.0  0.11600  0.47018  0.39116  1.0000
  H   H23       1.0  0.08893  0.46420  0.00208  1.0000
  C   C23       1.0  0.08130  0.47478  0.37928  1.0000
  H   H24       1.0  0.02643  0.49848  0.06360  1.0000
  H   H25       1.0  0.10781  0.45817  0.37271  1.0000
  C   C24       1.0  0.09084  0.46928  0.37439  1.0000
  H   H26       1.0  0.12289  0.49841  0.56127  1.0000
  C   C25       1.0  0.06409  0.50654  0.01311  1.0000
  Fe  Fe7       1.0  0.12024  0.49899  0.33488  1.0000
  C   C26       1.0  0.09406  0.47223  0.44389  1.0000
  S   S12       1.0  0.11914  0.49356  0.41177  1.0000
  H   H27       1.0  0.06194  0.49697  0.03123  1.0000
  C   C27       1.0  0.06176  0.43322  0.12430  1.0000
  Fe  Fe8       1.0  0.10576  0.49231  0.26563  1.0000
  H   H28       1.0  0.14548  0.49375  0.56240  1.0000
  H   H29       1.0  0.09951  0.47326  0.05261  1.0000
  C   C28       1.0  0.12559  0.50167  0.44718  1.0000
  H   H30       1.0  0.06311  0.42654  0.15302  1.0000
  C   C29       1.0  0.05695  0.50233  0.14189  1.0000
  S   S13       1.0  0.10199  0.49529  0.74880  1.0000
  C   C30       1.0  0.07620  0.44937  0.05809  1.0000
  H   H31       1.0  0.05995  0.42833  0.09872  1.0000
  H   H32       1.0  0.06391  0.50112  0.15889  1.0000
  C   C31       1.0  0.15970  0.48781  0.62373  1.0000
  H   H33       1.0  0.11386  0.48835  0.50961  1.0000
  N   N2        1.0  0.07240  0.44398  0.10430  1.0000
  N   N3        1.0  0.16071  0.49762  0.58787  1.0000
  C   C32       1.0  0.16434  0.48961  0.66000  1.0000
  C   C33       1.0  0.15550  0.49544  0.55095  1.0000
  C   C34       1.0  0.08802  0.45944  0.11420  1.0000
  C   C35       1.0  0.09197  0.46498  0.06709  1.0000
  C   C36       1.0  0.08604  0.45993  0.03878  1.0000
  S   S14       1.0  0.10392  0.50352  0.31588  1.0000
  H   H34       1.0  0.16346  0.48185  0.68860  1.0000
  H   H35       1.0  0.07479  0.44495  0.16914  1.0000
  H   H36       1.0  0.07242  0.50307  0.91134  1.0000
  H   H37       1.0  0.15519  0.47854  0.62461  1.0000
  H   H38       1.0  0.07159  0.44558  0.03582  1.0000
  H   H39       1.0  0.07699  0.48568  0.79690  1.0000
  S   S15       1.0  0.00950  0.44270  0.04219  1.0000
  N   N4        1.0  0.03947  0.50538  0.09641  1.0000
  H   H40       1.0  0.17340  0.50309  0.68785  1.0000
  S   S16       1.0  0.11837  0.50813  0.20767  1.0000
  H   H41       1.0  0.08401  0.49579  0.89249  1.0000
  H   H42       1.0  0.07517  0.50105  0.85553  1.0000
  C   C37       1.0  0.03032  0.50699  0.07214  1.0000
  H   H43       1.0  0.00717  0.50024  0.95393  1.0000
  H   H44       1.0  0.02293  0.50962  0.09314  1.0000
  C   C38       1.0  0.16599  0.50937  0.58759  1.0000
  C   C39       1.0  0.05716  0.51063  0.98497  1.0000
  C   C40       1.0  0.17070  0.51150  0.62338  1.0000
  Fe  Fe9       1.0  0.20220  0.55480  0.99553  1.0000
  S   S17       1.0  0.20738  0.54193  0.95532  1.0000
  S   S18       1.0  0.18971  0.55209  0.06562  1.0000
  Fe  Fe10      1.0  0.21537  0.57762  0.91541  1.0000
  S   S19       1.0  0.22114  0.56667  0.86819  1.0000
  S   S20       1.0  0.21899  0.59828  0.89109  1.0000
  Fe  Fe11      1.0  0.20219  0.55353  0.89774  1.0000
  S   S21       1.0  0.18666  0.54798  0.86503  1.0000
  S   S22       1.0  0.19632  0.56569  0.94007  1.0000
  S   S23       1.0  0.22100  0.56777  0.97376  1.0000
  Fe  Fe12      1.0  0.23406  0.65019  0.99678  1.0000
  S   S24       1.0  0.24474  0.66558  0.93354  1.0000
  S   S25       1.0  0.23656  0.63108  0.01397  1.0000
  Fe  Fe13      1.0  0.21767  0.66496  0.03020  1.0000
  S   S26       1.0  0.22701  0.68151  0.96885  1.0000
  S   S27       1.0  0.20039  0.66410  0.08143  1.0000
  Fe  Fe14      1.0  0.22631  0.66755  0.92833  1.0000
  S   S28       1.0  0.21962  0.66960  0.86387  1.0000
  Fe  Fe15      1.0  0.24464  0.67817  0.98008  1.0000
  C   C41       1.0  0.09564  0.51884  0.81837  1.0000
  S   S29       1.0  0.21588  0.65156  0.98915  1.0000
  S   S30       1.0  0.23506  0.66224  0.04389  1.0000
  H   H45       1.0  0.17904  0.54067  0.99493  1.0000
  C   C42       1.0  0.15283  0.58308  0.62688  1.0000
  S   S31       1.0  0.16596  0.52137  0.72634  1.0000
  H   H46       1.0  0.08474  0.60542  0.03318  1.0000
  S   S32       1.0  0.11574  0.53776  0.24389  1.0000
  H   H47       1.0  0.18593  0.58141  0.17757  1.0000
  H   H48       1.0  0.22763  0.59268  0.97198  1.0000
  H   H49       1.0  0.03222  0.57385  0.05641  1.0000
  C   C43       1.0  0.17091  0.63679  0.33258  1.0000
  C   C44       1.0  0.15969  0.54576  0.04276  1.0000
  S   S33       1.0  0.13073  0.52118  0.74535  1.0000
  C   C45       1.0  0.18444  0.66103  0.91431  1.0000
  H   H50       1.0  0.18546  0.65528  0.02468  1.0000
  S   S34       1.0  0.12099  0.52087  0.65388  1.0000
  H   H51       1.0  0.15493  0.63908  0.43352  1.0000
  Fe  Fe16      1.0  0.13160  0.53457  0.68007  1.0000
  S   S35       1.0  0.12693  0.55226  0.67953  1.0000
  N   N5        1.0  0.18170  0.63662  0.34215  1.0000
  S   S36       1.0  0.14947  0.53367  0.64027  1.0000
  C   C46       1.0  0.17360  0.56671  0.70512  1.0000
  Fe  Fe17      1.0  0.15769  0.60919  0.29341  1.0000
  S   S37       1.0  0.14376  0.61922  0.31246  1.0000
  S   S38       1.0  0.17746  0.61645  0.25186  1.0000
  Fe  Fe18      1.0  0.14026  0.58448  0.35087  1.0000
  S   S39       1.0  0.12546  0.59280  0.37465  1.0000
  S   S40       1.0  0.13611  0.56396  0.37844  1.0000
  Fe  Fe19      1.0  0.13048  0.60365  0.30030  1.0000
  S   S41       1.0  0.11560  0.60493  0.26291  1.0000
  Fe  Fe20      1.0  0.14022  0.60711  0.38499  1.0000
  S   S42       1.0  0.13769  0.61276  0.45238  1.0000
  S   S43       1.0  0.14489  0.59474  0.27661  1.0000
  S   S44       1.0  0.15461  0.59784  0.36574  1.0000
  Fe  Fe21      1.0  0.16943  0.62404  0.76651  1.0000
  S   S45       1.0  0.15182  0.61164  0.81618  1.0000
  S   S46       1.0  0.18241  0.62997  0.80873  1.0000
  Fe  Fe22      1.0  0.16074  0.61791  0.68248  1.0000
  S   S47       1.0  0.14277  0.60572  0.72841  1.0000
  S   S48       1.0  0.16559  0.61658  0.60773  1.0000
  Fe  Fe23      1.0  0.14281  0.61997  0.76626  1.0000
  S   S49       1.0  0.12618  0.62600  0.79173  1.0000
  Fe  Fe24      1.0  0.15332  0.59846  0.77462  1.0000
  S   S50       1.0  0.15066  0.57827  0.80606  1.0000
  S   S51       1.0  0.16022  0.63324  0.71718  1.0000
  S   S52       1.0  0.17149  0.60991  0.72805  1.0000
  Fe  Fe25      1.0  0.08010  0.55266  0.03090  1.0000
  S   S53       1.0  0.06957  0.54832  0.10413  1.0000
  S   S54       1.0  0.08747  0.53800  0.00882  1.0000
  Fe  Fe26      1.0  0.07623  0.57777  0.00670  1.0000
  S   S55       1.0  0.06500  0.57515  0.07832  1.0000
  S   S56       1.0  0.07877  0.59562  0.95416  1.0000
  Fe  Fe27      1.0  0.07978  0.56766  0.10033  1.0000
  S   S57       1.0  0.09175  0.57158  0.14834  1.0000
  Fe  Fe28      1.0  0.05593  0.55608  0.07471  1.0000
  S   S58       1.0  0.09120  0.57121  0.02821  1.0000
  S   S59       1.0  0.06621  0.55958  0.00188  1.0000
  H   H52       1.0  0.03852  0.54179  0.00599  1.0000
  H   H53       1.0  0.17597  0.58305  0.72803  1.0000
  S   S60       1.0  0.13400  0.51495  0.28021  1.0000
  C   C47       1.0  0.07583  0.52757  0.99942  1.0000
  C   C48       1.0  0.06874  0.53173  0.97206  1.0000
  Fe  Fe29      1.0  0.22604  0.55606  0.92872  1.0000
  C   C49       1.0  0.01344  0.53116  0.09721  1.0000
  H   H54       1.0  0.07062  0.54145  0.95555  1.0000
  C   C50       1.0  0.11324  0.61665  0.83650  1.0000
  C   C51       1.0  0.11228  0.60461  0.86161  1.0000
  C   C52       1.0  0.10170  0.59782  0.89778  1.0000
  C   C53       1.0  0.09211  0.60311  0.90854  1.0000
  C   C54       1.0  0.09315  0.61505  0.88310  1.0000
  C   C55       1.0  0.10362  0.62176  0.84759  1.0000
  H   H55       1.0  0.11966  0.60057  0.85313  1.0000
  H   H56       1.0  0.10097  0.58858  0.91718  1.0000
  H   H57       1.0  0.08582  0.61920  0.89095  1.0000
  H   H58       1.0  0.10425  0.63101  0.82838  1.0000
  C   C56       1.0  0.14541  0.61314  0.49610  1.0000
  C   C57       1.0  0.15693  0.61116  0.49181  1.0000
  C   C58       1.0  0.16289  0.61227  0.52610  1.0000
  C   C59       1.0  0.15740  0.61507  0.56595  1.0000
  C   C60       1.0  0.14575  0.61668  0.57079  1.0000
  C   C61       1.0  0.13989  0.61584  0.53604  1.0000
  H   H59       1.0  0.16138  0.60908  0.46153  1.0000
  H   H60       1.0  0.17189  0.61099  0.52165  1.0000
  H   H61       1.0  0.14132  0.61886  0.60091  1.0000
  H   H62       1.0  0.13101  0.61741  0.54011  1.0000
  C   C62       1.0  0.10975  0.59616  0.22794  1.0000
  C   C63       1.0  0.10007  0.59873  0.21117  1.0000
  C   C64       1.0  0.09470  0.59163  0.18561  1.0000
  C   C65       1.0  0.09886  0.58170  0.17664  1.0000
  C   C66       1.0  0.10870  0.57931  0.19257  1.0000
  C   C67       1.0  0.11413  0.58648  0.21777  1.0000
  H   H63       1.0  0.09657  0.60619  0.21856  1.0000
  H   H64       1.0  0.08713  0.59363  0.17403  1.0000
  H   H65       1.0  0.11207  0.57170  0.18593  1.0000
  H   H66       1.0  0.12163  0.58442  0.22979  1.0000
  H   H67       1.0  0.17646  0.64509  0.97295  1.0000
  C   C68       1.0  0.13191  0.55818  0.72103  1.0000
  C   C69       1.0  0.12856  0.56836  0.73079  1.0000
  C   C70       1.0  0.13355  0.57395  0.76025  1.0000
  C   C71       1.0  0.14209  0.56958  0.77906  1.0000
  C   C72       1.0  0.14473  0.55884  0.77208  1.0000
  C   C73       1.0  0.13969  0.55318  0.74282  1.0000
  H   H68       1.0  0.12230  0.57209  0.71497  1.0000
  H   H69       1.0  0.13078  0.58166  0.76837  1.0000
  H   H70       1.0  0.15123  0.55536  0.78702  1.0000
  H   H71       1.0  0.14250  0.54545  0.73503  1.0000
  C   C74       1.0  0.12130  0.54488  0.28174  1.0000
  C   C75       1.0  0.12324  0.55756  0.27384  1.0000
  C   C76       1.0  0.12743  0.56335  0.30433  1.0000
  C   C77       1.0  0.13008  0.55656  0.34201  1.0000
  C   C78       1.0  0.12780  0.54379  0.35075  1.0000
  C   C79       1.0  0.12327  0.53793  0.32091  1.0000
  H   H72       1.0  0.12143  0.56288  0.24426  1.0000
  H   H73       1.0  0.12846  0.57302  0.29872  1.0000
  H   H74       1.0  0.12959  0.53842  0.38037  1.0000
  H   H75       1.0  0.12122  0.52804  0.32857  1.0000
  H   H76       1.0  0.17443  0.63837  0.45103  1.0000
  H   H77       1.0  0.13001  0.59213  0.99668  1.0000
  C   C80       1.0  0.15041  0.54552  0.07999  1.0000
  C   C81       1.0  0.19234  0.58033  0.10891  1.0000
  H   H78       1.0  0.16419  0.59254  0.68077  1.0000
  C   C82       1.0  0.05693  0.51410  0.11858  1.0000
  C   C83       1.0  0.20953  0.65830  0.84865  1.0000
  C   C84       1.0  0.20465  0.64606  0.87592  1.0000
  C   C85       1.0  0.19636  0.63761  0.86328  1.0000
  C   C86       1.0  0.19278  0.64120  0.82323  1.0000
  C   C87       1.0  0.19758  0.65346  0.79620  1.0000
  C   C88       1.0  0.20590  0.66191  0.80875  1.0000
  H   H79       1.0  0.20727  0.64310  0.90676  1.0000
  H   H80       1.0  0.19265  0.62822  0.88490  1.0000
  H   H81       1.0  0.19498  0.65643  0.76531  1.0000
  H   H82       1.0  0.20958  0.67132  0.78726  1.0000
  C   C89       1.0  0.18325  0.62933  0.20298  1.0000
  C   C90       1.0  0.19517  0.63160  0.17587  1.0000
  C   C91       1.0  0.20040  0.64209  0.13796  1.0000
  C   C92       1.0  0.19382  0.65054  0.12745  1.0000
  C   C93       1.0  0.18188  0.64827  0.15449  1.0000
  C   C94       1.0  0.17656  0.63763  0.19197  1.0000
  H   H83       1.0  0.20045  0.62528  0.18452  1.0000
  H   H84       1.0  0.20963  0.64382  0.11753  1.0000
  H   H85       1.0  0.17674  0.65478  0.14650  1.0000
  H   H86       1.0  0.16737  0.63598  0.21265  1.0000
  C   C95       1.0  0.16120  0.63786  0.36507  1.0000
  H   H87       1.0  0.19965  0.58226  0.03742  1.0000
  C   C96       1.0  0.04613  0.57886  0.99294  1.0000
  H   H88       1.0  0.16923  0.55147  0.67736  1.0000
  H   H89       1.0  0.16976  0.63600  0.29976  1.0000
  C   C97       1.0  0.17158  0.52904  0.76458  1.0000
  C   C98       1.0  0.18324  0.52905  0.76943  1.0000
  C   C99       1.0  0.18803  0.53482  0.79952  1.0000
  C   C100      1.0  0.18122  0.54069  0.82554  1.0000
  C   C101      1.0  0.16961  0.54081  0.82028  1.0000
  C   C102      1.0  0.16483  0.53505  0.79013  1.0000
  H   H90       1.0  0.06397  0.52207  0.11687  1.0000
  H   H91       1.0  0.19695  0.53460  0.80291  1.0000
  H   H92       1.0  0.16418  0.54527  0.84009  1.0000
  H   H93       1.0  0.15583  0.53510  0.78724  1.0000
  H   H94       1.0  0.16663  0.55435  0.02432  1.0000
  H   H95       1.0  0.18647  0.52689  0.05867  1.0000
  C   C103      1.0  0.17946  0.52688  0.08763  1.0000
  C   C104      1.0  0.17928  0.53784  0.09907  1.0000
  C   C105      1.0  0.17026  0.53764  0.13722  1.0000
  Fe  Fe30      1.0  0.14829  0.51946  0.70447  1.0000
  C   C106      1.0  0.16539  0.58359  0.67969  1.0000
  H   H96       1.0  0.00907  0.55185  0.03008  1.0000
  H   H97       1.0  0.17007  0.54606  0.14643  1.0000
  H   H98       1.0  0.18947  0.57032  0.11845  1.0000
  C   C107      1.0  0.22396  0.60727  0.92552  1.0000
  C   C108      1.0  0.22422  0.61976  0.91466  1.0000
  C   C109      1.0  0.22813  0.62715  0.94148  1.0000
  C   C110      1.0  0.23194  0.62212  0.97907  1.0000
  C   C111      1.0  0.23178  0.60966  0.98975  1.0000
  C   C112      1.0  0.22772  0.60224  0.96325  1.0000
  H   H99       1.0  0.22142  0.62380  0.88537  1.0000
  H   H100      1.0  0.22833  0.63678  0.93264  1.0000
  H   H101      1.0  0.23470  0.60572  0.01884  1.0000
  N   N6        1.0  0.08889  0.51514  0.86317  1.0000
  C   C113      1.0  0.19168  0.63520  0.30812  1.0000
  C   C114      1.0  0.20175  0.59993  0.05153  1.0000
  H   H102      1.0  0.20066  0.63975  0.31132  1.0000
  H   H103      1.0  0.15730  0.56128  0.63121  1.0000
  H   H104      1.0  0.19147  0.63946  0.27276  1.0000
  H   H105      1.0  0.19086  0.62525  0.31231  1.0000
  N   N7        1.0  0.16000  0.57740  0.65380  1.0000
  H   H106      1.0  0.19425  0.67789  0.86185  1.0000
  H   H107      1.0  0.15426  0.52669  0.19181  1.0000
  H   H108      1.0  0.14537  0.57598  0.62334  1.0000
  C   C115      1.0  0.02091  0.53097  0.00671  1.0000
  H   H109      1.0  0.09417  0.51302  0.79622  1.0000
  H   H110      1.0  0.12849  0.60768  0.93015  1.0000
  H   H111      1.0  0.05830  0.58194  0.92650  1.0000
  C   C116      1.0  0.09106  0.52227  0.89143  1.0000
  C   C117      1.0  0.14043  0.51810  0.45880  1.0000
  C   C118      1.0  0.09989  0.53365  0.87474  1.0000
  C   C119      1.0  0.10452  0.53020  0.80044  1.0000
  C   C120      1.0  0.10664  0.53764  0.82886  1.0000
  H   H112      1.0  0.04809  0.52468  0.07783  1.0000
  H   H113      1.0  0.04288  0.56891  0.90110  1.0000
  S   S61       1.0  0.14384  0.52001  0.54209  1.0000
  H   H114      1.0  0.10147  0.53930  0.89740  1.0000
  H   H115      1.0  0.10974  0.53320  0.76473  1.0000
  H   H116      1.0  0.11354  0.54644  0.81539  1.0000
  C   C121      1.0  0.16128  0.52666  0.16303  1.0000
  C   C122      1.0  0.04920  0.57744  0.94917  1.0000
  H   H117      1.0  0.24886  0.56699  0.98224  1.0000
  N   N8        1.0  0.09510  0.56403  0.32828  1.0000
  C   C123      1.0  0.09713  0.55306  0.34702  1.0000
  C   C124      1.0  0.08976  0.56521  0.29345  1.0000
  C   C125      1.0  0.09384  0.54293  0.33063  1.0000
  C   C126      1.0  0.08660  0.55535  0.27557  1.0000
  C   C127      1.0  0.08877  0.54419  0.29408  1.0000
  C   C128      1.0  0.09967  0.57484  0.34288  1.0000
  H   H118      1.0  0.10183  0.55225  0.37331  1.0000
  H   H119      1.0  0.08834  0.57396  0.27801  1.0000
  H   H120      1.0  0.09597  0.53441  0.34407  1.0000
  H   H121      1.0  0.08295  0.55653  0.24636  1.0000
  H   H122      1.0  0.08696  0.53666  0.27906  1.0000
  H   H123      1.0  0.10942  0.57913  0.32417  1.0000
  H   H124      1.0  0.09477  0.58194  0.33529  1.0000
  H   H125      1.0  0.09871  0.57229  0.38015  1.0000
  N   N9        1.0  0.13373  0.55790  0.51507  1.0000
  C   C129      1.0  0.13906  0.56914  0.48335  1.0000
  C   C130      1.0  0.12732  0.55712  0.55833  1.0000
  C   C131      1.0  0.13764  0.57993  0.49394  1.0000
  C   C132      1.0  0.12574  0.56776  0.57009  1.0000
  C   C133      1.0  0.13088  0.57922  0.53750  1.0000
  C   C134      1.0  0.13532  0.54676  0.50271  1.0000
  H   H126      1.0  0.14440  0.56980  0.44945  1.0000
  H   H127      1.0  0.12336  0.54826  0.58407  1.0000
  H   H128      1.0  0.14168  0.58879  0.46837  1.0000
  H   H129      1.0  0.12055  0.56709  0.60429  1.0000
  H   H130      1.0  0.12964  0.58756  0.54586  1.0000
  H   H131      1.0  0.12877  0.53825  0.52750  1.0000
  H   H132      1.0  0.13386  0.54702  0.46856  1.0000
  N   N10       1.0  0.19768  0.60094  0.82393  1.0000
  C   C135      1.0  0.20276  0.59181  0.81541  1.0000
  C   C136      1.0  0.18534  0.59873  0.83730  1.0000
  C   C137      1.0  0.19541  0.58021  0.81919  1.0000
  C   C138      1.0  0.17773  0.58724  0.84156  1.0000
  C   C139      1.0  0.18281  0.57794  0.83221  1.0000
  C   C140      1.0  0.20538  0.61314  0.81948  1.0000
  H   H133      1.0  0.21253  0.59342  0.80625  1.0000
  H   H134      1.0  0.18129  0.60586  0.84495  1.0000
  H   H135      1.0  0.19946  0.57297  0.81270  1.0000
  H   H136      1.0  0.16795  0.58556  0.85211  1.0000
  H   H137      1.0  0.17699  0.56896  0.83559  1.0000
  H   H138      1.0  0.21519  0.61391  0.80675  1.0000
  H   H139      1.0  0.20319  0.62039  0.79534  1.0000
  H   H140      1.0  0.20391  0.61493  0.85336  1.0000
  C   C141      1.0  0.18301  0.63709  0.38419  1.0000
  H   H141      1.0  0.13866  0.51650  0.39262  1.0000
  H   H142      1.0  0.17854  0.56233  0.72641  1.0000
  C   C142      1.0  0.19458  0.67234  0.97155  1.0000
  H   H143      1.0  0.18089  0.65658  0.89107  1.0000
  H   H144      1.0  0.20601  0.69564  0.93536  1.0000
  C   C143      1.0  0.19195  0.67312  0.89799  1.0000
  H   H145      1.0  0.05283  0.58449  0.00421  1.0000
  H   H146      1.0  0.20212  0.69696  0.88243  1.0000
  N   N11       1.0  0.10359  0.60721  0.00985  1.0000
  C   C144      1.0  0.10449  0.59888  0.04679  1.0000
  C   C145      1.0  0.11226  0.61061  0.96874  1.0000
  C   C146      1.0  0.11404  0.59339  0.04272  1.0000
  C   C147      1.0  0.12187  0.60522  0.96330  1.0000
  C   C148      1.0  0.12271  0.59651  0.00055  1.0000
  C   C149      1.0  0.09342  0.61270  0.01508  1.0000
  H   H147      1.0  0.09768  0.59624  0.07953  1.0000
  H   H148      1.0  0.11165  0.61730  0.93944  1.0000
  H   H149      1.0  0.11451  0.58657  0.07200  1.0000
  C   C150      1.0  0.18205  0.65456  0.96012  1.0000
  H   H150      1.0  0.09243  0.61735  0.98138  1.0000
  H   H151      1.0  0.14465  0.54602  0.50144  1.0000
  H   H152      1.0  0.21442  0.69053  0.89125  1.0000
  C   C151      1.0  0.19804  0.58705  0.06334  1.0000
  C   C152      1.0  0.17347  0.63814  0.41747  1.0000
  C   C153      1.0  0.17218  0.57831  0.70602  1.0000
  H   H153      1.0  0.19864  0.67660  0.99413  1.0000
  C   C154      1.0  0.16252  0.63857  0.40767  1.0000
  H   H154      1.0  0.21223  0.62210  0.08546  1.0000
  C   C155      1.0  0.16161  0.56617  0.65168  1.0000
  S   S62       1.0  0.03543  0.54578  0.09770  1.0000
  H   H155      1.0  0.09475  0.61953  0.03461  1.0000
  H   H156      1.0  0.19709  0.62338  0.08632  1.0000
  C   C156      1.0  0.05945  0.52326  0.96466  1.0000
  C   C157      1.0  0.17017  0.53578  0.99179  1.0000
  H   H157      1.0  0.14849  0.58916  0.64383  1.0000
  H   H158      1.0  0.15879  0.58875  0.59260  1.0000
  N   N12       1.0  0.19687  0.67864  0.92658  1.0000
  C   C158      1.0  0.04799  0.51549  0.09622  1.0000
  C   C159      1.0  0.02926  0.53714  0.02629  1.0000
  C   C160      1.0  0.20436  0.61941  0.07201  1.0000
  H   H159      1.0  0.15013  0.55381  0.09023  1.0000
  H   H160      1.0  0.15241  0.51586  0.04632  1.0000
  H   H161      1.0  0.20750  0.62365  0.03437  1.0000
  C   C161      1.0  0.16836  0.56061  0.67755  1.0000
  H   H162      1.0  0.15259  0.63791  0.35779  1.0000
  C   C162      1.0  0.18711  0.66024  0.98905  1.0000
  C   C163      1.0  0.13613  0.51309  0.50669  1.0000
  N   N13       1.0  0.16031  0.53522  0.03082  1.0000
  N   N14       1.0  0.19994  0.60595  0.08429  1.0000
  H   H163      1.0  0.19287  0.60423  0.15505  1.0000
  C   C164      1.0  0.20524  0.69107  0.90808  1.0000
  H   H164      1.0  0.05408  0.52650  0.94301  1.0000
  Fe  Fe31      1.0  0.13867  0.51846  0.61902  1.0000
  H   H165      1.0  0.02392  0.53093  0.97151  1.0000
  C   C165      1.0  0.19432  0.59945  0.12907  1.0000
  H   H166      1.0  0.19143  0.63659  0.39232  1.0000
  C   C166      1.0  0.16134  0.51573  0.15130  1.0000
  C   C167      1.0  0.02889  0.56444  0.96480  1.0000
  H   H167      1.0  0.24254  0.59260  0.89158  1.0000
  C   C168      1.0  0.02558  0.53738  0.07175  1.0000
  H   H168      1.0  0.20614  0.60507  0.01601  1.0000
  C   C169      1.0  0.07359  0.51496  0.01952  1.0000
  H   H169      1.0  0.13471  0.53401  0.13478  1.0000
  C   C170      1.0  0.19039  0.58655  0.14203  1.0000
  H   H170      1.0  0.16883  0.54074  0.95929  1.0000
  C   C171      1.0  0.14242  0.52371  0.09240  1.0000
  H   H171      1.0  0.02220  0.55878  0.95355  1.0000
  H   H172      1.0  0.08595  0.51919  0.92713  1.0000
  Fe  Fe32      1.0  0.11777  0.51873  0.25932  1.0000
  S   S63       1.0  0.24508  0.55283  0.91648  1.0000
  H   H173      1.0  0.01039  0.53124  0.13235  1.0000
  C   C172      1.0  0.17055  0.51585  0.11385  1.0000
  C   C173      1.0  0.04055  0.57014  0.93498  1.0000
  H   H174      1.0  0.14798  0.52632  0.44420  1.0000
  H   H175      1.0  0.17471  0.52082  0.62367  1.0000
  H   H176      1.0  0.17079  0.52647  0.98985  1.0000
  H   H177      1.0  0.18860  0.52447  0.75002  1.0000
  H   H178      1.0  0.07895  0.51172  0.04119  1.0000
  C   C174      1.0  0.14175  0.53440  0.10500  1.0000
  H   H179      1.0  0.16645  0.51719  0.55993  1.0000
  C   C175      1.0  0.03445  0.57290  0.02210  1.0000
  C   C176      1.0  0.01360  0.56024  0.03798  1.0000
  H   H180      1.0  0.03450  0.51425  0.03893  1.0000
  N   N15       1.0  0.02600  0.56581  0.00784  1.0000
  C   C177      1.0  0.15179  0.52429  0.05492  1.0000
  H   H181      1.0  0.25317  0.57944  0.85485  1.0000
  C   C178      1.0  0.13515  0.51252  0.42928  1.0000
  H   H182      1.0  0.25531  0.70548  0.04287  1.0000
  H   H183      1.0  0.13601  0.51493  0.11257  1.0000
  H   H184      1.0  0.01366  0.55729  0.07431  1.0000
  C   C179      1.0  0.00873  0.52484  0.03206  1.0000
  H   H185      1.0  0.00817  0.56696  0.03412  1.0000
  H   H186      1.0  0.25362  0.60720  0.92572  1.0000
  C   C180      1.0  0.25198  0.59330  0.89013  1.0000
  Fe  Fe33      1.0  0.49931  0.03761  0.94480  1.0000
  C   C181      1.0  0.49694  0.06998  0.17484  1.0000
  Fe  Fe34      1.0  0.48954  0.03740  0.04435  1.0000
  S   S64       1.0  0.48027  0.03423  0.98933  1.0000
  C   C182      1.0  0.49912  0.06756  0.74150  1.0000
  H   H187      1.0  0.49538  0.08538  0.83458  1.0000
  H   H188      1.0  0.49269  0.07447  0.19803  1.0000
  H   H189      1.0  0.49364  0.06441  0.88210  1.0000
  H   H190      1.0  0.49522  0.04602  0.24699  1.0000
  S   S65       1.0  0.48586  0.04964  0.09213  1.0000
  C   C183      1.0  0.48804  0.02604  0.18663  1.0000
  C   C184      1.0  0.49526  0.05789  0.11988  1.0000
  S   S66       1.0  0.48767  0.01707  0.07028  1.0000
  H   H191      1.0  0.47936  0.03883  0.21098  1.0000
  C   C185      1.0  0.50191  0.06954  0.85538  1.0000
  H   H192      1.0  0.48124  0.06534  0.15009  1.0000
  H   H193      1.0  0.49102  0.07040  0.75255  1.0000
  C   C186      1.0  0.48686  0.03473  0.21046  1.0000
  H   H194      1.0  0.48143  0.02335  0.16875  1.0000
  C   C187      1.0  0.50008  0.05635  0.76664  1.0000
  C   C188      1.0  0.49038  0.06464  0.14785  1.0000
  H   H195      1.0  0.49292  0.05070  0.79718  1.0000
  S   S67       1.0  0.49877  0.01749  0.96372  1.0000
  C   C189      1.0  0.50289  0.08139  0.82818  1.0000
  C   C190      1.0  0.49587  0.03875  0.23075  1.0000
  H   H196      1.0  0.50464  0.12141  0.34132  1.0000
  C   C191      1.0  0.49798  0.02118  0.18456  1.0000
  H   H197      1.0  0.50042  0.09001  0.69826  1.0000
  Fe  Fe35      1.0  0.48030  0.01406  0.01114  1.0000
  H   H198      1.0  0.49911  0.01459  0.16536  1.0000
  H   H199      1.0  0.50449  0.08525  0.64700  1.0000
  N   N16       1.0  0.50566  0.03406  0.22806  1.0000
  C   C192      1.0  0.44340  0.49697  0.07988  1.0000
  H   H200      1.0  0.39127  0.50553  0.52594  1.0000
  H   H201      1.0  0.44978  0.49550  0.05223  1.0000
  H   H202      1.0  0.42821  0.48306  0.07818  1.0000
  H   H203      1.0  0.47208  0.49809  0.97603  1.0000
  C   C193      1.0  0.40596  0.50637  0.06933  1.0000
  C   C194      1.0  0.41640  0.50662  0.03658  1.0000
  C   C195      1.0  0.48063  0.42641  0.83428  1.0000
  N   N17       1.0  0.43906  0.50821  0.13438  1.0000
  N   N18       1.0  0.46943  0.43027  0.84225  1.0000
  Fe  Fe36      1.0  0.43205  0.49616  0.95058  1.0000
  C   C196      1.0  0.40175  0.50272  0.86391  1.0000
  S   S68       1.0  0.41572  0.49520  0.00719  1.0000
  Fe  Fe37      1.0  0.44795  0.48449  0.89149  1.0000
  S   S69       1.0  0.45909  0.50293  0.84271  1.0000
  S   S70       1.0  0.45316  0.46789  0.87390  1.0000
  Fe  Fe38      1.0  0.45889  0.50845  0.90657  1.0000
  Fe  Fe39      1.0  0.49988  0.42739  0.91718  1.0000
  Fe  Fe40      1.0  0.44145  0.50780  0.84710  1.0000
  H   H204      1.0  0.39750  0.49956  0.07479  1.0000
  S   S71       1.0  0.44873  0.48990  0.95582  1.0000
  S   S72       1.0  0.43004  0.48893  0.89062  1.0000
  C   C197      1.0  0.42715  0.50143  0.14884  1.0000
  H   H205      1.0  0.47946  0.41721  0.85776  1.0000
  S   S73       1.0  0.48119  0.43011  0.94266  1.0000
  C   C198      1.0  0.47466  0.50537  0.99126  1.0000
  H   H206      1.0  0.50424  0.38287  0.76340  1.0000
  H   H207      1.0  0.45785  0.45286  0.79593  1.0000
  C   C199      1.0  0.42312  0.49214  0.12944  1.0000
  H   H208      1.0  0.39399  0.50663  0.80764  1.0000
  C   C200      1.0  0.44884  0.43861  0.85915  1.0000
  H   H209      1.0  0.39880  0.50763  0.59312  1.0000
  C   C201      1.0  0.46859  0.44027  0.81133  1.0000
  H   H210      1.0  0.44272  0.42411  0.92257  1.0000
  H   H211      1.0  0.46115  0.41692  0.90735  1.0000
  H   H212      1.0  0.40947  0.50158  0.92041  1.0000
  H   H213      1.0  0.48795  0.43309  0.84048  1.0000
  C   C202      1.0  0.46282  0.46038  0.89896  1.0000
  C   C203      1.0  0.47437  0.46100  0.87210  1.0000
  C   C204      1.0  0.48069  0.45243  0.88661  1.0000
  C   C205      1.0  0.47535  0.44295  0.92762  1.0000
  C   C206      1.0  0.46408  0.44271  0.95528  1.0000
  C   C207      1.0  0.45789  0.45136  0.94118  1.0000
  H   H214      1.0  0.47817  0.46775  0.83894  1.0000
  H   H215      1.0  0.48937  0.45278  0.86493  1.0000
  H   H216      1.0  0.45983  0.43542  0.98694  1.0000
  H   H217      1.0  0.44888  0.45052  0.96168  1.0000
  H   H218      1.0  0.41361  0.48703  0.13990  1.0000
  S   S74       1.0  0.48079  0.50851  0.11064  1.0000
  C   C208      1.0  0.44978  0.42845  0.89054  1.0000
  C   C209      1.0  0.45829  0.44457  0.81927  1.0000
  C   C210      1.0  0.41337  0.50503  0.73812  1.0000
  C   C211      1.0  0.42192  0.50705  0.76282  1.0000
  H   H219      1.0  0.47609  0.44523  0.78108  1.0000
  C   C212      1.0  0.50570  0.40080  0.10389  1.0000
  H   H220      1.0  0.40213  0.49362  0.86144  1.0000
  H   H221      1.0  0.40901  0.49573  0.73900  1.0000
  H   H222      1.0  0.42418  0.49935  0.78249  1.0000
  C   C213      1.0  0.44712  0.50615  0.10014  1.0000
  H   H223      1.0  0.44109  0.44228  0.86668  1.0000
  H   H224      1.0  0.42061  0.50348  0.17436  1.0000
  C   C214      1.0  0.47607  0.50251  0.03547  1.0000
  H   H225      1.0  0.48354  0.42590  0.79867  1.0000
  C   C215      1.0  0.46022  0.42441  0.88162  1.0000
  C   C216      1.0  0.43131  0.48992  0.09470  1.0000
  C   C217      1.0  0.39722  0.51003  0.83366  1.0000
  H   H226      1.0  0.47438  0.49299  0.05465  1.0000
  S   S75       1.0  0.50201  0.41013  0.89763  1.0000
  H   H227      1.0  0.50470  0.41912  0.07414  1.0000
  C   C218      1.0  0.40600  0.50732  0.89684  1.0000
  H   H228      1.0  0.49993  0.39646  0.08593  1.0000
  H   H229      1.0  0.50487  0.48845  0.08984  1.0000
  H   H230      1.0  0.40478  0.59982  0.22631  1.0000
  H   H231      1.0  0.47180  0.55127  0.77966  1.0000
  C   C219      1.0  0.27081  0.70447  0.99397  1.0000
  H   H232      1.0  0.43641  0.53002  0.05299  1.0000
  H   H233      1.0  0.50282  0.61130  0.81906  1.0000
  C   C220      1.0  0.49212  0.59466  0.75722  1.0000
  H   H234      1.0  0.39702  0.54734  0.34559  1.0000
  C   C221      1.0  0.48625  0.57946  0.24643  1.0000
  C   C222      1.0  0.37452  0.55878  0.78830  1.0000
  S   S76       1.0  0.37843  0.52667  0.34265  1.0000
  S   S77       1.0  0.42739  0.73201  0.16453  1.0000
  H   H235      1.0  0.45750  0.63334  0.21665  1.0000
  C   C223      1.0  0.29438  0.53294  0.01635  1.0000
  H   H236      1.0  0.46765  0.56904  0.35507  1.0000
  H   H237      1.0  0.27823  0.67946  0.02094  1.0000
  Fe  Fe41      1.0  0.31226  0.57421  0.96416  1.0000
  S   S78       1.0  0.32670  0.58982  0.90966  1.0000
  S   S79       1.0  0.29187  0.57361  0.98123  1.0000
  Fe  Fe42      1.0  0.33171  0.56286  0.99340  1.0000
  S   S80       1.0  0.34718  0.57726  0.94018  1.0000
  S   S81       1.0  0.33608  0.54738  0.03960  1.0000
  Fe  Fe43      1.0  0.33747  0.59065  0.96117  1.0000
  S   S82       1.0  0.34905  0.60912  0.96241  1.0000
  Fe  Fe44      1.0  0.33536  0.57516  0.89350  1.0000
  S   S83       1.0  0.34433  0.57674  0.81958  1.0000
  S   S84       1.0  0.32240  0.57623  0.01740  1.0000
  S   S85       1.0  0.32045  0.55949  0.94517  1.0000
  Fe  Fe45      1.0  0.41899  0.64973  0.05412  1.0000
  S   S86       1.0  0.40777  0.63187  0.10461  1.0000
  S   S87       1.0  0.43236  0.65033  0.98855  1.0000
  Fe  Fe46      1.0  0.40668  0.66494  0.10818  1.0000
  S   S88       1.0  0.39427  0.64760  0.16226  1.0000
  S   S89       1.0  0.40476  0.68467  0.10405  1.0000
  Fe  Fe47      1.0  0.41112  0.64102  0.15841  1.0000
  S   S90       1.0  0.41346  0.62710  0.21802  1.0000
  Fe  Fe48      1.0  0.39185  0.63953  0.10435  1.0000
  S   S91       1.0  0.37470  0.62471  0.10964  1.0000
  S   S92       1.0  0.42368  0.65863  0.10750  1.0000
  S   S93       1.0  0.40292  0.65716  0.05053  1.0000
  Fe  Fe49      1.0  0.45194  0.61193  0.38046  1.0000
  S   S94       1.0  0.45153  0.59764  0.34327  1.0000
  S   S95       1.0  0.44958  0.63005  0.34249  1.0000
  Fe  Fe50      1.0  0.45764  0.59602  0.46130  1.0000
  S   S96       1.0  0.45779  0.58059  0.42836  1.0000
  S   S97       1.0  0.46003  0.58985  0.53280  1.0000
  Fe  Fe51      1.0  0.46814  0.59511  0.36277  1.0000
  Fe  Fe52      1.0  0.44125  0.58432  0.41123  1.0000
  S   S98       1.0  0.42619  0.56837  0.41473  1.0000
  S   S99       1.0  0.46956  0.61047  0.39613  1.0000
  S   S100      1.0  0.44009  0.59868  0.44808  1.0000
  Fe  Fe53      1.0  0.38561  0.55242  0.17788  1.0000
  S   S101      1.0  0.40562  0.55767  0.14420  1.0000
  C   C224      1.0  0.48005  0.57981  0.28970  1.0000
  H   H238      1.0  0.36984  0.61470  0.21782  1.0000
  N   N19       1.0  0.39587  0.60978  0.00934  1.0000
  Fe  Fe54      1.0  0.40786  0.55994  0.21090  1.0000
  S   S102      1.0  0.42095  0.57654  0.21481  1.0000
  S   S103      1.0  0.38808  0.55655  0.24264  1.0000
  Fe  Fe55      1.0  0.44301  0.59584  0.87940  1.0000
  S   S104      1.0  0.46205  0.60241  0.83200  1.0000
  S   S105      1.0  0.43434  0.59988  0.94449  1.0000
  Fe  Fe56      1.0  0.43570  0.57482  0.83901  1.0000
  S   S106      1.0  0.45405  0.57926  0.78966  1.0000
  S   S107      1.0  0.42106  0.55845  0.84155  1.0000
  Fe  Fe57      1.0  0.46138  0.58233  0.84793  1.0000
  Fe  Fe58      1.0  0.45319  0.59880  0.77694  1.0000
  S   S108      1.0  0.45806  0.61136  0.70415  1.0000
  S   S109      1.0  0.44308  0.57596  0.89831  1.0000
  S   S110      1.0  0.43421  0.59415  0.82328  1.0000
  S   S111      1.0  0.38314  0.53760  0.71210  1.0000
  S   S112      1.0  0.37660  0.55437  0.62462  1.0000
  Fe  Fe59      1.0  0.39223  0.55481  0.65466  1.0000
  S   S113      1.0  0.40079  0.57182  0.67153  1.0000
  Fe  Fe60      1.0  0.36782  0.53657  0.68036  1.0000
  S   S114      1.0  0.34999  0.53269  0.73409  1.0000
  H   H239      1.0  0.43226  0.54895  0.48112  1.0000
  H   H240      1.0  0.29058  0.59650  0.91844  1.0000
  H   H241      1.0  0.38729  0.58251  0.17354  1.0000
  H   H242      1.0  0.35776  0.55523  0.91326  1.0000
  H   H243      1.0  0.40912  0.60805  0.16654  1.0000
  H   H244      1.0  0.37882  0.55971  0.75282  1.0000
  C   C225      1.0  0.41496  0.56212  0.79556  1.0000
  C   C226      1.0  0.41239  0.55350  0.77179  1.0000
  C   C227      1.0  0.40791  0.55643  0.73399  1.0000
  C   C228      1.0  0.40590  0.56795  0.72001  1.0000
  C   C229      1.0  0.40831  0.57655  0.74410  1.0000
  C   C230      1.0  0.41287  0.57364  0.78181  1.0000
  H   H245      1.0  0.41428  0.54472  0.78166  1.0000
  H   H246      1.0  0.40639  0.54991  0.71479  1.0000
  H   H247      1.0  0.40685  0.58553  0.73319  1.0000
  H   H248      1.0  0.41462  0.58027  0.80051  1.0000
  C   C231      1.0  0.39833  0.51363  0.52310  1.0000
  H   H249      1.0  0.40579  0.59154  0.18413  1.0000
  C   C232      1.0  0.28890  0.59591  0.88525  1.0000
  H   H250      1.0  0.30614  0.52136  0.02893  1.0000
  C   C233      1.0  0.46019  0.59649  0.57860  1.0000
  C   C234      1.0  0.46036  0.58904  0.62056  1.0000
  C   C235      1.0  0.45969  0.59347  0.65908  1.0000
  C   C236      1.0  0.45910  0.60554  0.65596  1.0000
  C   C237      1.0  0.45940  0.61317  0.61355  1.0000
  C   C238      1.0  0.45979  0.60863  0.57513  1.0000
  H   H251      1.0  0.46078  0.57966  0.62350  1.0000
  H   H252      1.0  0.45962  0.58752  0.69112  1.0000
  H   H253      1.0  0.45907  0.62257  0.61060  1.0000
  H   H254      1.0  0.43011  0.55813  0.16509  1.0000
  C   C239      1.0  0.42459  0.57050  0.35949  1.0000
  C   C240      1.0  0.42245  0.56052  0.34162  1.0000
  C   C241      1.0  0.42128  0.56235  0.29720  1.0000
  C   C242      1.0  0.42240  0.57417  0.27039  1.0000
  C   C243      1.0  0.42451  0.58415  0.28835  1.0000
  C   C244      1.0  0.42553  0.58227  0.33298  1.0000
  H   H255      1.0  0.42171  0.55137  0.36200  1.0000
  H   H256      1.0  0.41967  0.55460  0.28383  1.0000
  H   H257      1.0  0.42510  0.59327  0.26829  1.0000
  H   H258      1.0  0.42672  0.58988  0.34748  1.0000
  C   C245      1.0  0.43399  0.63641  0.97717  1.0000
  C   C246      1.0  0.42878  0.62513  0.01092  1.0000
  C   C247      1.0  0.42931  0.61409  0.00038  1.0000
  C   C248      1.0  0.43512  0.61418  0.95605  1.0000
  C   C249      1.0  0.44069  0.62545  0.92239  1.0000
  C   C250      1.0  0.44015  0.63655  0.93304  1.0000
  H   H259      1.0  0.42432  0.62488  0.04515  1.0000
  H   H260      1.0  0.42504  0.60541  0.02662  1.0000
  H   H261      1.0  0.44520  0.62562  0.88811  1.0000
  H   H262      1.0  0.44427  0.64526  0.90678  1.0000
  C   C251      1.0  0.42338  0.62858  0.25285  1.0000
  C   C252      1.0  0.43175  0.63972  0.24775  1.0000
  C   C253      1.0  0.43962  0.64019  0.27595  1.0000
  C   C254      1.0  0.43930  0.62950  0.30876  1.0000
  C   C255      1.0  0.43091  0.61843  0.31379  1.0000
  C   C256      1.0  0.42296  0.61798  0.28617  1.0000
  H   H263      1.0  0.43213  0.64796  0.22233  1.0000
  H   H264      1.0  0.44603  0.64883  0.27210  1.0000
  H   H265      1.0  0.43044  0.61029  0.33963  1.0000
  H   H266      1.0  0.41645  0.60936  0.29068  1.0000
  C   C257      1.0  0.34507  0.56423  0.79649  1.0000
  C   C258      1.0  0.33929  0.55197  0.82215  1.0000
  C   C259      1.0  0.34061  0.54234  0.80251  1.0000
  C   C260      1.0  0.34795  0.54488  0.75761  1.0000
  C   C261      1.0  0.35367  0.55714  0.73213  1.0000
  C   C262      1.0  0.35209  0.56675  0.75124  1.0000
  H   H267      1.0  0.33381  0.54993  0.85696  1.0000
  H   H268      1.0  0.33608  0.53288  0.82234  1.0000
  H   H269      1.0  0.35918  0.55925  0.69738  1.0000
  H   H270      1.0  0.35646  0.57619  0.73092  1.0000
  C   C263      1.0  0.34717  0.55197  0.06716  1.0000
  C   C264      1.0  0.35137  0.56432  0.06565  1.0000
  C   C265      1.0  0.35999  0.56778  0.08857  1.0000
  C   C266      1.0  0.36460  0.55897  0.11271  1.0000
  C   C267      1.0  0.36046  0.54661  0.11407  1.0000
  C   C268      1.0  0.35171  0.54312  0.09155  1.0000
  H   H271      1.0  0.34792  0.57121  0.04713  1.0000
  H   H272      1.0  0.36306  0.57733  0.08760  1.0000
  H   H273      1.0  0.36392  0.53976  0.13273  1.0000
  H   H274      1.0  0.34848  0.53355  0.09294  1.0000
  C   C269      1.0  0.35655  0.61293  0.00318  1.0000
  C   C270      1.0  0.36509  0.62451  0.99138  1.0000
  C   C271      1.0  0.37087  0.62820  0.02312  1.0000
  C   C272      1.0  0.36805  0.62040  0.06746  1.0000
  C   C273      1.0  0.35958  0.60878  0.07919  1.0000
  C   C274      1.0  0.35397  0.60500  0.04718  1.0000
  H   H275      1.0  0.36713  0.63074  0.95754  1.0000
  H   H276      1.0  0.37726  0.63720  0.01354  1.0000
  H   H277      1.0  0.35729  0.60265  0.11328  1.0000
  H   H278      1.0  0.34741  0.59609  0.05688  1.0000
  C   C275      1.0  0.42040  0.71873  0.14968  1.0000
  C   C276      1.0  0.42387  0.70781  0.16214  1.0000
  C   C277      1.0  0.41910  0.69727  0.14920  1.0000
  C   C278      1.0  0.41070  0.69744  0.12366  1.0000
  C   C279      1.0  0.40708  0.70832  0.11181  1.0000
  C   C280      1.0  0.41191  0.71889  0.12450  1.0000
  H   H279      1.0  0.43042  0.70752  0.18159  1.0000
  H   H280      1.0  0.42199  0.68903  0.15874  1.0000
  H   H281      1.0  0.40065  0.70862  0.09184  1.0000
  H   H282      1.0  0.40920  0.72720  0.11410  1.0000
  H   H283      1.0  0.39102  0.61522  0.21580  1.0000
  C   C281      1.0  0.48519  0.56820  0.23568  1.0000
  H   H284      1.0  0.45974  0.61451  0.54299  1.0000
  H   H285      1.0  0.48777  0.60107  0.84851  1.0000
  N   N20       1.0  0.49296  0.60414  0.77677  1.0000
  N   N21       1.0  0.27610  0.59483  0.88739  1.0000
  C   C282      1.0  0.49030  0.61468  0.75722  1.0000
  C   C283      1.0  0.40312  0.59953  0.19292  1.0000
  C   C284      1.0  0.47159  0.55761  0.31121  1.0000
  C   C285      1.0  0.35921  0.74503  0.11287  1.0000
  C   C286      1.0  0.36639  0.59797  0.19789  1.0000
  H   H286      1.0  0.35716  0.59789  0.19759  1.0000
  H   H287      1.0  0.36596  0.58167  0.17547  1.0000
  H   H288      1.0  0.47178  0.58646  0.92994  1.0000
  C   C287      1.0  0.47250  0.56888  0.32169  1.0000
  H   H289      1.0  0.46571  0.56904  0.07411  1.0000
  S   S115      1.0  0.48254  0.59384  0.30393  1.0000
  C   C288      1.0  0.41182  0.53366  0.47951  1.0000
  H   H290      1.0  0.28303  0.70756  0.13584  1.0000
  C   C289      1.0  0.26778  0.56968  0.98128  1.0000
  C   C290      1.0  0.27897  0.56756  0.96302  1.0000
  C   C291      1.0  0.27953  0.56083  0.93103  1.0000
  C   C292      1.0  0.26906  0.55626  0.91790  1.0000
  C   C293      1.0  0.44734  0.54517  0.93006  1.0000
  H   H291      1.0  0.26716  0.57486  0.00606  1.0000
  H   H292      1.0  0.28803  0.55911  0.91641  1.0000
  H   H293      1.0  0.26965  0.55105  0.89321  1.0000
  N   N22       1.0  0.43093  0.58290  0.62201  1.0000
  C   C294      1.0  0.42943  0.58861  0.58116  1.0000
  C   C295      1.0  0.43127  0.58886  0.65498  1.0000
  C   C296      1.0  0.42826  0.60061  0.57239  1.0000
  C   C297      1.0  0.43003  0.60083  0.64755  1.0000
  C   C298      1.0  0.42855  0.60673  0.60590  1.0000
  C   C299      1.0  0.43206  0.57029  0.63016  1.0000
  H   H294      1.0  0.42932  0.58392  0.55490  1.0000
  H   H295      1.0  0.43262  0.58443  0.68716  1.0000
  H   H296      1.0  0.42726  0.60516  0.53968  1.0000
  H   H297      1.0  0.43055  0.60556  0.67358  1.0000
  H   H298      1.0  0.42780  0.61609  0.59940  1.0000
  H   H299      1.0  0.43956  0.56985  0.60243  1.0000
  H   H300      1.0  0.43410  0.56707  0.66313  1.0000
  H   H301      1.0  0.42341  0.56395  0.63117  1.0000
  C   C300      1.0  0.44221  0.56574  0.07705  1.0000
  H   H302      1.0  0.44886  0.56664  0.04429  1.0000
  H   H303      1.0  0.43419  0.55793  0.08217  1.0000
  H   H304      1.0  0.43930  0.57434  0.07379  1.0000
  N   N23       1.0  0.38287  0.72338  0.21393  1.0000
  C   C301      1.0  0.37988  0.71560  0.18866  1.0000
  C   C302      1.0  0.37496  0.72961  0.22969  1.0000
  C   C303      1.0  0.36866  0.71379  0.17896  1.0000
  C   C304      1.0  0.36359  0.72785  0.22130  1.0000
  C   C305      1.0  0.36048  0.71997  0.19545  1.0000
  C   C306      1.0  0.39493  0.72569  0.22144  1.0000
  H   H305      1.0  0.38623  0.71081  0.17548  1.0000
  H   H306      1.0  0.37753  0.73624  0.24784  1.0000
  H   H307      1.0  0.36642  0.70781  0.15812  1.0000
  H   H308      1.0  0.35746  0.73304  0.23291  1.0000
  H   H309      1.0  0.35191  0.71899  0.18688  1.0000
  H   H310      1.0  0.39828  0.71734  0.22460  1.0000
  H   H311      1.0  0.40148  0.73320  0.19225  1.0000
  H   H312      1.0  0.39486  0.72842  0.25331  1.0000
  N   N24       1.0  0.38878  0.57475  0.41157  1.0000
  C   C307      1.0  0.37772  0.56621  0.43082  1.0000
  C   C308      1.0  0.39399  0.57812  0.36541  1.0000
  C   C309      1.0  0.37168  0.56063  0.40368  1.0000
  C   C310      1.0  0.38827  0.57266  0.33728  1.0000
  C   C311      1.0  0.37706  0.56382  0.35667  1.0000
  C   C312      1.0  0.39566  0.57956  0.44061  1.0000
  H   H313      1.0  0.37380  0.56316  0.46763  1.0000
  H   H314      1.0  0.40277  0.58483  0.35032  1.0000
  H   H315      1.0  0.36321  0.55342  0.41935  1.0000
  H   H316      1.0  0.39272  0.57498  0.30100  1.0000
  H   H317      1.0  0.37274  0.55911  0.33566  1.0000
  H   H318      1.0  0.38975  0.57811  0.47545  1.0000
  H   H319      1.0  0.40271  0.57463  0.44438  1.0000
  H   H320      1.0  0.40018  0.58958  0.42548  1.0000
  H   H321      1.0  0.42941  0.70553  0.02378  1.0000
  C   C313      1.0  0.45700  0.55980  0.18987  1.0000
  C   C314      1.0  0.35532  0.75195  0.14148  1.0000
  H   H322      1.0  0.47821  0.58544  0.00075  1.0000
  C   C315      1.0  0.47665  0.57989  0.94056  1.0000
  C   C316      1.0  0.42755  0.51907  0.76177  1.0000
  C   C317      1.0  0.47979  0.57240  0.91327  1.0000
  H   H323      1.0  0.39050  0.59249  0.06065  1.0000
  S   S116      1.0  0.40820  0.54054  0.23873  1.0000
  C   C318      1.0  0.39366  0.54718  0.41654  1.0000
  C   C319      1.0  0.43982  0.55968  0.15934  1.0000
  Fe  Fe61      1.0  0.33612  0.74692  0.06671  1.0000
  N   N25       1.0  0.44738  0.56356  0.11580  1.0000
  H   H324      1.0  0.46338  0.53516  0.79592  1.0000
  C   C320      1.0  0.40896  0.61426  0.93347  1.0000
  H   H325      1.0  0.40352  0.51788  0.96932  1.0000
  H   H326      1.0  0.48325  0.60731  0.66531  1.0000
  Fe  Fe62      1.0  0.48765  0.54168  0.18977  1.0000
  H   H327      1.0  0.49392  0.58617  0.77327  1.0000
  H   H328      1.0  0.28820  0.70599  0.94927  1.0000
  H   H329      1.0  0.45215  0.51838  0.15930  1.0000
  C   C321      1.0  0.45278  0.59978  0.21164  1.0000
  N   N26       1.0  0.39038  0.59882  0.19517  1.0000
  C   C322      1.0  0.38553  0.60769  0.20779  1.0000
  C   C323      1.0  0.38346  0.58951  0.18391  1.0000
  C   C324      1.0  0.37348  0.60737  0.20956  1.0000
  C   C325      1.0  0.37137  0.58895  0.18508  1.0000
  H   H330      1.0  0.44346  0.71133  0.06903  1.0000
  C   C326      1.0  0.43009  0.73573  0.00796  1.0000
  C   C327      1.0  0.40991  0.52327  0.93532  1.0000
  N   N27       1.0  0.43764  0.73876  0.03378  1.0000
  H   H331      1.0  0.32139  0.74738  0.86427  1.0000
  C   C328      1.0  0.45967  0.56582  0.10850  1.0000
  C   C329      1.0  0.44450  0.55768  0.19699  1.0000
  S   S117      1.0  0.47646  0.57385  0.86024  1.0000
  H   H332      1.0  0.44996  0.75656  0.01470  1.0000
  C   C330      1.0  0.25787  0.55843  0.93601  1.0000
  C   C331      1.0  0.27031  0.60208  0.90782  1.0000
  S   S118      1.0  0.41926  0.53185  0.12979  1.0000
  C   C332      1.0  0.38637  0.54147  0.46168  1.0000
  H   H333      1.0  0.38824  0.74904  0.12025  1.0000
  H   H334      1.0  0.38276  0.58102  0.73491  1.0000
  N   N28       1.0  0.28348  0.68822  0.06939  1.0000
  C   C333      1.0  0.27894  0.69369  0.10115  1.0000
  C   C334      1.0  0.48869  0.59567  0.71674  1.0000
  C   C335      1.0  0.37899  0.58135  0.77035  1.0000
  H   H335      1.0  0.36731  0.57589  0.85805  1.0000
  H   H336      1.0  0.37177  0.58618  0.76978  1.0000
  C   C336      1.0  0.28453  0.72292  0.02546  1.0000
  C   C337      1.0  0.36812  0.56779  0.84710  1.0000
  H   H337      1.0  0.38636  0.58673  0.78075  1.0000
  S   S119      1.0  0.47836  0.53984  0.13543  1.0000
  S   S120      1.0  0.32915  0.74463  0.00682  1.0000
  N   N29       1.0  0.37387  0.56899  0.80266  1.0000
  C   C338      1.0  0.29570  0.69131  0.04906  1.0000
  C   C339      1.0  0.28669  0.70278  0.11236  1.0000
  H   H338      1.0  0.29929  0.68695  0.02396  1.0000
  C   C340      1.0  0.37686  0.53089  0.47025  1.0000
  C   C341      1.0  0.38178  0.53228  0.38831  1.0000
  C   C342      1.0  0.36263  0.55612  0.87838  1.0000
  H   H339      1.0  0.46598  0.54915  0.33664  1.0000
  C   C343      1.0  0.48024  0.57925  0.98084  1.0000
  C   C344      1.0  0.30371  0.70038  0.05942  1.0000
  C   C345      1.0  0.29913  0.70618  0.09108  1.0000
  C   C346      1.0  0.47807  0.55720  0.26850  1.0000
  S   S121      1.0  0.37533  0.56393  0.14112  1.0000
  C   C347      1.0  0.36307  0.54566  0.86383  1.0000
  C   C348      1.0  0.29007  0.54252  0.02731  1.0000
  C   C349      1.0  0.36907  0.54698  0.81855  1.0000
  H   H340      1.0  0.35849  0.53657  0.88728  1.0000
  H   H341      1.0  0.31337  0.70306  0.04243  1.0000
  H   H342      1.0  0.47443  0.56576  0.13928  1.0000
  C   C350      1.0  0.40254  0.51480  0.56070  1.0000
  Fe  Fe63      1.0  0.48881  0.52632  0.12303  1.0000
  H   H343      1.0  0.41390  0.53466  0.69145  1.0000
  H   H344      1.0  0.29139  0.52885  0.99134  1.0000
  H   H345      1.0  0.36906  0.53893  0.80635  1.0000
  C   C351      1.0  0.28353  0.70934  0.97564  1.0000
  H   H346      1.0  0.39938  0.59604  0.97706  1.0000
  S   S122      1.0  0.47746  0.54275  0.25824  1.0000
  C   C352      1.0  0.48684  0.61599  0.71675  1.0000
  C   C353      1.0  0.27528  0.67868  0.05804  1.0000
  H   H347      1.0  0.41345  0.61106  0.90614  1.0000
  Fe  Fe64      1.0  0.40457  0.53779  0.17348  1.0000
  C   C354      1.0  0.29032  0.71839  0.99125  1.0000
  C   C355      1.0  0.40112  0.60581  0.97394  1.0000
  H   H348      1.0  0.37833  0.59785  0.04381  1.0000
  C   C356      1.0  0.37460  0.52633  0.43369  1.0000
  H   H349      1.0  0.37113  0.52636  0.50476  1.0000
  H   H350      1.0  0.30208  0.54338  0.14712  1.0000
  H   H351      1.0  0.42623  0.74252  0.99099  1.0000
  C   C357      1.0  0.38725  0.60076  0.05053  1.0000
  H   H352      1.0  0.41766  0.63350  0.89862  1.0000
  C   C358      1.0  0.41135  0.62684  0.92929  1.0000
  C   C359      1.0  0.30646  0.53424  0.06916  1.0000
  C   C360      1.0  0.46265  0.54464  0.79467  1.0000
  H   H353      1.0  0.45119  0.59019  0.21194  1.0000
  H   H354      1.0  0.45694  0.54691  0.77172  1.0000
  H   H355      1.0  0.38589  0.60470  0.07991  1.0000
  C   C361      1.0  0.39821  0.62211  0.00552  1.0000
  S   S123      1.0  0.26283  0.69245  0.97432  1.0000
  C   C362      1.0  0.40596  0.63082  0.96552  1.0000
  H   H356      1.0  0.44020  0.54599  0.83028  1.0000
  H   H357      1.0  0.39416  0.62531  0.03353  1.0000
  H   H358      1.0  0.30497  0.55865  0.10936  1.0000
  C   C363      1.0  0.25798  0.58602  0.86905  1.0000
  Fe  Fe65      1.0  0.38810  0.53685  0.26723  1.0000
  H   H359      1.0  0.40806  0.64057  0.96316  1.0000
  N   N30       1.0  0.45736  0.54512  0.84097  1.0000
  C   C364      1.0  0.44566  0.54571  0.85416  1.0000
  C   C365      1.0  0.39141  0.54267  0.38014  1.0000
  H   H360      1.0  0.44080  0.75109  0.07361  1.0000
  S   S124      1.0  0.49127  0.57065  0.04520  1.0000
  H   H361      1.0  0.43139  0.54673  0.90872  1.0000
  C   C366      1.0  0.44054  0.54590  0.89872  1.0000
  S   S125      1.0  0.38412  0.53215  0.20410  1.0000
  H   H362      1.0  0.44348  0.54530  0.96467  1.0000
  S   S126      1.0  0.29267  0.73402  0.04850  1.0000
  Fe  Fe66      1.0  0.38472  0.54302  0.58287  1.0000
  C   C367      1.0  0.45918  0.54434  0.91648  1.0000
  H   H363      1.0  0.47343  0.54408  0.86089  1.0000
  C   C368      1.0  0.46412  0.54447  0.87140  1.0000
  C   C369      1.0  0.46466  0.56399  0.14535  1.0000
  S   S127      1.0  0.38936  0.54848  0.50470  1.0000
  S   S128      1.0  0.49625  0.52635  0.18289  1.0000
  C   C370      1.0  0.27181  0.71814  0.04346  1.0000
  C   C371      1.0  0.48057  0.52709  0.98566  1.0000
  H   H364      1.0  0.48229  0.53660  0.96650  1.0000
  H   H365      1.0  0.49436  0.55655  0.97905  1.0000
  H   H366      1.0  0.48785  0.58809  0.70164  1.0000
  H   H367      1.0  0.30516  0.71355  0.09828  1.0000
  H   H368      1.0  0.30006  0.72172  0.97708  1.0000
  H   H369      1.0  0.44842  0.73256  0.07594  1.0000
  H   H370      1.0  0.29160  0.58770  0.87869  1.0000
  H   H371      1.0  0.49207  0.58790  0.22143  1.0000
  C   C372      1.0  0.37915  0.75001  0.12595  1.0000
  C   C373      1.0  0.43986  0.71821  0.05095  1.0000
  H   H372      1.0  0.49055  0.62202  0.77348  1.0000
  H   H373      1.0  0.42929  0.53832  0.73361  1.0000
  C   C374      1.0  0.40648  0.51458  0.09636  1.0000
  H   H374      1.0  0.32952  0.74998  0.90587  1.0000
  S   S129      1.0  0.31814  0.74720  0.10947  1.0000
  C   C375      1.0  0.26504  0.70900  0.02818  1.0000
  C   C376      1.0  0.27015  0.58699  0.86759  1.0000
  H   H375      1.0  0.43845  0.60262  0.18117  1.0000
  H   H376      1.0  0.26711  0.72147  0.06986  1.0000
  C   C377      1.0  0.48610  0.60644  0.69635  1.0000
  C   C378      1.0  0.30671  0.54949  0.11194  1.0000
  S   S130      1.0  0.40136  0.54529  0.60852  1.0000
  C   C379      1.0  0.44735  0.61891  0.19604  1.0000
  C   C380      1.0  0.40146  0.52617  0.86961  1.0000
  N   N31       1.0  0.46352  0.61714  0.23052  1.0000
  C   C381      1.0  0.46179  0.60516  0.22947  1.0000
  Fe  Fe67      1.0  0.31150  0.74637  0.04659  1.0000
  S   S131      1.0  0.47512  0.52153  0.91163  1.0000
  H   H377      1.0  0.44162  0.62434  0.18379  1.0000
  H   H378      1.0  0.46722  0.59962  0.24338  1.0000
  C   C382      1.0  0.47696  0.51768  0.96638  1.0000
  S   S132      1.0  0.41345  0.75740  0.10967  1.0000
  H   H379      1.0  0.46462  0.54373  0.94033  1.0000
  H   H380      1.0  0.47794  0.63205  0.22886  1.0000
  H   H381      1.0  0.41456  0.52627  0.58634  1.0000
  C   C383      1.0  0.42474  0.52900  0.73540  1.0000
  Fe  Fe68      1.0  0.49508  0.55401  0.08749  1.0000
  C   C384      1.0  0.44558  0.60675  0.19454  1.0000
  H   H382      1.0  0.48437  0.62418  0.70192  1.0000
  H   H383      1.0  0.48873  0.55822  0.90624  1.0000
  H   H384      1.0  0.42085  0.72126  0.98425  1.0000
  H   H385      1.0  0.46819  0.62322  0.28497  1.0000
  C   C385      1.0  0.45636  0.62397  0.21455  1.0000
  H   H386      1.0  0.26590  0.67972  0.06478  1.0000
  H   H387      1.0  0.31669  0.55101  0.10560  1.0000
  H   H388      1.0  0.48398  0.53157  0.04523  1.0000
  H   H389      1.0  0.47923  0.61709  0.25489  1.0000
  H   H390      1.0  0.27503  0.66939  0.07820  1.0000
  N   N32       1.0  0.30248  0.54388  0.07866  1.0000
  H   H391      1.0  0.40099  0.55534  0.40964  1.0000
  C   C386      1.0  0.49608  0.60284  0.82016  1.0000
  S   S133      1.0  0.34900  0.73664  0.08985  1.0000
  C   C387      1.0  0.39712  0.52185  0.83630  1.0000
  H   H392      1.0  0.37420  0.73875  0.08298  1.0000
  C   C388      1.0  0.47269  0.62263  0.25070  1.0000
  C   C389      1.0  0.42471  0.54618  0.51312  1.0000
  C   C390      1.0  0.37116  0.74414  0.10496  1.0000
  Fe  Fe69      1.0  0.42440  0.75132  0.15598  1.0000
  Fe  Fe70      1.0  0.39078  0.52786  0.66360  1.0000
  C   C391      1.0  0.29428  0.54796  0.05857  1.0000
  C   C392      1.0  0.41146  0.52543  0.55666  1.0000
  S   S134      1.0  0.37451  0.52496  0.63627  1.0000
  C   C393      1.0  0.42709  0.72377  0.00368  1.0000
  H   H393      1.0  0.29104  0.55559  0.06603  1.0000
  C   C394      1.0  0.48657  0.57078  0.99518  1.0000
  H   H394      1.0  0.27468  0.58116  0.85164  1.0000
  C   C395      1.0  0.30263  0.52873  0.03742  1.0000
  H   H395      1.0  0.31288  0.53092  0.08541  1.0000
  H   H396      1.0  0.43669  0.51740  0.18651  1.0000
  H   H397      1.0  0.43421  0.75642  0.02920  1.0000
  C   C396      1.0  0.42783  0.52358  0.05713  1.0000
  H   H398      1.0  0.42870  0.54529  0.54235  1.0000
  C   C397      1.0  0.41603  0.52696  0.71157  1.0000
  C   C398      1.0  0.48170  0.52423  0.03007  1.0000
  H   H399      1.0  0.40141  0.53542  0.87121  1.0000
  H   H400      1.0  0.42013  0.55367  0.51211  1.0000
  C   C399      1.0  0.41025  0.51498  0.71311  1.0000
  H   H401      1.0  0.41904  0.52202  0.93505  1.0000
  H   H402      1.0  0.30586  0.74479  0.94726  1.0000
  H   H403      1.0  0.29481  0.60423  0.85775  1.0000
  C   C400      1.0  0.44261  0.73022  0.05477  1.0000
  H   H404      1.0  0.49973  0.53410  0.26669  1.0000
  H   H405      1.0  0.43847  0.55456  0.23145  1.0000
  H   H406      1.0  0.49014  0.56803  0.20252  1.0000
  C   C401      1.0  0.41749  0.52304  0.09104  1.0000
  H   H407      1.0  0.41504  0.54123  0.44825  1.0000
  C   C402      1.0  0.43198  0.71496  0.02550  1.0000
  C   C403      1.0  0.48937  0.56301  0.96862  1.0000
  H   H408      1.0  0.27506  0.60837  0.92317  1.0000
  C   C404      1.0  0.25733  0.56521  0.96786  1.0000
  N   N33       1.0  0.41594  0.53471  0.51645  1.0000
  C   C405      1.0  0.44081  0.75132  0.03790  1.0000
  C   C406      1.0  0.48618  0.56399  0.92736  1.0000
  H   H409      1.0  0.46073  0.55819  0.21877  1.0000
  H   H410      1.0  0.28366  0.54587  0.01118  1.0000
  S   S135      1.0  0.43810  0.52221  0.79282  1.0000
  H   H411      1.0  0.49994  0.56981  0.31751  1.0000
  C   C407      1.0  0.32599  0.75445  0.87822  1.0000
  N   N34       1.0  0.40580  0.51891  0.89936  1.0000
  H   H412      1.0  0.41050  0.53319  0.93079  1.0000
  H   H413      1.0  0.36713  0.51825  0.44050  1.0000
  C   C408      1.0  0.40309  0.52304  0.48206  1.0000
  H   H414      1.0  0.34608  0.75264  0.14795  1.0000
  S   S136      1.0  0.44240  0.51504  0.90700  1.0000
  N   N35       1.0  0.31751  0.76099  0.89610  1.0000
  C   C409      1.0  0.30747  0.75457  0.93190  1.0000
  H   H415      1.0  0.39971  0.52236  0.45282  1.0000
  C   C410      1.0  0.47961  0.51196  0.05477  1.0000
  H   H416      1.0  0.26925  0.69137  0.11687  1.0000
  H   H417      1.0  0.39387  0.52768  0.81217  1.0000
  H   H418      1.0  0.50002  0.59497  0.82827  1.0000
  H   H419      1.0  0.49706  0.54791  0.31932  1.0000
  C   C411      1.0  0.37514  0.75658  0.15581  1.0000
  C   C412      1.0  0.42728  0.51547  0.02980  1.0000
  S   S137      1.0  0.50389  0.55652  0.14308  1.0000
  H   H420      1.0  0.44384  0.52723  0.12919  1.0000
  C   C413      1.0  0.25819  0.60144  0.90946  1.0000
  S   S138      1.0  0.50501  0.54027  0.07057  1.0000
  C   C414      1.0  0.44314  0.51830  0.15335  1.0000
  H   H421      1.0  0.43541  0.51571  0.00502  1.0000
  H   H422      1.0  0.39848  0.51402  0.12256  1.0000
  C   C415      1.0  0.50418  0.55494  0.29192  1.0000
  H   H423      1.0  0.29138  0.75541  0.97880  1.0000
  S   S139      1.0  0.41453  0.75722  0.21454  1.0000
  C   C416      1.0  0.36320  0.75755  0.16343  1.0000
  C   C417      1.0  0.29922  0.76055  0.94985  1.0000
  H   H424      1.0  0.33404  0.76083  0.85077  1.0000
  S   S140      1.0  0.39901  0.51226  0.68454  1.0000
  H   H425      1.0  0.45645  0.51176  0.08795  1.0000
  C   C418      1.0  0.49582  0.90730  0.95202  1.0000
  H   H426      1.0  0.47561  0.83270  0.97848  1.0000
  H   H427      1.0  0.48786  0.83848  0.29256  1.0000
  H   H428      1.0  0.36977  0.77319  0.03237  1.0000
  S   S141      1.0  0.34638  0.77406  0.90921  1.0000
  C   C419      1.0  0.40519  0.95116  0.95544  1.0000
  S   S142      1.0  0.32602  0.78357  0.11238  1.0000
  C   C420      1.0  0.48500  0.97636  0.04383  1.0000
  N   N36       1.0  0.44190  0.87105  0.68528  1.0000
  C   C421      1.0  0.39967  0.94162  0.99582  1.0000
  S   S143      1.0  0.43070  0.78551  0.01203  1.0000
  Fe  Fe71      1.0  0.41202  0.91446  0.99493  1.0000
  S   S144      1.0  0.41689  0.92808  0.92483  1.0000
  S   S145      1.0  0.39353  0.91025  0.04463  1.0000
  Fe  Fe72      1.0  0.43684  0.91072  0.97913  1.0000
  S   S146      1.0  0.44330  0.92342  0.90830  1.0000
  S   S147      1.0  0.45012  0.90217  0.00659  1.0000
  Fe  Fe73      1.0  0.43452  0.93617  0.93990  1.0000
  S   S148      1.0  0.44556  0.95665  0.92174  1.0000
  Fe  Fe74      1.0  0.42525  0.91403  0.90014  1.0000
  S   S149      1.0  0.42577  0.90670  0.83697  1.0000
  S   S150      1.0  0.42868  0.92360  0.01134  1.0000
  S   S151      1.0  0.41960  0.90031  0.96971  1.0000
  Fe  Fe75      1.0  0.38663  0.83251  0.26997  1.0000
  S   S152      1.0  0.37240  0.81644  0.32064  1.0000
  S   S153      1.0  0.40560  0.83124  0.26215  1.0000
  Fe  Fe76      1.0  0.36877  0.84624  0.24902  1.0000
  S   S154      1.0  0.35304  0.83094  0.29972  1.0000
  S   S155      1.0  0.36443  0.86359  0.21574  1.0000
  Fe  Fe77      1.0  0.36523  0.83076  0.34687  1.0000
  S   S156      1.0  0.35984  0.82865  0.42428  1.0000
  Fe  Fe78      1.0  0.36192  0.81816  0.26806  1.0000
  S   S157      1.0  0.35476  0.79993  0.25187  1.0000
  S   S158      1.0  0.38009  0.84681  0.29811  1.0000
  S   S159      1.0  0.37697  0.83353  0.21545  1.0000
  Fe  Fe79      1.0  0.36806  0.83777  0.73017  1.0000
  S   S160      1.0  0.37008  0.85680  0.68620  1.0000
  S   S161      1.0  0.35056  0.82709  0.78529  1.0000
  Fe  Fe80      1.0  0.39501  0.84078  0.69713  1.0000
  S   S162      1.0  0.39893  0.85989  0.65160  1.0000
  S   S163      1.0  0.41010  0.83262  0.70848  1.0000
  Fe  Fe81      1.0  0.38643  0.86295  0.71139  1.0000
  S   S164      1.0  0.38783  0.87776  0.75013  1.0000
  Fe  Fe82      1.0  0.38235  0.85172  0.63069  1.0000
  S   S165      1.0  0.38450  0.85600  0.55280  1.0000
  S   S166      1.0  0.38352  0.84413  0.75719  1.0000
  S   S167      1.0  0.37931  0.83232  0.67394  1.0000
  Fe  Fe83      1.0  0.46182  0.83097  0.37465  1.0000
  S   S168      1.0  0.45157  0.84374  0.34844  1.0000
  S   S169      1.0  0.46585  0.81726  0.33420  1.0000
  Fe  Fe84      1.0  0.46271  0.84176  0.45821  1.0000
  S   S170      1.0  0.45199  0.85477  0.43589  1.0000
  S   S171      1.0  0.46607  0.83867  0.52988  1.0000
  Fe  Fe85      1.0  0.44061  0.83883  0.42127  1.0000
  S   S172      1.0  0.42021  0.83398  0.44132  1.0000
  Fe  Fe86      1.0  0.46408  0.85842  0.36482  1.0000
  S   S173      1.0  0.46744  0.87667  0.31231  1.0000
  S   S174      1.0  0.45026  0.82540  0.44768  1.0000
  S   S175      1.0  0.47554  0.84612  0.38673  1.0000
  Fe  Fe87      1.0  0.47143  0.84687  0.84499  1.0000
  S   S176      1.0  0.48598  0.86388  0.79820  1.0000
  S   S177      1.0  0.47555  0.83071  0.88845  1.0000
  Fe  Fe88      1.0  0.45125  0.85817  0.83206  1.0000
  S   S178      1.0  0.46408  0.87599  0.78645  1.0000
  S   S179      1.0  0.43140  0.85673  0.84610  1.0000
  Fe  Fe89      1.0  0.47335  0.86393  0.75195  1.0000
  S   S180      1.0  0.47622  0.86909  0.67366  1.0000
  Fe  Fe90      1.0  0.47531  0.87439  0.83645  1.0000
  H   H429      1.0  0.41650  0.87356  0.86230  1.0000
  S   S181      1.0  0.45989  0.84619  0.79654  1.0000
  S   S182      1.0  0.46143  0.85726  0.88446  1.0000
  C   C422      1.0  0.46842  0.84735  0.56972  1.0000
  C   C423      1.0  0.47054  0.86018  0.55849  1.0000
  C   C424      1.0  0.47287  0.86660  0.59062  1.0000
  C   C425      1.0  0.47294  0.86036  0.63483  1.0000
  C   C426      1.0  0.47046  0.84750  0.64649  1.0000
  C   C427      1.0  0.46831  0.84110  0.61416  1.0000
  H   H430      1.0  0.47073  0.86522  0.52462  1.0000
  H   H431      1.0  0.47478  0.87653  0.58089  1.0000
  H   H432      1.0  0.47050  0.84248  0.68009  1.0000
  H   H433      1.0  0.46674  0.83120  0.62349  1.0000
  C   C428      1.0  0.41616  0.83926  0.74660  1.0000
  C   C429      1.0  0.41375  0.85010  0.75373  1.0000
  C   C430      1.0  0.41825  0.85526  0.78504  1.0000
  C   C431      1.0  0.42551  0.84983  0.80835  1.0000
  C   C432      1.0  0.42821  0.83917  0.80053  1.0000
  C   C433      1.0  0.42349  0.83385  0.76977  1.0000
  H   H434      1.0  0.40858  0.85467  0.73457  1.0000
  H   H435      1.0  0.41629  0.86358  0.79059  1.0000
  H   H436      1.0  0.43369  0.83484  0.81896  1.0000
  H   H437      1.0  0.42543  0.82550  0.76427  1.0000
  C   C434      1.0  0.40875  0.83011  0.31485  1.0000
  C   C435      1.0  0.40040  0.83127  0.35211  1.0000
  C   C436      1.0  0.40361  0.83172  0.39244  1.0000
  C   C437      1.0  0.41506  0.83075  0.39571  1.0000
  C   C438      1.0  0.42278  0.82821  0.36047  1.0000
  C   C439      1.0  0.41981  0.82825  0.31954  1.0000
  H   H438      1.0  0.39164  0.83225  0.34958  1.0000
  H   H439      1.0  0.39739  0.83327  0.42029  1.0000
  H   H440      1.0  0.43104  0.82618  0.36485  1.0000
  H   H441      1.0  0.42608  0.82688  0.29147  1.0000
  C   C440      1.0  0.36744  0.83588  0.45926  1.0000
  C   C441      1.0  0.36276  0.83145  0.50721  1.0000
  C   C442      1.0  0.36799  0.83726  0.53631  1.0000
  C   C443      1.0  0.37789  0.84780  0.51792  1.0000
  C   C444      1.0  0.38258  0.85224  0.46991  1.0000
  C   C445      1.0  0.37751  0.84628  0.44083  1.0000
  H   H442      1.0  0.35496  0.82346  0.52209  1.0000
  H   H443      1.0  0.36418  0.83371  0.57299  1.0000
  H   H444      1.0  0.39014  0.86044  0.45515  1.0000
  H   H445      1.0  0.38121  0.84988  0.40415  1.0000
  C   C446      1.0  0.45221  0.96687  0.95087  1.0000
  C   C447      1.0  0.45082  0.96332  0.99802  1.0000
  C   C448      1.0  0.45521  0.97206  0.02000  1.0000
  H   H446      1.0  0.45668  0.83470  0.02510  1.0000
  H   H447      1.0  0.39525  0.80677  0.24964  1.0000
  H   H448      1.0  0.44620  0.95388  0.01772  1.0000
  H   H449      1.0  0.45374  0.96920  0.05662  1.0000
  C   C449      1.0  0.41496  0.89827  0.81469  1.0000
  C   C450      1.0  0.41913  0.89294  0.78011  1.0000
  C   C451      1.0  0.41100  0.88634  0.76090  1.0000
  C   C452      1.0  0.39854  0.88518  0.77528  1.0000
  C   C453      1.0  0.39438  0.89045  0.81004  1.0000
  C   C454      1.0  0.40246  0.89679  0.82999  1.0000
  H   H450      1.0  0.42874  0.89401  0.76783  1.0000
  H   H451      1.0  0.41441  0.88246  0.73405  1.0000
  H   H452      1.0  0.38481  0.88976  0.82128  1.0000
  H   H453      1.0  0.39906  0.90085  0.85629  1.0000
  C   C455      1.0  0.38627  0.89684  0.09145  1.0000
  C   C456      1.0  0.37467  0.89602  0.11749  1.0000
  C   C457      1.0  0.36829  0.88578  0.15502  1.0000
  C   C458      1.0  0.37335  0.87609  0.16749  1.0000
  C   C459      1.0  0.38505  0.87679  0.14177  1.0000
  C   C460      1.0  0.39152  0.88719  0.10364  1.0000
  H   H454      1.0  0.37051  0.90336  0.10844  1.0000
  H   H455      1.0  0.35929  0.88534  0.17442  1.0000
  H   H456      1.0  0.38905  0.86935  0.15108  1.0000
  H   H457      1.0  0.40049  0.88773  0.08378  1.0000
  H   H458      1.0  0.39157  0.77365  0.01229  1.0000
  H   H459      1.0  0.47752  0.89897  0.95225  1.0000
  C   C461      1.0  0.43711  0.88353  0.87387  1.0000
  C   C462      1.0  0.40462  0.94122  0.03275  1.0000
  C   C463      1.0  0.48166  0.88550  0.27409  1.0000
  C   C464      1.0  0.48203  0.89557  0.23856  1.0000
  C   C465      1.0  0.31961  0.77338  0.87722  1.0000
  H   H460      1.0  0.49228  0.87503  0.30540  1.0000
  H   H461      1.0  0.47372  0.89786  0.23567  1.0000
  C   C466      1.0  0.47304  0.92982  0.05878  1.0000
  C   C467      1.0  0.47320  0.91748  0.06992  1.0000
  C   C468      1.0  0.46626  0.90901  0.05349  1.0000
  C   C469      1.0  0.45902  0.91284  0.02630  1.0000
  C   C470      1.0  0.45876  0.92515  0.01559  1.0000
  C   C471      1.0  0.46558  0.93358  0.03250  1.0000
  H   H462      1.0  0.47840  0.91438  0.09230  1.0000
  H   H463      1.0  0.46640  0.89948  0.06232  1.0000
  H   H464      1.0  0.45349  0.92829  0.99357  1.0000
  H   H465      1.0  0.46532  0.94308  0.02421  1.0000
  C   C472      1.0  0.43379  0.83349  0.55441  1.0000
  C   C473      1.0  0.46006  0.80010  0.28755  1.0000
  C   C474      1.0  0.45679  0.80965  0.30390  1.0000
  C   C475      1.0  0.44662  0.81305  0.29477  1.0000
  C   C476      1.0  0.43987  0.80698  0.26996  1.0000
  H   H466      1.0  0.46791  0.79736  0.29408  1.0000
  H   H467      1.0  0.44404  0.82045  0.30641  1.0000
  H   H468      1.0  0.43210  0.80981  0.26301  1.0000
  C   C477      1.0  0.44300  0.79862  0.98114  1.0000
  C   C478      1.0  0.45433  0.80011  0.98988  1.0000
  C   C479      1.0  0.46428  0.80996  0.96122  1.0000
  C   C480      1.0  0.46287  0.81859  0.92463  1.0000
  C   C481      1.0  0.45144  0.81736  0.91706  1.0000
  C   C482      1.0  0.44161  0.80729  0.94471  1.0000
  H   H469      1.0  0.45553  0.79340  0.01753  1.0000
  H   H470      1.0  0.47311  0.81079  0.96706  1.0000
  H   H471      1.0  0.45025  0.82393  0.88895  1.0000
  H   H472      1.0  0.43291  0.80616  0.93749  1.0000
  C   C483      1.0  0.35005  0.81277  0.82129  1.0000
  C   C484      1.0  0.34111  0.80771  0.86355  1.0000
  C   C485      1.0  0.34031  0.79613  0.89226  1.0000
  C   C486      1.0  0.34821  0.78938  0.87807  1.0000
  C   C487      1.0  0.35725  0.79453  0.83615  1.0000
  C   C488      1.0  0.35829  0.80626  0.80816  1.0000
  H   H473      1.0  0.33475  0.81275  0.87401  1.0000
  H   H474      1.0  0.33336  0.79226  0.92464  1.0000
  H   H475      1.0  0.36339  0.78935  0.82497  1.0000
  H   H476      1.0  0.36523  0.81010  0.77574  1.0000
  C   C489      1.0  0.33456  0.78806  0.14980  1.0000
  C   C490      1.0  0.33914  0.77986  0.17684  1.0000
  C   C491      1.0  0.34509  0.78361  0.20821  1.0000
  C   C492      1.0  0.34692  0.79571  0.21216  1.0000
  C   C493      1.0  0.34260  0.80399  0.18431  1.0000
  C   C494      1.0  0.33636  0.80014  0.15387  1.0000
  H   H477      1.0  0.33775  0.77050  0.17472  1.0000
  H   H478      1.0  0.34828  0.77706  0.22968  1.0000
  H   H479      1.0  0.34387  0.81331  0.18679  1.0000
  H   H480      1.0  0.33282  0.80657  0.13346  1.0000
  N   N37       1.0  0.37031  0.84799  0.85547  1.0000
  C   C495      1.0  0.36459  0.83567  0.86737  1.0000
  C   C496      1.0  0.38223  0.85193  0.85453  1.0000
  C   C497      1.0  0.37083  0.82691  0.87847  1.0000
  C   C498      1.0  0.38872  0.84342  0.86583  1.0000
  C   C499      1.0  0.38299  0.83084  0.87750  1.0000
  C   C500      1.0  0.36386  0.85692  0.83997  1.0000
  H   H481      1.0  0.35524  0.83256  0.86689  1.0000
  H   H482      1.0  0.38689  0.86169  0.84352  1.0000
  H   H483      1.0  0.36632  0.81715  0.88655  1.0000
  H   H484      1.0  0.39824  0.84655  0.86421  1.0000
  H   H485      1.0  0.38803  0.82416  0.88493  1.0000
  H   H486      1.0  0.36826  0.86628  0.84121  1.0000
  H   H487      1.0  0.35431  0.85412  0.86153  1.0000
  N   N38       1.0  0.48110  0.93309  0.89393  1.0000
  C   C501      1.0  0.47533  0.94115  0.90873  1.0000
  C   C502      1.0  0.49259  0.93344  0.89715  1.0000
  C   C503      1.0  0.30137  0.77320  0.93120  1.0000
  S   S183      1.0  0.50301  0.91781  0.06994  1.0000
  H   H488      1.0  0.39170  0.79079  0.25016  1.0000
  N   N39       1.0  0.49507  0.97560  0.06384  1.0000
  H   H489      1.0  0.46622  0.94091  0.90635  1.0000
  C   C504      1.0  0.49308  0.96665  0.10366  1.0000
  C   C505      1.0  0.33531  0.83990  0.38764  1.0000
  H   H490      1.0  0.49139  0.87536  0.12739  1.0000
  S   S184      1.0  0.47897  0.88902  0.87520  1.0000
  H   H491      1.0  0.49730  0.92727  0.88454  1.0000
  N   N40       1.0  0.41218  0.83007  0.57704  1.0000
  C   C506      1.0  0.41137  0.82203  0.61773  1.0000
  C   C507      1.0  0.42180  0.81943  0.62746  1.0000
  C   C508      1.0  0.40128  0.83300  0.56764  1.0000
  H   H492      1.0  0.40269  0.81779  0.64343  1.0000
  H   H493      1.0  0.42113  0.81324  0.66017  1.0000
  H   H494      1.0  0.40018  0.84134  0.57795  1.0000
  H   H495      1.0  0.39298  0.82529  0.58641  1.0000
  C   C509      1.0  0.41990  0.94929  0.06841  1.0000
  C   C510      1.0  0.47462  0.92357  0.87721  1.0000
  C   C511      1.0  0.43168  0.86633  0.63020  1.0000
  H   H496      1.0  0.45428  0.85558  0.02461  1.0000
  C   C512      1.0  0.43791  0.87897  0.96378  1.0000
  H   H497      1.0  0.45621  0.89286  0.85572  1.0000
  H   H498      1.0  0.49445  0.85347  0.88601  1.0000
  H   H499      1.0  0.46797  0.99727  0.92802  1.0000
  H   H500      1.0  0.36633  0.79723  0.13466  1.0000
  C   C513      1.0  0.44808  0.88775  0.88331  1.0000
  H   H501      1.0  0.43807  0.87750  0.99911  1.0000
  H   H502      1.0  0.50094  0.95826  0.15452  1.0000
  C   C514      1.0  0.48098  0.94964  0.92828  1.0000
  H   H503      1.0  0.40801  0.78429  0.27018  1.0000
  H   H504      1.0  0.39185  0.93431  0.99812  1.0000
  H   H505      1.0  0.42634  0.86874  0.60714  1.0000
  H   H506      1.0  0.45681  0.88899  0.93650  1.0000
  H   H507      1.0  0.48748  0.98453  0.01354  1.0000
  H   H508      1.0  0.41008  0.86393  0.91970  1.0000
  C   C515      1.0  0.41516  0.87347  0.89865  1.0000
  S   S185      1.0  0.31716  0.76728  0.01943  1.0000
  C   C516      1.0  0.44844  0.88549  0.92860  1.0000
  Fe  Fe91      1.0  0.33506  0.76537  0.98283  1.0000
  H   H509      1.0  0.42814  0.96669  0.98763  1.0000
  C   C517      1.0  0.44585  0.87935  0.71143  1.0000
  C   C518      1.0  0.31162  0.77968  0.89459  1.0000
  H   H510      1.0  0.49322  0.91026  0.17872  1.0000
  H   H511      1.0  0.41887  0.87009  0.98064  1.0000
  C   C519      1.0  0.46397  0.84290  0.00503  1.0000
  N   N41       1.0  0.41463  0.95022  0.02986  1.0000
  H   H512      1.0  0.41267  0.94650  0.10128  1.0000
  H   H513      1.0  0.45595  0.88238  0.70164  1.0000
  H   H514      1.0  0.40168  0.95134  0.92608  1.0000
  N   N42       1.0  0.42206  0.86322  0.35723  1.0000
  C   C520      1.0  0.43416  0.86586  0.33568  1.0000
  C   C521      1.0  0.41361  0.86073  0.33422  1.0000
  C   C522      1.0  0.43805  0.86557  0.29046  1.0000
  C   C523      1.0  0.41718  0.86034  0.28900  1.0000
  C   C524      1.0  0.42947  0.86265  0.26722  1.0000
  C   C525      1.0  0.41806  0.86346  0.40472  1.0000
  H   H515      1.0  0.44092  0.86807  0.35348  1.0000
  H   H516      1.0  0.40401  0.85861  0.35128  1.0000
  H   H517      1.0  0.44766  0.86750  0.27389  1.0000
  H   H518      1.0  0.41043  0.85787  0.27140  1.0000
  H   H519      1.0  0.43231  0.86209  0.23252  1.0000
  H   H520      1.0  0.40983  0.85570  0.42408  1.0000
  H   H521      1.0  0.42509  0.86223  0.42269  1.0000
  H   H522      1.0  0.41603  0.87232  0.40584  1.0000
  C   C526      1.0  0.42710  0.87485  0.95310  1.0000
  C   C527      1.0  0.41279  0.79180  0.36459  1.0000
  C   C528      1.0  0.40441  0.79862  0.37048  1.0000
  H   H523      1.0  0.36550  0.87411  0.29129  1.0000
  H   H524      1.0  0.43210  0.84909  0.61588  1.0000
  H   H525      1.0  0.44421  0.84368  0.66923  1.0000
  H   H526      1.0  0.42395  0.84267  0.51448  1.0000
  H   H527      1.0  0.44250  0.83805  0.52943  1.0000
  C   C529      1.0  0.36533  0.87084  0.36221  1.0000
  H   H528      1.0  0.40364  0.80307  0.39757  1.0000
  H   H529      1.0  0.45029  0.85778  0.71375  1.0000
  C   C530      1.0  0.35108  0.85820  0.33500  1.0000
  H   H530      1.0  0.42616  0.95824  0.06603  1.0000
  C   C531      1.0  0.42324  0.83599  0.54603  1.0000
  N   N43       1.0  0.37894  0.78855  0.10428  1.0000
  C   C532      1.0  0.37137  0.78311  0.08250  1.0000
  C   C533      1.0  0.39090  0.78863  0.09401  1.0000
  C   C534      1.0  0.37582  0.77772  0.04894  1.0000
  C   C535      1.0  0.39565  0.78341  0.06043  1.0000
  C   C536      1.0  0.38804  0.77792  0.03785  1.0000
  C   C537      1.0  0.37403  0.79360  0.14090  1.0000
  H   H531      1.0  0.36178  0.78265  0.09179  1.0000
  H   H532      1.0  0.39678  0.79255  0.11241  1.0000
  C   C538      1.0  0.48877  0.84664  0.26542  1.0000
  H   H533      1.0  0.40514  0.78347  0.05247  1.0000
  H   H534      1.0  0.48088  0.91919  0.85872  1.0000
  C   C539      1.0  0.42006  0.95966  0.99046  1.0000
  H   H535      1.0  0.49674  0.95585  0.95043  1.0000
  H   H536      1.0  0.32766  0.77853  0.84922  1.0000
  S   S186      1.0  0.43944  0.76939  0.12876  1.0000
  H   H537      1.0  0.36390  0.85753  0.80394  1.0000
  H   H538      1.0  0.40188  0.83474  0.53063  1.0000
  H   H539      1.0  0.43256  0.88261  0.65237  1.0000
  N   N44       1.0  0.48382  0.85208  0.95191  1.0000
  C   C540      1.0  0.47864  0.84851  0.25165  1.0000
  C   C541      1.0  0.43522  0.87413  0.65594  1.0000
  C   C542      1.0  0.43308  0.82514  0.59531  1.0000
  C   C543      1.0  0.45860  0.97918  0.92603  1.0000
  S   S187      1.0  0.41764  0.78305  0.13905  1.0000
  C   C544      1.0  0.44305  0.79732  0.25406  1.0000
  H   H540      1.0  0.43685  0.88550  0.83861  1.0000
  C   C545      1.0  0.49050  0.89646  0.89688  1.0000
  C   C546      1.0  0.48705  0.90067  0.93537  1.0000
  H   H541      1.0  0.46988  0.84173  0.26779  1.0000
  H   H542      1.0  0.40975  0.87996  0.90550  1.0000
  H   H543      1.0  0.33831  0.83141  0.39640  1.0000
  H   H544      1.0  0.44129  0.82326  0.60209  1.0000
  C   C547      1.0  0.49308  0.90264  0.20633  1.0000
  H   H545      1.0  0.38098  0.80138  0.14350  1.0000
  C   C548      1.0  0.46143  0.98444  0.99525  1.0000
  C   C549      1.0  0.49246  0.88269  0.27782  1.0000
  C   C550      1.0  0.47471  0.84181  0.97847  1.0000
  S   S188      1.0  0.48259  0.94075  0.07535  1.0000
  C   C551      1.0  0.41549  0.96023  0.95261  1.0000
  H   H546      1.0  0.47718  0.97718  0.06923  1.0000
  H   H547      1.0  0.49295  0.91062  0.98118  1.0000
  H   H548      1.0  0.44253  0.88768  0.70516  1.0000
  C   C552      1.0  0.49247  0.94967  0.93356  1.0000
  H   H549      1.0  0.40049  0.93352  0.06348  1.0000
  Fe  Fe92      1.0  0.42750  0.77572  0.08648  1.0000
  N   N45       1.0  0.34550  0.85077  0.37866  1.0000
  S   S189      1.0  0.34355  0.76734  0.03905  1.0000
  H   H550      1.0  0.42013  0.96749  0.92095  1.0000
  H   H551      1.0  0.47625  0.95586  0.94063  1.0000
  H   H552      1.0  0.41862  0.79092  0.38698  1.0000
  C   C553      1.0  0.47199  0.86501  0.97774  1.0000
  H   H553      1.0  0.31352  0.78955  0.88017  1.0000
  H   H554      1.0  0.44236  0.87448  0.74859  1.0000
  H   H555      1.0  0.45981  0.98213  0.88958  1.0000
  H   H556      1.0  0.32773  0.83955  0.41667  1.0000
  C   C554      1.0  0.39150  0.79712  0.27204  1.0000
  H   H557      1.0  0.38182  0.79571  0.29016  1.0000
  C   C555      1.0  0.48256  0.86357  0.95127  1.0000
  C   C556      1.0  0.45324  0.79395  0.26306  1.0000
  H   H558      1.0  0.34556  0.84694  0.44854  1.0000
  N   N46       1.0  0.39856  0.79486  0.30480  1.0000
  N   N47       1.0  0.42680  0.87718  0.90860  1.0000
  H   H559      1.0  0.47099  0.87417  0.97642  1.0000
  Fe  Fe93      1.0  0.32542  0.76786  0.07852  1.0000
  H   H560      1.0  0.45589  0.78657  0.25123  1.0000
  H   H561      1.0  0.37081  0.78629  0.17414  1.0000
  H   H562      1.0  0.37314  0.87859  0.35570  1.0000
  Fe  Fe94      1.0  0.42863  0.77578  0.18409  1.0000
  S   S190      1.0  0.43382  0.78967  0.22429  1.0000
  H   H563      1.0  0.42509  0.94231  0.06889  1.0000
  C   C557      1.0  0.46262  0.85459  0.00461  1.0000
  H   H564      1.0  0.29519  0.77799  0.94551  1.0000
  C   C558      1.0  0.41385  0.78637  0.32897  1.0000
  S   S191      1.0  0.46600  0.99527  0.02572  1.0000
  C   C559      1.0  0.46328  0.98784  0.94781  1.0000
  C   C560      1.0  0.36105  0.86835  0.32614  1.0000
  H   H565      1.0  0.36300  0.86485  0.43490  1.0000
  Fe  Fe95      1.0  0.40452  0.76431  0.16552  1.0000
  C   C561      1.0  0.35960  0.86321  0.40660  1.0000
  H   H566      1.0  0.47193  0.86056  0.20687  1.0000
  C   C562      1.0  0.39733  0.80006  0.34009  1.0000
  H   H567      1.0  0.39109  0.80564  0.34419  1.0000
  H   H568      1.0  0.33177  0.83993  0.35747  1.0000
  C   C563      1.0  0.44173  0.85227  0.66492  1.0000
  C   C564      1.0  0.43498  0.85534  0.63482  1.0000
  C   C565      1.0  0.34967  0.85313  0.41420  1.0000
  H   H569      1.0  0.34794  0.85627  0.30654  1.0000
  C   C566      1.0  0.40673  0.78813  0.29887  1.0000
  C   C567      1.0  0.44509  0.86026  0.69018  1.0000
  H   H570      1.0  0.46791  0.91622  0.90668  1.0000
  H   H571      1.0  0.48204  0.96792  0.03333  1.0000
  C   C568      1.0  0.49477  0.85092  0.92208  1.0000
  H   H572      1.0  0.49549  0.84130  0.93046  1.0000
  N   N48       1.0  0.49098  0.86751  0.19611  1.0000
  C   C569      1.0  0.47989  0.85910  0.21698  1.0000
  H   H573      1.0  0.48416  0.96020  0.12004  1.0000
  H   H574      1.0  0.46981  0.92756  0.85329  1.0000
  C   C570      1.0  0.50004  0.85529  0.24418  1.0000
  H   H575      1.0  0.35999  0.76255  0.18667  1.0000
  H   H576      1.0  0.50094  0.88532  0.14972  1.0000
  C   C571      1.0  0.49210  0.87823  0.15841  1.0000
  H   H577      1.0  0.48969  0.87169  0.92954  1.0000
  Fe  Fe96      1.0  0.50049  0.93643  0.07013  1.0000
  H   H578      1.0  0.48489  0.88277  0.16801  1.0000
  C   C572      1.0  0.50101  0.86568  0.20901  1.0000
  H   H579      1.0  0.50305  0.85700  0.92516  1.0000
  C   C573      1.0  0.49838  0.94160  0.91750  1.0000
  C   C574      1.0  0.50356  0.88989  0.24584  1.0000
  H   H580      1.0  0.42050  0.78125  0.32345  1.0000
  S   S192      1.0  0.38451  0.76298  0.18639  1.0000
  C   C575      1.0  0.50254  0.96549  0.12327  1.0000
  C   C576      1.0  0.50388  0.89977  0.20965  1.0000
  C   C577      1.0  0.50289  0.89887  0.87560  1.0000
  Fe  Fe97      1.0  0.68618  0.20021  0.96317  1.0000
  S   S193      1.0  0.66841  0.19756  0.01387  1.0000
  S   S194      1.0  0.68691  0.18639  0.92034  1.0000
  Fe  Fe98      1.0  0.69946  0.22271  0.99244  1.0000
  S   S195      1.0  0.68200  0.22133  0.04288  1.0000
  Fe  Fe99      1.0  0.67926  0.20081  0.06277  1.0000
  S   S196      1.0  0.67166  0.19195  0.13931  1.0000
  Fe  Fe100     1.0  0.67266  0.21807  0.98960  1.0000
  S   S197      1.0  0.65725  0.22630  0.98035  1.0000
  S   S198      1.0  0.69710  0.20206  0.01448  1.0000
  S   S199      1.0  0.69011  0.22089  0.93647  1.0000
  Fe  Fe101     1.0  0.58164  0.21455  0.91164  1.0000
  S   S200      1.0  0.59218  0.20839  0.95987  1.0000
  S   S201      1.0  0.58013  0.23457  0.89464  1.0000
  Fe  Fe102     1.0  0.57644  0.18947  0.88730  1.0000
  S   S202      1.0  0.58701  0.18225  0.93411  1.0000
  S   S203      1.0  0.56871  0.17347  0.85915  1.0000
  Fe  Fe103     1.0  0.57752  0.19039  0.98464  1.0000
  S   S204      1.0  0.57318  0.17930  0.05882  1.0000
  Fe  Fe104     1.0  0.60075  0.20061  0.90599  1.0000
  S   S205      1.0  0.62050  0.20076  0.88604  1.0000
  S   S206      1.0  0.56606  0.19685  0.94037  1.0000
  S   S207      1.0  0.59112  0.20756  0.85522  1.0000
  Fe  Fe105     1.0  0.63729  0.12621  0.30607  1.0000
  S   S208      1.0  0.63657  0.10911  0.35950  1.0000
  S   S209      1.0  0.65342  0.13459  0.24289  1.0000
  Fe  Fe106     1.0  0.61063  0.12333  0.34364  1.0000
  S   S210      1.0  0.60799  0.10607  0.39858  1.0000
  S   S211      1.0  0.59414  0.12994  0.34006  1.0000
  Fe  Fe107     1.0  0.62521  0.11630  0.41034  1.0000
  S   S212      1.0  0.62361  0.11445  0.48718  1.0000
  Fe  Fe108     1.0  0.61945  0.10057  0.34313  1.0000
  S   S213      1.0  0.61599  0.08155  0.33047  1.0000
  S   S214      1.0  0.62709  0.13402  0.35741  1.0000
  S   S215      1.0  0.62088  0.11718  0.28798  1.0000
  Fe  Fe109     1.0  0.64657  0.14987  0.77683  1.0000
  S   S216      1.0  0.63066  0.13569  0.82997  1.0000
  S   S217      1.0  0.65514  0.16787  0.79233  1.0000
  Fe  Fe110     1.0  0.64209  0.13704  0.70026  1.0000
  S   S218      1.0  0.62619  0.12218  0.74956  1.0000
  S   S219      1.0  0.64830  0.13860  0.62331  1.0000
  Fe  Fe111     1.0  0.62108  0.13735  0.77550  1.0000
  S   S220      1.0  0.60179  0.13799  0.79200  1.0000
  Fe  Fe112     1.0  0.63724  0.12174  0.79950  1.0000
  S   S221      1.0  0.63751  0.10337  0.84287  1.0000
  S   S222      1.0  0.63624  0.15243  0.72361  1.0000
  S   S223      1.0  0.65395  0.13570  0.74867  1.0000
  Fe  Fe113     1.0  0.52967  0.11734  0.21367  1.0000
  H   H581      1.0  0.55290  0.04609  0.95469  1.0000
  S   S224      1.0  0.52713  0.13364  0.16504  1.0000
  Fe  Fe114     1.0  0.54839  0.10451  0.23270  1.0000
  S   S225      1.0  0.53487  0.08836  0.28640  1.0000
  S   S226      1.0  0.56830  0.10624  0.21122  1.0000
  Fe  Fe115     1.0  0.52323  0.08919  0.23716  1.0000
  H   H582      1.0  0.55194  0.06254  0.20834  1.0000
  Fe  Fe116     1.0  0.52747  0.10282  0.31183  1.0000
  S   S227      1.0  0.52221  0.10170  0.38884  1.0000
  S   S228      1.0  0.53766  0.10434  0.18193  1.0000
  S   S229      1.0  0.54173  0.11892  0.25969  1.0000
  Fe  Fe117     1.0  0.54871  0.13920  0.67441  1.0000
  S   S230      1.0  0.54680  0.12173  0.72698  1.0000
  S   S231      1.0  0.55265  0.15779  0.69145  1.0000
  Fe  Fe118     1.0  0.54475  0.12503  0.60023  1.0000
  S   S232      1.0  0.54278  0.10679  0.64974  1.0000
  S   S233      1.0  0.54695  0.12693  0.52300  1.0000
  Fe  Fe119     1.0  0.53145  0.11330  0.70225  1.0000
  C   C578      1.0  0.53060  0.16416  0.78296  1.0000
  Fe  Fe120     1.0  0.55829  0.11703  0.66975  1.0000
  S   S234      1.0  0.57483  0.11065  0.67454  1.0000
  S   S235      1.0  0.53237  0.13111  0.65212  1.0000
  S   S236      1.0  0.56116  0.13494  0.61781  1.0000
  C   C579      1.0  0.53728  0.03339  0.13089  1.0000
  H   H583      1.0  0.55913  0.07988  0.23868  1.0000
  H   H584      1.0  0.58955  0.17230  0.76798  1.0000
  H   H585      1.0  0.63733  0.23009  0.84731  1.0000
  H   H586      1.0  0.58195  0.08888  0.25931  1.0000
  N   N49       1.0  0.57032  0.07107  0.27203  1.0000
  N   N50       1.0  0.67569  0.15568  0.64372  1.0000
  S   S237      1.0  0.58851  0.06722  0.98427  1.0000
  S   S238      1.0  0.57996  0.05888  0.11467  1.0000
  C   C580      1.0  0.62038  0.09210  0.73081  1.0000
  C   C581      1.0  0.52253  0.03051  0.08829  1.0000
  C   C582      1.0  0.52813  0.03696  0.11428  1.0000
  H   H587      1.0  0.65890  0.20905  0.92619  1.0000
  C   C583      1.0  0.63401  0.08219  0.19404  1.0000
  C   C584      1.0  0.54071  0.02310  0.12233  1.0000
  H   H588      1.0  0.52556  0.04485  0.12102  1.0000
  H   H589      1.0  0.56744  0.08563  0.30046  1.0000
  H   H590      1.0  0.73092  0.24574  0.82859  1.0000
  C   C585      1.0  0.52300  0.08266  0.78392  1.0000
  C   C586      1.0  0.52194  0.07076  0.81059  1.0000
  C   C587      1.0  0.57455  0.06091  0.28074  1.0000
  H   H591      1.0  0.55448  0.14872  0.25716  1.0000
  C   C588      1.0  0.71306  0.20944  0.86752  1.0000
  H   H592      1.0  0.53111  0.08758  0.75611  1.0000
  Fe  Fe121     1.0  0.56421  0.04220  0.13427  1.0000
  C   C589      1.0  0.53780  0.07031  0.04637  1.0000
  C   C590      1.0  0.58323  0.25885  0.89606  1.0000
  C   C591      1.0  0.52964  0.10836  0.42574  1.0000
  C   C592      1.0  0.54077  0.11749  0.40919  1.0000
  C   C593      1.0  0.54583  0.12304  0.43929  1.0000
  C   C594      1.0  0.54005  0.11942  0.48674  1.0000
  C   C595      1.0  0.52900  0.11016  0.50336  1.0000
  C   C596      1.0  0.52383  0.10479  0.47310  1.0000
  C   C597      1.0  0.55434  0.06109  0.03372  1.0000
  H   H593      1.0  0.55432  0.13022  0.42562  1.0000
  H   H594      1.0  0.52434  0.10726  0.53947  1.0000
  C   C598      1.0  0.52949  0.14394  0.83212  1.0000
  H   H595      1.0  0.57453  0.04324  0.26899  1.0000
  H   H596      1.0  0.66828  0.18123  0.69654  1.0000
  H   H597      1.0  0.58108  0.06044  0.30039  1.0000
  H   H598      1.0  0.60424  0.23616  0.82200  1.0000
  C   C599      1.0  0.73351  0.25206  0.06844  1.0000
  C   C600      1.0  0.56234  0.07175  0.24621  1.0000
  H   H599      1.0  0.58468  0.12734  0.58577  1.0000
  Fe  Fe122     1.0  0.58613  0.05309  0.05149  1.0000
  H   H600      1.0  0.57894  0.07904  0.31641  1.0000
  H   H601      1.0  0.57035  0.12188  0.54136  1.0000
  C   C601      1.0  0.62404  0.09388  0.88485  1.0000
  C   C602      1.0  0.61299  0.09679  0.88751  1.0000
  C   C603      1.0  0.60224  0.08864  0.91885  1.0000
  C   C604      1.0  0.60245  0.07766  0.94860  1.0000
  C   C605      1.0  0.61355  0.07493  0.94698  1.0000
  C   C606      1.0  0.62428  0.08297  0.91489  1.0000
  H   H602      1.0  0.61273  0.10526  0.86502  1.0000
  H   H603      1.0  0.59371  0.09086  0.92019  1.0000
  H   H604      1.0  0.61382  0.06647  0.96949  1.0000
  H   H605      1.0  0.63279  0.08066  0.91307  1.0000
  C   C607      1.0  0.59435  0.13101  0.75788  1.0000
  C   C608      1.0  0.60097  0.12967  0.71715  1.0000
  C   C609      1.0  0.59495  0.12351  0.69125  1.0000
  C   C610      1.0  0.58231  0.11875  0.70597  1.0000
  C   C611      1.0  0.57572  0.12014  0.74658  1.0000
  C   C612      1.0  0.58172  0.12635  0.77234  1.0000
  H   H606      1.0  0.61070  0.13353  0.70517  1.0000
  H   H607      1.0  0.60008  0.12250  0.65973  1.0000
  H   H608      1.0  0.56603  0.11612  0.75894  1.0000
  H   H609      1.0  0.57660  0.12731  0.80395  1.0000
  C   C613      1.0  0.58696  0.12356  0.30383  1.0000
  C   C614      1.0  0.59382  0.12273  0.26257  1.0000
  C   C615      1.0  0.58805  0.11737  0.23425  1.0000
  C   C616      1.0  0.57541  0.11286  0.24706  1.0000
  C   C617      1.0  0.56854  0.11362  0.28842  1.0000
  C   C618      1.0  0.57430  0.11909  0.31654  1.0000
  H   H610      1.0  0.60355  0.12649  0.25197  1.0000
  H   H611      1.0  0.59340  0.11678  0.20234  1.0000
  H   H612      1.0  0.55881  0.10978  0.29936  1.0000
  H   H613      1.0  0.56897  0.11960  0.34864  1.0000
  C   C619      1.0  0.63048  0.12173  0.52388  1.0000
  C   C620      1.0  0.64178  0.13057  0.50800  1.0000
  C   C621      1.0  0.64699  0.13563  0.53880  1.0000
  C   C622      1.0  0.64097  0.13211  0.58595  1.0000
  C   C623      1.0  0.62953  0.12347  0.60172  1.0000
  C   C624      1.0  0.62439  0.11830  0.57099  1.0000
  H   H614      1.0  0.64663  0.13335  0.47207  1.0000
  H   H615      1.0  0.65581  0.14230  0.52587  1.0000
  H   H616      1.0  0.62468  0.12072  0.63763  1.0000
  H   H617      1.0  0.61561  0.11157  0.58374  1.0000
  C   C625      1.0  0.61084  0.07373  0.29215  1.0000
  C   C626      1.0  0.60623  0.07888  0.25658  1.0000
  C   C627      1.0  0.60271  0.07191  0.22710  1.0000
  C   C628      1.0  0.60380  0.05979  0.23315  1.0000
  C   C629      1.0  0.60843  0.05488  0.26855  1.0000
  C   C630      1.0  0.61181  0.06169  0.29770  1.0000
  H   H618      1.0  0.60550  0.08820  0.25159  1.0000
  H   H619      1.0  0.59921  0.07589  0.19976  1.0000
  H   H620      1.0  0.65717  0.09490  0.26294  1.0000
  H   H621      1.0  0.61531  0.05756  0.32482  1.0000
  C   C631      1.0  0.51323  0.12848  0.32608  1.0000
  N   N51       1.0  0.50845  0.07500  0.70454  1.0000
  C   C632      1.0  0.58488  0.24736  0.91610  1.0000
  C   C633      1.0  0.59081  0.24663  0.95050  1.0000
  H   H622      1.0  0.61968  0.22429  0.81765  1.0000
  H   H623      1.0  0.59221  0.23792  0.96633  1.0000
  H   H624      1.0  0.71910  0.24478  0.87867  1.0000
  C   C634      1.0  0.56474  0.16947  0.81108  1.0000
  C   C635      1.0  0.56143  0.15693  0.81233  1.0000
  C   C636      1.0  0.55829  0.15323  0.77532  1.0000
  C   C637      1.0  0.55812  0.16200  0.73664  1.0000
  C   C638      1.0  0.56149  0.17453  0.73528  1.0000
  C   C639      1.0  0.56485  0.17826  0.77195  1.0000
  H   H625      1.0  0.56138  0.15000  0.84207  1.0000
  H   H626      1.0  0.55579  0.14356  0.77711  1.0000
  H   H627      1.0  0.56140  0.18145  0.70571  1.0000
  H   H628      1.0  0.56738  0.18793  0.77007  1.0000
  C   C640      1.0  0.56013  0.16686  0.08792  1.0000
  C   C641      1.0  0.54980  0.16510  0.07228  1.0000
  C   C642      1.0  0.53970  0.15488  0.09617  1.0000
  C   C643      1.0  0.53999  0.14624  0.13511  1.0000
  C   C644      1.0  0.55036  0.14797  0.15049  1.0000
  C   C645      1.0  0.56030  0.15835  0.12746  1.0000
  H   H629      1.0  0.54955  0.17168  0.04210  1.0000
  H   H630      1.0  0.53165  0.15366  0.08436  1.0000
  H   H631      1.0  0.55071  0.14138  0.18036  1.0000
  H   H632      1.0  0.56826  0.15968  0.13978  1.0000
  C   C646      1.0  0.67704  0.18082  0.88847  1.0000
  C   C647      1.0  0.67720  0.16963  0.87799  1.0000
  C   C648      1.0  0.67017  0.16524  0.85055  1.0000
  C   C649      1.0  0.66305  0.17213  0.83199  1.0000
  C   C650      1.0  0.66288  0.18332  0.84245  1.0000
  C   C651      1.0  0.66966  0.18756  0.87088  1.0000
  H   H633      1.0  0.68286  0.16432  0.89110  1.0000
  H   H634      1.0  0.67052  0.15666  0.84286  1.0000
  H   H635      1.0  0.65751  0.18884  0.82823  1.0000
  H   H636      1.0  0.66944  0.19621  0.87808  1.0000
  C   C652      1.0  0.66630  0.17591  0.16652  1.0000
  C   C653      1.0  0.65910  0.17177  0.21218  1.0000
  C   C654      1.0  0.65471  0.15911  0.23540  1.0000
  C   C655      1.0  0.65779  0.15049  0.21351  1.0000
  C   C656      1.0  0.66492  0.15462  0.16770  1.0000
  C   C657      1.0  0.66901  0.16728  0.14403  1.0000
  H   H637      1.0  0.65699  0.17839  0.22989  1.0000
  H   H638      1.0  0.64931  0.15604  0.27074  1.0000
  H   H639      1.0  0.66739  0.14802  0.15059  1.0000
  H   H640      1.0  0.67457  0.17037  0.10891  1.0000
  C   C658      1.0  0.64696  0.21870  0.95557  1.0000
  C   C659      1.0  0.63541  0.22067  0.96140  1.0000
  C   C660      1.0  0.62700  0.21470  0.94217  1.0000
  C   C661      1.0  0.63023  0.20704  0.91572  1.0000
  C   C662      1.0  0.64175  0.20499  0.91024  1.0000
  C   C663      1.0  0.65003  0.21067  0.93065  1.0000
  H   H641      1.0  0.63294  0.22680  0.98096  1.0000
  H   H642      1.0  0.61820  0.21641  0.94642  1.0000
  H   H643      1.0  0.64433  0.19908  0.88982  1.0000
  N   N52       1.0  0.52811  0.15075  0.79270  1.0000
  H   H644      1.0  0.51538  0.03331  0.07600  1.0000
  N   N53       1.0  0.53571  0.14582  0.28655  1.0000
  H   H645      1.0  0.52837  0.05778  0.70607  1.0000
  C   C664      1.0  0.50708  0.05712  0.11775  1.0000
  S   S239      1.0  0.51369  0.10200  0.75477  1.0000
  C   C665      1.0  0.52387  0.14507  0.76321  1.0000
  H   H646      1.0  0.56503  0.04983  0.97960  1.0000
  H   H647      1.0  0.73418  0.24529  0.88235  1.0000
  H   H648      1.0  0.51163  0.04436  0.77429  1.0000
  C   C666      1.0  0.52005  0.06038  0.71581  1.0000
  H   H649      1.0  0.51077  0.13293  0.25848  1.0000
  C   C667      1.0  0.51666  0.13490  0.27978  1.0000
  C   C668      1.0  0.51877  0.07151  0.69129  1.0000
  H   H650      1.0  0.63902  0.24693  0.88403  1.0000
  S   S240      1.0  0.51444  0.10227  0.26744  1.0000
  H   H651      1.0  0.52205  0.16666  0.79428  1.0000
  H   H652      1.0  0.71385  0.22757  0.82905  1.0000
  H   H653      1.0  0.73241  0.24943  0.10483  1.0000
  C   C669      1.0  0.53239  0.13958  0.33203  1.0000
  C   C670      1.0  0.52247  0.12523  0.81251  1.0000
  H   H654      1.0  0.52008  0.03214  0.25811  1.0000
  H   H655      1.0  0.60283  0.09557  0.65825  1.0000
  N   N54       1.0  0.56872  0.14521  0.04424  1.0000
  C   C671      1.0  0.56256  0.13386  0.07423  1.0000
  C   C672      1.0  0.57955  0.15155  0.04780  1.0000
  C   C673      1.0  0.56717  0.12868  0.10928  1.0000
  C   C674      1.0  0.58433  0.14668  0.08282  1.0000
  C   C675      1.0  0.57807  0.13516  0.11373  1.0000
  C   C676      1.0  0.56395  0.15038  0.00691  1.0000
  H   H656      1.0  0.55394  0.12883  0.07169  1.0000
  H   H657      1.0  0.58437  0.16061  0.02436  1.0000
  H   H658      1.0  0.56229  0.11972  0.13313  1.0000
  H   H659      1.0  0.59275  0.15189  0.08623  1.0000
  H   H660      1.0  0.58160  0.13124  0.14128  1.0000
  H   H661      1.0  0.56642  0.16061  0.99811  1.0000
  H   H662      1.0  0.56766  0.14767  0.97605  1.0000
  H   H663      1.0  0.55387  0.14720  0.01694  1.0000
  N   N55       1.0  0.64318  0.19738  0.10452  1.0000
  C   C677      1.0  0.64334  0.18614  0.12955  1.0000
  C   C678      1.0  0.63904  0.19838  0.06667  1.0000
  C   C679      1.0  0.64038  0.17570  0.11456  1.0000
  C   C680      1.0  0.63592  0.18814  0.05070  1.0000
  C   C681      1.0  0.63678  0.17676  0.07451  1.0000
  C   C682      1.0  0.64714  0.20838  0.11901  1.0000
  H   H664      1.0  0.64610  0.18527  0.16071  1.0000
  H   H665      1.0  0.63839  0.20719  0.04813  1.0000
  H   H666      1.0  0.64112  0.16694  0.13355  1.0000
  H   H667      1.0  0.63312  0.18913  0.01951  1.0000
  H   H668      1.0  0.63472  0.16881  0.06190  1.0000
  H   H669      1.0  0.65116  0.21672  0.08897  1.0000
  H   H670      1.0  0.63935  0.20973  0.14275  1.0000
  H   H671      1.0  0.65439  0.20753  0.13625  1.0000
  N   N56       1.0  0.60355  0.16777  0.79542  1.0000
  C   C683      1.0  0.60154  0.17034  0.83651  1.0000
  C   C684      1.0  0.61506  0.16862  0.77125  1.0000
  C   C685      1.0  0.61119  0.17375  0.85467  1.0000
  C   C686      1.0  0.62493  0.17209  0.78828  1.0000
  C   C687      1.0  0.62296  0.17464  0.83029  1.0000
  C   C688      1.0  0.59326  0.16433  0.77717  1.0000
  H   H672      1.0  0.59242  0.16974  0.85542  1.0000
  H   H673      1.0  0.61662  0.16640  0.73900  1.0000
  H   H674      1.0  0.60961  0.17578  0.88725  1.0000
  H   H675      1.0  0.63404  0.17271  0.76927  1.0000
  H   H676      1.0  0.63055  0.17732  0.84389  1.0000
  H   H677      1.0  0.59581  0.16110  0.74650  1.0000
  C   C689      1.0  0.52634  0.02062  0.07777  1.0000
  C   C690      1.0  0.64868  0.09780  0.26823  1.0000
  S   S241      1.0  0.54498  0.04240  0.15919  1.0000
  C   C691      1.0  0.62402  0.26105  0.89433  1.0000
  H   H678      1.0  0.51520  0.09781  0.48653  1.0000
  H   H679      1.0  0.58603  0.15655  0.80314  1.0000
  S   S242      1.0  0.51536  0.07149  0.21855  1.0000
  C   C692      1.0  0.61211  0.23866  0.83434  1.0000
  C   C693      1.0  0.59379  0.09711  0.80759  1.0000
  C   C694      1.0  0.57489  0.08163  0.28795  1.0000
  S   S243      1.0  0.71717  0.23870  0.97742  1.0000
  H   H680      1.0  0.72582  0.20335  0.95452  1.0000
  H   H681      1.0  0.64248  0.09232  0.30247  1.0000
  S   S244      1.0  0.59978  0.05006  0.19872  1.0000
  H   H682      1.0  0.65111  0.10764  0.26791  1.0000
  C   C695      1.0  0.57082  0.05109  0.26335  1.0000
  H   H683      1.0  0.56652  0.11746  0.47553  1.0000
  H   H684      1.0  0.61451  0.13553  0.46605  1.0000
  H   H685      1.0  0.59999  0.12980  0.42300  1.0000
  C   C696      1.0  0.56256  0.05164  0.23754  1.0000
  C   C697      1.0  0.59657  0.12927  0.45868  1.0000
  C   C698      1.0  0.60482  0.13258  0.48281  1.0000
  H   H686      1.0  0.64101  0.07660  0.25090  1.0000
  C   C699      1.0  0.55826  0.06201  0.22886  1.0000
  H   H687      1.0  0.67940  0.16749  0.73099  1.0000
  H   H688      1.0  0.63281  0.11137  0.14985  1.0000
  H   H689      1.0  0.57881  0.11543  0.43499  1.0000
  N   N57       1.0  0.58436  0.12531  0.47981  1.0000
  C   C700      1.0  0.57596  0.12195  0.45342  1.0000
  N   N58       1.0  0.64276  0.09589  0.23280  1.0000
  C   C701      1.0  0.60055  0.13173  0.52894  1.0000
  H   H690      1.0  0.60690  0.13398  0.54828  1.0000
  H   H691      1.0  0.66161  0.17828  0.62857  1.0000
  C   C702      1.0  0.63955  0.08432  0.22786  1.0000
  H   H692      1.0  0.64282  0.11470  0.20943  1.0000
  C   C703      1.0  0.64041  0.10554  0.20520  1.0000
  H   H693      1.0  0.71855  0.23669  0.07286  1.0000
  C   C704      1.0  0.67685  0.16650  0.70038  1.0000
  C   C705      1.0  0.58808  0.12791  0.55003  1.0000
  C   C706      1.0  0.58005  0.12478  0.52475  1.0000
  H   H694      1.0  0.68397  0.15104  0.69710  1.0000
  C   C707      1.0  0.67937  0.15723  0.68111  1.0000
  C   C708      1.0  0.67053  0.17420  0.68114  1.0000
  C   C709      1.0  0.63476  0.10372  0.17132  1.0000
  H   H695      1.0  0.63123  0.07294  0.19089  1.0000
  H   H696      1.0  0.55958  0.04409  0.22386  1.0000
  C   C710      1.0  0.72669  0.24785  0.00322  1.0000
  C   C711      1.0  0.66678  0.17254  0.64313  1.0000
  C   C712      1.0  0.63158  0.09196  0.16571  1.0000
  H   H697      1.0  0.67645  0.14649  0.59134  1.0000
  C   C713      1.0  0.66944  0.16316  0.62478  1.0000
  H   H698      1.0  0.55265  0.07321  0.07642  1.0000
  S   S245      1.0  0.56939  0.03739  0.06895  1.0000
  H   H699      1.0  0.62703  0.09034  0.14008  1.0000
  C   C714      1.0  0.67783  0.14543  0.62593  1.0000
  Fe  Fe123     1.0  0.58929  0.04587  0.14741  1.0000
  H   H700      1.0  0.66622  0.16174  0.59589  1.0000
  H   H701      1.0  0.68724  0.14480  0.62346  1.0000
  H   H702      1.0  0.67128  0.13665  0.64885  1.0000
  C   C715      1.0  0.72555  0.24476  0.05029  1.0000
  H   H703      1.0  0.60935  0.04560  0.27380  1.0000
  H   H704      1.0  0.52406  0.06515  0.01317  1.0000
  H   H705      1.0  0.57596  0.13033  0.42779  1.0000
  C   C716      1.0  0.63064  0.23528  0.84871  1.0000
  S   S246      1.0  0.59641  0.04061  0.08281  1.0000
  C   C717      1.0  0.71681  0.22231  0.85568  1.0000
  H   H706      1.0  0.53292  0.14845  0.85540  1.0000
  H   H707      1.0  0.59814  0.10611  0.81199  1.0000
  S   S247      1.0  0.57272  0.02944  0.17224  1.0000
  N   N59       1.0  0.62311  0.25135  0.87120  1.0000
  C   C718      1.0  0.55498  0.04667  0.98721  1.0000
  C   C719      1.0  0.72720  0.24166  0.86614  1.0000
  C   C720      1.0  0.61697  0.09308  0.69041  1.0000
  C   C721      1.0  0.62074  0.23204  0.83188  1.0000
  C   C722      1.0  0.52796  0.14368  0.26058  1.0000
  H   H708      1.0  0.61531  0.09260  0.80042  1.0000
  C   C723      1.0  0.72348  0.20861  0.92599  1.0000
  N   N60       1.0  0.72381  0.22816  0.87826  1.0000
  H   H709      1.0  0.51457  0.02168  0.20315  1.0000
  C   C724      1.0  0.59790  0.09568  0.72874  1.0000
  H   H710      1.0  0.51759  0.12777  0.74931  1.0000
  C   C725      1.0  0.52093  0.13225  0.77278  1.0000
  S   S248      1.0  0.50931  0.04821  0.87071  1.0000
  H   H711      1.0  0.70724  0.20478  0.85041  1.0000
  H   H712      1.0  0.62923  0.09090  0.73203  1.0000
  C   C726      1.0  0.72712  0.22149  0.91317  1.0000
  C   C727      1.0  0.50723  0.08657  0.67771  1.0000
  C   C728      1.0  0.53531  0.01678  0.09537  1.0000
  H   H713      1.0  0.57875  0.25962  0.86919  1.0000
  H   H714      1.0  0.62315  0.09265  0.65979  1.0000
  H   H715      1.0  0.73232  0.22611  0.93219  1.0000
  C   C729      1.0  0.61352  0.24842  0.85378  1.0000
  H   H716      1.0  0.53719  0.16789  0.80044  1.0000
  H   H717      1.0  0.55156  0.03730  0.01191  1.0000
  H   H718      1.0  0.52249  0.06119  0.14485  1.0000
  H   H719      1.0  0.51088  0.05196  0.09656  1.0000
  C   C730      1.0  0.59499  0.25718  0.96439  1.0000
  H   H720      1.0  0.56281  0.05994  0.03993  1.0000
  H   H721      1.0  0.54763  0.02009  0.13594  1.0000
  H   H722      1.0  0.59254  0.08964  0.83901  1.0000
  H   H723      1.0  0.53056  0.14857  0.22453  1.0000
  H   H724      1.0  0.52297  0.15047  0.73159  1.0000
  C   C731      1.0  0.63157  0.24485  0.86923  1.0000
  C   C732      1.0  0.53850  0.05648  0.99926  1.0000
  H   H725      1.0  0.58914  0.09709  0.72741  1.0000
  H   H726      1.0  0.58467  0.09738  0.80360  1.0000
  H   H727      1.0  0.52922  0.06654  0.80282  1.0000
  Fe  Fe124     1.0  0.57871  0.02523  0.10526  1.0000
  H   H728      1.0  0.54546  0.12035  0.37309  1.0000
  C   C733      1.0  0.60561  0.09477  0.68943  1.0000
  N   N61       1.0  0.60145  0.09504  0.76784  1.0000
  H   H729      1.0  0.51230  0.04299  0.27408  1.0000
  C   C734      1.0  0.51335  0.08789  0.79191  1.0000
  H   H730      1.0  0.51845  0.12597  0.38858  1.0000
  C   C735      1.0  0.53265  0.06416  0.01874  1.0000
  H   H731      1.0  0.52037  0.11527  0.81983  1.0000
  H   H732      1.0  0.53326  0.07614  0.06225  1.0000
  H   H733      1.0  0.71317  0.19257  0.91346  1.0000
  C   C736      1.0  0.61244  0.09305  0.76951  1.0000
  C   C737      1.0  0.71639  0.20257  0.90300  1.0000
  N   N62       1.0  0.54926  0.05513  0.00649  1.0000
  H   H734      1.0  0.53434  0.05151  0.97860  1.0000
  C   C738      1.0  0.54868  0.06871  0.05419  1.0000
  H   H735      1.0  0.59951  0.25642  0.99111  1.0000
  C   C739      1.0  0.52681  0.13109  0.84240  1.0000
  C   C740      1.0  0.51134  0.06406  0.84592  1.0000
  S   S249      1.0  0.52023  0.01336  0.04136  1.0000
  H   H736      1.0  0.60679  0.25353  0.85524  1.0000
  C   C741      1.0  0.51363  0.06242  0.14491  1.0000
  C   C742      1.0  0.51559  0.03921  0.24556  1.0000
  H   H737      1.0  0.52812  0.12572  0.87320  1.0000
  C   C743      1.0  0.50671  0.02527  0.20587  1.0000
  S   S250      1.0  0.50828  0.04183  0.99778  1.0000
  H   H738      1.0  0.53476  0.16872  0.74570  1.0000
  C   C744      1.0  0.51063  0.05279  0.75377  1.0000
  H   H739      1.0  0.51594  0.09393  0.66686  1.0000
  H   H740      1.0  0.52250  0.04686  0.21777  1.0000
  H   H741      1.0  0.62090  0.25682  0.93196  1.0000
  H   H742      1.0  0.52617  0.07743  0.66205  1.0000
  H   H743      1.0  0.55083  0.15953  0.28793  1.0000
  Fe  Fe125     1.0  0.50593  0.02154  0.02073  1.0000
  H   H744      1.0  0.53860  0.14106  0.35260  1.0000
  H   H745      1.0  0.54845  0.16087  0.23253  1.0000
  C   C745      1.0  0.73596  0.25849  0.97503  1.0000
  C   C746      1.0  0.50859  0.06874  0.17425  1.0000
  C   C747      1.0  0.54797  0.15416  0.26499  1.0000
  C   C748      1.0  0.52103  0.13099  0.35259  1.0000
  H   H746      1.0  0.73705  0.26113  0.93866  1.0000
  H   H747      1.0  0.60665  0.44542  0.69849  1.0000
  Fe  Fe126     1.0  0.59801  0.30191  0.94598  1.0000
  S   S251      1.0  0.61271  0.31818  0.89452  1.0000
  H   H748      1.0  0.59484  0.35364  0.12766  1.0000
  Fe  Fe127     1.0  0.58257  0.31847  0.97419  1.0000
  S   S252      1.0  0.59568  0.33539  0.92435  1.0000
  S   S253      1.0  0.56563  0.32161  0.01434  1.0000
  Fe  Fe128     1.0  0.59713  0.32425  0.87505  1.0000
  S   S254      1.0  0.59918  0.33443  0.80187  1.0000
  Fe  Fe129     1.0  0.61033  0.32844  0.94787  1.0000
  S   S255      1.0  0.62329  0.34587  0.95135  1.0000
  S   S256      1.0  0.58265  0.30759  0.92286  1.0000
  S   S257      1.0  0.59687  0.31181  0.00146  1.0000
  Fe  Fe130     1.0  0.69335  0.39241  0.08304  1.0000
  S   S258      1.0  0.67873  0.37598  0.13261  1.0000
  S   S259      1.0  0.71330  0.39204  0.07741  1.0000
  Fe  Fe131     1.0  0.67380  0.40294  0.04913  1.0000
  S   S260      1.0  0.65827  0.38753  0.09775  1.0000
  S   S261      1.0  0.66901  0.41782  0.00141  1.0000
  Fe  Fe132     1.0  0.66873  0.38967  0.14863  1.0000
  S   S262      1.0  0.65817  0.38728  0.22124  1.0000
  Fe  Fe133     1.0  0.66953  0.37537  0.07679  1.0000
  S   S263      1.0  0.66145  0.35714  0.06407  1.0000
  S   S264      1.0  0.68359  0.40618  0.10197  1.0000
  S   S265      1.0  0.68483  0.39073  0.02540  1.0000
  Fe  Fe134     1.0  0.55539  0.38632  0.16150  1.0000
  S   S266      1.0  0.57295  0.38196  0.13597  1.0000
  N   N63       1.0  0.52145  0.41208  0.14638  1.0000
  Fe  Fe135     1.0  0.55273  0.37367  0.26225  1.0000
  S   S267      1.0  0.56987  0.36808  0.24423  1.0000
  S   S268      1.0  0.54121  0.37194  0.33354  1.0000
  Fe  Fe136     1.0  0.57770  0.38703  0.19586  1.0000
  S   S269      1.0  0.59605  0.39882  0.19029  1.0000
  Fe  Fe137     1.0  0.56373  0.36321  0.18572  1.0000
  S   S270      1.0  0.56965  0.34663  0.17298  1.0000
  S   S271      1.0  0.56111  0.39305  0.21738  1.0000
  S   S272      1.0  0.54557  0.36713  0.20774  1.0000
  Fe  Fe138     1.0  0.61160  0.41527  0.39009  1.0000
  S   S273      1.0  0.60559  0.42775  0.42968  1.0000
  S   S274      1.0  0.59789  0.39864  0.39016  1.0000
  Fe  Fe139     1.0  0.63762  0.43044  0.35573  1.0000
  S   S275      1.0  0.63405  0.44449  0.39302  1.0000
  S   S276      1.0  0.65526  0.43202  0.30471  1.0000
  Fe  Fe140     1.0  0.62256  0.42805  0.45248  1.0000
  S   S277      1.0  0.61838  0.42268  0.53030  1.0000
  Fe  Fe141     1.0  0.61732  0.44299  0.36799  1.0000
  S   S278      1.0  0.61137  0.45888  0.33209  1.0000
  S   S279      1.0  0.62755  0.41417  0.41696  1.0000
  S   S280      1.0  0.62188  0.43043  0.32654  1.0000
  Fe  Fe142     1.0  0.53823  0.37236  0.66327  1.0000
  S   S281      1.0  0.53907  0.35510  0.64239  1.0000
  S   S282      1.0  0.54953  0.40081  0.11648  1.0000
  Fe  Fe143     1.0  0.56527  0.38187  0.63942  1.0000
  S   S283      1.0  0.56855  0.36553  0.61760  1.0000
  S   S284      1.0  0.58092  0.39653  0.63998  1.0000
  Fe  Fe144     1.0  0.55421  0.36767  0.58122  1.0000
  S   S285      1.0  0.56073  0.36549  0.51000  1.0000
  Fe  Fe145     1.0  0.55335  0.35448  0.67977  1.0000
  S   S286      1.0  0.55282  0.33714  0.73150  1.0000
  S   S287      1.0  0.55213  0.38506  0.59896  1.0000
  S   S288      1.0  0.55134  0.37070  0.70466  1.0000
  Fe  Fe146     1.0  0.61776  0.41409  0.87437  1.0000
  S   S289      1.0  0.59868  0.41487  0.90272  1.0000
  S   S290      1.0  0.62504  0.40117  0.92077  1.0000
  Fe  Fe147     1.0  0.61948  0.42851  0.77698  1.0000
  S   S291      1.0  0.60072  0.43050  0.79843  1.0000
  S   S292      1.0  0.63089  0.43737  0.70274  1.0000
  Fe  Fe148     1.0  0.60521  0.43460  0.86049  1.0000
  S   S293      1.0  0.59606  0.44868  0.88087  1.0000
  Fe  Fe149     1.0  0.59552  0.41082  0.83927  1.0000
  S   S294      1.0  0.57735  0.39944  0.84084  1.0000
  S   S295      1.0  0.62472  0.43436  0.83607  1.0000
  S   S296      1.0  0.61394  0.40828  0.81367  1.0000
  C   C749      1.0  0.57624  0.41587  0.03814  1.0000
  C   C750      1.0  0.57066  0.43803  0.82983  1.0000
  S   S297      1.0  0.54246  0.44982  0.91610  1.0000
  S   S298      1.0  0.54765  0.47008  0.19126  1.0000
  Fe  Fe150     1.0  0.57555  0.46670  0.10580  1.0000
  S   S299      1.0  0.56086  0.45047  0.15484  1.0000
  S   S300      1.0  0.59159  0.46115  0.07022  1.0000
  Fe  Fe151     1.0  0.54827  0.46123  0.13443  1.0000
  S   S301      1.0  0.53120  0.45280  0.11896  1.0000
  Fe  Fe152     1.0  0.56211  0.46106  0.20602  1.0000
  S   S302      1.0  0.56217  0.45167  0.27767  1.0000
  S   S303      1.0  0.56280  0.47686  0.08111  1.0000
  C   C751      1.0  0.53941  0.45150  0.97133  1.0000
  C   C752      1.0  0.52747  0.44972  0.99665  1.0000
  C   C753      1.0  0.52499  0.45031  0.04183  1.0000
  C   C754      1.0  0.53446  0.45258  0.06186  1.0000
  C   C755      1.0  0.54643  0.45455  0.03634  1.0000
  C   C756      1.0  0.54892  0.45420  0.99083  1.0000
  H   H749      1.0  0.52015  0.44813  0.98112  1.0000
  C   C757      1.0  0.52551  0.40888  0.75594  1.0000
  H   H750      1.0  0.55376  0.45616  0.05175  1.0000
  H   H751      1.0  0.55820  0.45582  0.97107  1.0000
  C   C758      1.0  0.59478  0.45183  0.93409  1.0000
  C   C759      1.0  0.58757  0.45949  0.94591  1.0000
  C   C760      1.0  0.58627  0.46217  0.98803  1.0000
  C   C761      1.0  0.59252  0.45753  0.01801  1.0000
  C   C762      1.0  0.59981  0.44995  0.00610  1.0000
  C   C763      1.0  0.60080  0.44694  0.96458  1.0000
  H   H752      1.0  0.58310  0.46355  0.92224  1.0000
  H   H753      1.0  0.58075  0.46814  0.99666  1.0000
  H   H754      1.0  0.60476  0.44644  0.02901  1.0000
  H   H755      1.0  0.60645  0.44112  0.95566  1.0000
  H   H756      1.0  0.54636  0.33968  0.49629  1.0000
  H   H757      1.0  0.56699  0.41805  0.94179  1.0000
  H   H758      1.0  0.56918  0.42117  0.81023  1.0000
  C   C764      1.0  0.56360  0.29027  0.04182  1.0000
  C   C765      1.0  0.56876  0.42022  0.97205  1.0000
  C   C766      1.0  0.57963  0.39665  0.69667  1.0000
  C   C767      1.0  0.58980  0.39725  0.71315  1.0000
  C   C768      1.0  0.58907  0.39813  0.75743  1.0000
  C   C769      1.0  0.57810  0.39819  0.78570  1.0000
  C   C770      1.0  0.56786  0.39750  0.76947  1.0000
  C   C771      1.0  0.56862  0.39673  0.72490  1.0000
  H   H759      1.0  0.59821  0.39683  0.69201  1.0000
  H   H760      1.0  0.59698  0.39857  0.76974  1.0000
  H   H761      1.0  0.55941  0.39780  0.79089  1.0000
  H   H762      1.0  0.56077  0.39646  0.71205  1.0000
  C   C772      1.0  0.62297  0.42656  0.57688  1.0000
  C   C773      1.0  0.61618  0.41931  0.62124  1.0000
  C   C774      1.0  0.61871  0.42228  0.66004  1.0000
  C   C775      1.0  0.62811  0.43262  0.65487  1.0000
  C   C776      1.0  0.63510  0.43976  0.61039  1.0000
  C   C777      1.0  0.63253  0.43678  0.57151  1.0000
  H   H763      1.0  0.60875  0.41147  0.62537  1.0000
  H   H764      1.0  0.61327  0.41672  0.69393  1.0000
  H   H765      1.0  0.64242  0.44777  0.60599  1.0000
  H   H766      1.0  0.63785  0.44246  0.53756  1.0000
  C   C778      1.0  0.59808  0.45503  0.31501  1.0000
  C   C779      1.0  0.59810  0.46044  0.27012  1.0000
  C   C780      1.0  0.58721  0.45897  0.25762  1.0000
  C   C781      1.0  0.57618  0.45227  0.29024  1.0000
  C   C782      1.0  0.57621  0.44649  0.33471  1.0000
  C   C783      1.0  0.58713  0.44780  0.34703  1.0000
  H   H767      1.0  0.60654  0.46607  0.24523  1.0000
  H   H768      1.0  0.58734  0.46335  0.22313  1.0000
  H   H769      1.0  0.56772  0.44127  0.36010  1.0000
  H   H770      1.0  0.58701  0.44372  0.38188  1.0000
  C   C784      1.0  0.54669  0.37017  0.38247  1.0000
  C   C785      1.0  0.55790  0.36780  0.38147  1.0000
  C   C786      1.0  0.56202  0.36646  0.42085  1.0000
  C   C787      1.0  0.55507  0.36762  0.46152  1.0000
  C   C788      1.0  0.54384  0.37001  0.46269  1.0000
  C   C789      1.0  0.53965  0.37120  0.42336  1.0000
  H   H771      1.0  0.56341  0.36695  0.35035  1.0000
  H   H772      1.0  0.57072  0.36461  0.41950  1.0000
  H   H773      1.0  0.53835  0.37084  0.49384  1.0000
  H   H774      1.0  0.53093  0.37298  0.42453  1.0000
  H   H775      1.0  0.57631  0.40505  0.99035  1.0000
  C   C790      1.0  0.53896  0.40787  0.04945  1.0000
  H   H776      1.0  0.56537  0.44053  0.03331  1.0000
  H   H777      1.0  0.57772  0.43667  0.84612  1.0000
  C   C791      1.0  0.56063  0.48584  0.26311  1.0000
  H   H778      1.0  0.55767  0.37011  0.85166  1.0000
  H   H779      1.0  0.54269  0.41712  0.05056  1.0000
  H   H780      1.0  0.56901  0.41455  0.25460  1.0000
  H   H781      1.0  0.55613  0.49009  0.28796  1.0000
  C   C792      1.0  0.59684  0.39843  0.24582  1.0000
  C   C793      1.0  0.60750  0.40470  0.25286  1.0000
  C   C794      1.0  0.60813  0.40436  0.29737  1.0000
  C   C795      1.0  0.59799  0.39797  0.33472  1.0000
  C   C796      1.0  0.58742  0.39160  0.32758  1.0000
  C   C797      1.0  0.58678  0.39194  0.28325  1.0000
  H   H782      1.0  0.61518  0.40991  0.22389  1.0000
  H   H783      1.0  0.61648  0.40889  0.30279  1.0000
  H   H784      1.0  0.57956  0.38675  0.35632  1.0000
  H   H785      1.0  0.57838  0.38738  0.27831  1.0000
  C   C798      1.0  0.65745  0.39992  0.24326  1.0000
  C   C799      1.0  0.64824  0.39827  0.28301  1.0000
  C   C800      1.0  0.64742  0.40808  0.30186  1.0000
  C   C801      1.0  0.65604  0.41953  0.28185  1.0000
  C   C802      1.0  0.66536  0.42115  0.24239  1.0000
  C   C803      1.0  0.66593  0.41145  0.22261  1.0000
  H   H786      1.0  0.64164  0.38938  0.29922  1.0000
  H   H787      1.0  0.64020  0.40674  0.33222  1.0000
  H   H788      1.0  0.67203  0.43000  0.22670  1.0000
  H   H789      1.0  0.67300  0.41289  0.19174  1.0000
  C   C804      1.0  0.65623  0.41335  0.98153  1.0000
  C   C805      1.0  0.64987  0.40095  0.99239  1.0000
  C   C806      1.0  0.64014  0.39745  0.97447  1.0000
  C   C807      1.0  0.63670  0.40629  0.94517  1.0000
  C   C808      1.0  0.64291  0.41874  0.93472  1.0000
  C   C809      1.0  0.65266  0.42225  0.95285  1.0000
  H   H790      1.0  0.65264  0.39400  0.01359  1.0000
  H   H791      1.0  0.63546  0.38781  0.98258  1.0000
  H   H792      1.0  0.64036  0.42565  0.91212  1.0000
  H   H793      1.0  0.65755  0.43188  0.94411  1.0000
  C   C810      1.0  0.56560  0.33700  0.75234  1.0000
  C   C811      1.0  0.56451  0.32805  0.79271  1.0000
  C   C812      1.0  0.57467  0.32740  0.80902  1.0000
  C   C813      1.0  0.58606  0.33552  0.78433  1.0000
  C   C814      1.0  0.58714  0.34451  0.74403  1.0000
  C   C815      1.0  0.57692  0.34536  0.72838  1.0000
  H   H794      1.0  0.55577  0.32155  0.81138  1.0000
  H   H795      1.0  0.57374  0.32043  0.84002  1.0000
  H   H796      1.0  0.59593  0.35078  0.72460  1.0000
  H   H797      1.0  0.57786  0.35229  0.69721  1.0000
  C   C816      1.0  0.56740  0.32940  0.05585  1.0000
  C   C817      1.0  0.57549  0.32730  0.08153  1.0000
  C   C818      1.0  0.57604  0.33269  0.11722  1.0000
  C   C819      1.0  0.56885  0.34057  0.12649  1.0000
  C   C820      1.0  0.56107  0.34303  0.09978  1.0000
  C   C821      1.0  0.56019  0.33727  0.06504  1.0000
  H   H798      1.0  0.58098  0.32116  0.07507  1.0000
  H   H799      1.0  0.58197  0.33063  0.13812  1.0000
  H   H800      1.0  0.55541  0.34899  0.10697  1.0000
  H   H801      1.0  0.55385  0.33885  0.04549  1.0000
  C   C822      1.0  0.63288  0.34836  0.98704  1.0000
  C   C823      1.0  0.63724  0.33908  0.00917  1.0000
  C   C824      1.0  0.64578  0.34187  0.03345  1.0000
  C   C825      1.0  0.64991  0.35390  0.03647  1.0000
  C   C826      1.0  0.64523  0.36309  0.01553  1.0000
  C   C827      1.0  0.63686  0.36035  0.99067  1.0000
  H   H802      1.0  0.63434  0.32983  0.00651  1.0000
  H   H803      1.0  0.64933  0.33468  0.04948  1.0000
  H   H804      1.0  0.64828  0.37236  0.01770  1.0000
  H   H805      1.0  0.63353  0.36758  0.97365  1.0000
  C   C828      1.0  0.74820  0.40751  0.11739  1.0000
  C   C829      1.0  0.56280  0.40255  0.36917  1.0000
  C   C830      1.0  0.73668  0.39353  0.08423  1.0000
  C   C831      1.0  0.72662  0.39835  0.09298  1.0000
  C   C832      1.0  0.72750  0.40788  0.11387  1.0000
  C   C833      1.0  0.73817  0.41237  0.12601  1.0000
  H   H806      1.0  0.73618  0.38617  0.06813  1.0000
  H   H807      1.0  0.71997  0.41183  0.12054  1.0000
  H   H808      1.0  0.73866  0.41972  0.14216  1.0000
  Fe  Fe153     1.0  0.52660  0.43629  0.90982  1.0000
  H   H809      1.0  0.58014  0.41007  0.05959  1.0000
  C   C834      1.0  0.58975  0.42883  0.25550  1.0000
  C   C835      1.0  0.59918  0.36293  0.10533  1.0000
  C   C836      1.0  0.60029  0.37276  0.12450  1.0000
  C   C837      1.0  0.60991  0.38677  0.04894  1.0000
  C   C838      1.0  0.60573  0.38475  0.09604  1.0000
  H   H810      1.0  0.59676  0.37109  0.16113  1.0000
  H   H811      1.0  0.61410  0.39607  0.02639  1.0000
  H   H812      1.0  0.60657  0.39247  0.11045  1.0000
  H   H813      1.0  0.55582  0.47587  0.27277  1.0000
  C   C839      1.0  0.52283  0.38815  0.72238  1.0000
  S   S304      1.0  0.56485  0.50537  0.13430  1.0000
  H   H814      1.0  0.60686  0.49150  0.26331  1.0000
  H   H815      1.0  0.56344  0.32727  0.65855  1.0000
  H   H816      1.0  0.58694  0.28052  0.05778  1.0000
  C   C840      1.0  0.53538  0.40734  0.72546  1.0000
  C   C841      1.0  0.59343  0.26869  0.94402  1.0000
  C   C842      1.0  0.57798  0.28140  0.07541  1.0000
  N   N64       1.0  0.66923  0.38482  0.91781  1.0000
  C   C843      1.0  0.67539  0.39655  0.91462  1.0000
  C   C844      1.0  0.65948  0.38281  0.90052  1.0000
  C   C845      1.0  0.67191  0.40666  0.89330  1.0000
  C   C846      1.0  0.65571  0.39272  0.87920  1.0000
  C   C847      1.0  0.66204  0.40471  0.87536  1.0000
  C   C848      1.0  0.67328  0.37445  0.93959  1.0000
  H   H817      1.0  0.68298  0.39816  0.92901  1.0000
  H   H818      1.0  0.65448  0.37350  0.90357  1.0000
  H   H819      1.0  0.67660  0.41593  0.89209  1.0000
  H   H820      1.0  0.64777  0.39114  0.86669  1.0000
  H   H821      1.0  0.65903  0.41246  0.85984  1.0000
  H   H822      1.0  0.66716  0.36539  0.94242  1.0000
  H   H823      1.0  0.68256  0.37502  0.91984  1.0000
  H   H824      1.0  0.67335  0.37457  0.97492  1.0000
  H   H825      1.0  0.56412  0.29677  0.06191  1.0000
  H   H826      1.0  0.53145  0.41187  0.19596  1.0000
  C   C849      1.0  0.58815  0.48237  0.30039  1.0000
  H   H827      1.0  0.54392  0.36654  0.80306  1.0000
  H   H828      1.0  0.50897  0.38392  0.13736  1.0000
  C   C850      1.0  0.56218  0.27394  0.98947  1.0000
  C   C851      1.0  0.53989  0.49828  0.05556  1.0000
  S   S305      1.0  0.52087  0.37542  0.70021  1.0000
  N   N65       1.0  0.57021  0.28187  0.04460  1.0000
  H   H829      1.0  0.51617  0.47262  0.08710  1.0000
  C   C852      1.0  0.59460  0.49736  0.22632  1.0000
  C   C853      1.0  0.51433  0.39993  0.77027  1.0000
  C   C854      1.0  0.53409  0.39693  0.70916  1.0000
  C   C855      1.0  0.58242  0.49579  0.22674  1.0000
  C   C856      1.0  0.52102  0.48229  0.07859  1.0000
  N   N66       1.0  0.68969  0.38261  0.22656  1.0000
  C   C857      1.0  0.68035  0.37203  0.24576  1.0000
  C   C858      1.0  0.70038  0.38250  0.19867  1.0000
  C   C859      1.0  0.68168  0.36092  0.23772  1.0000
  C   C860      1.0  0.70201  0.37159  0.18968  1.0000
  C   C861      1.0  0.69259  0.36073  0.20943  1.0000
  C   C862      1.0  0.68814  0.39431  0.23365  1.0000
  H   H830      1.0  0.67171  0.37219  0.26660  1.0000
  H   H831      1.0  0.70766  0.39093  0.18243  1.0000
  H   H832      1.0  0.67418  0.35261  0.25232  1.0000
  H   H833      1.0  0.71041  0.37168  0.16645  1.0000
  H   H834      1.0  0.69365  0.35227  0.20194  1.0000
  H   H835      1.0  0.69610  0.39931  0.24226  1.0000
  H   H836      1.0  0.68711  0.40013  0.20206  1.0000
  H   H837      1.0  0.67992  0.39292  0.26197  1.0000
  N   N67       1.0  0.54671  0.33377  0.56602  1.0000
  C   C863      1.0  0.55912  0.33658  0.55360  1.0000
  C   C864      1.0  0.54021  0.32855  0.61091  1.0000
  C   C865      1.0  0.56533  0.33423  0.58657  1.0000
  C   C866      1.0  0.54612  0.32599  0.64469  1.0000
  C   C867      1.0  0.55876  0.32890  0.63237  1.0000
  C   C868      1.0  0.54027  0.33690  0.53174  1.0000
  H   H838      1.0  0.56431  0.34103  0.51819  1.0000
  H   H839      1.0  0.53040  0.32662  0.62097  1.0000
  H   H840      1.0  0.53780  0.50015  0.15559  1.0000
  H   H841      1.0  0.54099  0.32214  0.68047  1.0000
  H   H842      1.0  0.57980  0.28995  0.08625  1.0000
  H   H843      1.0  0.56894  0.47405  0.32730  1.0000
  H   H844      1.0  0.53668  0.34481  0.53622  1.0000
  C   C869      1.0  0.59746  0.49058  0.26341  1.0000
  C   C870      1.0  0.64877  0.43110  0.17913  1.0000
  H   H845      1.0  0.64847  0.40935  0.10232  1.0000
  H   H846      1.0  0.57464  0.40794  0.40916  1.0000
  H   H847      1.0  0.59887  0.40156  0.55470  1.0000
  C   C871      1.0  0.61068  0.39077  0.53502  1.0000
  H   H848      1.0  0.66170  0.43066  0.07125  1.0000
  S   S306      1.0  0.53097  0.42015  0.88952  1.0000
  C   C872      1.0  0.59364  0.38177  0.49322  1.0000
  H   H849      1.0  0.55289  0.42420  0.77307  1.0000
  H   H850      1.0  0.58436  0.40346  0.48275  1.0000
  C   C873      1.0  0.65603  0.42747  0.10640  1.0000
  H   H851      1.0  0.57891  0.39883  0.54460  1.0000
  C   C874      1.0  0.57316  0.40957  0.37559  1.0000
  H   H852      1.0  0.56134  0.43579  0.96396  1.0000
  C   C875      1.0  0.60859  0.37672  0.03095  1.0000
  S   S307      1.0  0.57742  0.47681  0.15845  1.0000
  C   C876      1.0  0.56590  0.42927  0.80946  1.0000
  C   C877      1.0  0.55681  0.43098  0.78853  1.0000
  H   H853      1.0  0.52307  0.39412  0.17439  1.0000
  N   N68       1.0  0.60336  0.36498  0.05914  1.0000
  H   H854      1.0  0.61177  0.37840  0.99427  1.0000
  H   H855      1.0  0.59218  0.35228  0.03601  1.0000
  H   H856      1.0  0.58855  0.42741  0.71758  1.0000
  C   C878      1.0  0.60154  0.35459  0.03963  1.0000
  H   H857      1.0  0.54542  0.44273  0.77269  1.0000
  H   H858      1.0  0.59031  0.47687  0.32894  1.0000
  H   H859      1.0  0.59225  0.42057  0.57116  1.0000
  H   H860      1.0  0.60287  0.34632  0.06179  1.0000
  C   C879      1.0  0.57159  0.45713  0.85128  1.0000
  H   H861      1.0  0.57517  0.33678  0.57679  1.0000
  N   N69       1.0  0.56643  0.44816  0.82958  1.0000
  H   H862      1.0  0.59795  0.43561  0.53160  1.0000
  C   C880      1.0  0.55260  0.44137  0.78831  1.0000
  H   H863      1.0  0.60811  0.35672  0.00558  1.0000
  H   H864      1.0  0.54974  0.50112  0.04679  1.0000
  C   C881      1.0  0.59187  0.43027  0.56621  1.0000
  C   C882      1.0  0.55747  0.44987  0.80939  1.0000
  H   H865      1.0  0.54170  0.39591  0.68514  1.0000
  C   C883      1.0  0.60558  0.44480  0.59144  1.0000
  H   H866      1.0  0.53265  0.32892  0.53506  1.0000
  C   C884      1.0  0.58945  0.42885  0.64687  1.0000
  H   H867      1.0  0.61082  0.44929  0.55613  1.0000
  N   N70       1.0  0.64153  0.41119  0.16875  1.0000
  N   N71       1.0  0.59571  0.43485  0.60222  1.0000
  H   H868      1.0  0.58245  0.43066  0.56742  1.0000
  H   H869      1.0  0.58170  0.42092  0.65520  1.0000
  H   H870      1.0  0.55385  0.45770  0.81033  1.0000
  C   C885      1.0  0.54190  0.37139  0.82840  1.0000
  C   C886      1.0  0.54693  0.37963  0.88818  1.0000
  C   C887      1.0  0.61263  0.38219  0.51136  1.0000
  H   H871      1.0  0.51167  0.38206  0.85510  1.0000
  H   H872      1.0  0.63117  0.39533  0.22463  1.0000
  H   H873      1.0  0.75494  0.39418  0.08917  1.0000
  C   C888      1.0  0.56127  0.40436  0.32543  1.0000
  C   C889      1.0  0.74736  0.39805  0.09625  1.0000
  H   H874      1.0  0.63590  0.41569  0.23117  1.0000
  H   H875      1.0  0.55609  0.39553  0.39785  1.0000
  H   H876      1.0  0.62530  0.39779  0.17559  1.0000
  S   S308      1.0  0.51586  0.44007  0.85975  1.0000
  C   C890      1.0  0.60405  0.37761  0.49042  1.0000
  C   C891      1.0  0.57405  0.41296  0.99916  1.0000
  H   H877      1.0  0.61762  0.45644  0.61746  1.0000
  C   C892      1.0  0.60947  0.44890  0.62595  1.0000
  C   C893      1.0  0.59319  0.43258  0.68226  1.0000
  H   H878      1.0  0.52972  0.41375  0.99977  1.0000
  Fe  Fe154     1.0  0.56288  0.48516  0.13947  1.0000
  C   C894      1.0  0.60328  0.44269  0.67160  1.0000
  H   H879      1.0  0.63858  0.39206  0.17458  1.0000
  C   C895      1.0  0.56937  0.27360  0.01965  1.0000
  H   H880      1.0  0.58142  0.46139  0.83371  1.0000
  H   H881      1.0  0.60557  0.37117  0.47097  1.0000
  H   H882      1.0  0.55972  0.49018  0.22896  1.0000
  H   H883      1.0  0.58572  0.43533  0.23596  1.0000
  N   N72       1.0  0.57319  0.42570  0.04993  1.0000
  S   S309      1.0  0.59906  0.28172  0.96300  1.0000
  H   H884      1.0  0.55335  0.39875  0.32003  1.0000
  C   C896      1.0  0.58169  0.39560  0.51411  1.0000
  S   S310      1.0  0.51547  0.39144  0.98957  1.0000
  N   N73       1.0  0.52899  0.38178  0.86599  1.0000
  C   C897      1.0  0.53167  0.37586  0.83346  1.0000
  H   H885      1.0  0.58028  0.50109  0.19770  1.0000
  C   C898      1.0  0.51827  0.38645  0.87124  1.0000
  H   H886      1.0  0.53451  0.38872  0.91804  1.0000
  H   H887      1.0  0.52589  0.37451  0.81123  1.0000
  C   C899      1.0  0.54957  0.37331  0.85594  1.0000
  C   C900      1.0  0.53653  0.38382  0.89282  1.0000
  H   H888      1.0  0.55128  0.29775  0.00929  1.0000
  H   H889      1.0  0.59707  0.43441  0.26573  1.0000
  H   H890      1.0  0.57369  0.38867  0.51321  1.0000
  H   H891      1.0  0.60556  0.37983  0.90968  1.0000
  H   H892      1.0  0.61983  0.36755  0.89103  1.0000
  C   C901      1.0  0.60518  0.37540  0.88275  1.0000
  C   C902      1.0  0.61330  0.36858  0.87171  1.0000
  C   C903      1.0  0.59663  0.37657  0.85854  1.0000
  H   H893      1.0  0.59024  0.38180  0.86683  1.0000
  N   N74       1.0  0.59190  0.39032  0.51592  1.0000
  C   C904      1.0  0.52595  0.39399  0.02137  1.0000
  N   N75       1.0  0.61304  0.36323  0.83705  1.0000
  H   H894      1.0  0.63117  0.36205  0.81839  1.0000
  C   C905      1.0  0.59637  0.37105  0.82340  1.0000
  H   H895      1.0  0.52106  0.39657  0.85526  1.0000
  C   C906      1.0  0.60020  0.39474  0.53693  1.0000
  H   H896      1.0  0.58720  0.37850  0.47554  1.0000
  C   C907      1.0  0.60472  0.36441  0.81294  1.0000
  H   H897      1.0  0.58977  0.37191  0.80427  1.0000
  H   H898      1.0  0.60446  0.36018  0.78551  1.0000
  H   H899      1.0  0.66200  0.44472  0.12090  1.0000
  C   C908      1.0  0.62175  0.35622  0.82620  1.0000
  C   C909      1.0  0.51298  0.38962  0.75328  1.0000
  C   C910      1.0  0.64855  0.41537  0.12428  1.0000
  C   C911      1.0  0.65616  0.43535  0.13415  1.0000
  H   H900      1.0  0.61734  0.39463  0.55083  1.0000
  H   H901      1.0  0.62012  0.34807  0.85573  1.0000
  H   H902      1.0  0.62092  0.35278  0.79631  1.0000
  C   C912      1.0  0.63373  0.39849  0.18664  1.0000
  H   H903      1.0  0.64891  0.43706  0.20141  1.0000
  C   C913      1.0  0.64143  0.41894  0.19589  1.0000
  H   H904      1.0  0.62087  0.37927  0.50868  1.0000
  N   N76       1.0  0.52089  0.50340  0.06997  1.0000
  H   H905      1.0  0.51345  0.38443  0.90802  1.0000
  H   H906      1.0  0.51862  0.42890  0.11267  1.0000
  C   C914      1.0  0.54119  0.39787  0.07785  1.0000
  C   C915      1.0  0.56787  0.43279  0.02384  1.0000
  H   H907      1.0  0.53953  0.42169  0.13911  1.0000
  C   C916      1.0  0.56562  0.43019  0.98442  1.0000
  Fe  Fe155     1.0  0.51884  0.42269  0.84430  1.0000
  H   H908      1.0  0.57046  0.45245  0.88762  1.0000
  H   H909      1.0  0.59394  0.42383  0.23286  1.0000
  H   H910      1.0  0.55013  0.28315  0.96190  1.0000
  H   H911      1.0  0.52404  0.37468  0.04968  1.0000
  H   H912      1.0  0.53759  0.37813  0.09933  1.0000
  H   H913      1.0  0.58617  0.27815  0.89361  1.0000
  C   C917      1.0  0.57017  0.41324  0.28860  1.0000
  C   C918      1.0  0.57531  0.42827  0.09171  1.0000
  H   H914      1.0  0.54401  0.41431  0.71372  1.0000
  H   H915      1.0  0.60176  0.50371  0.19718  1.0000
  H   H916      1.0  0.51574  0.44898  0.06121  1.0000
  C   C919      1.0  0.74381  0.26588  0.99326  1.0000
  N   N77       1.0  0.58036  0.42002  0.29515  1.0000
  C   C920      1.0  0.53150  0.40596  0.02089  1.0000
  H   H917      1.0  0.57353  0.43710  0.09510  1.0000
  H   H918      1.0  0.56929  0.42074  0.12212  1.0000
  C   C921      1.0  0.58195  0.41826  0.33793  1.0000
  C   C922      1.0  0.53600  0.38590  0.07722  1.0000
  H   H919      1.0  0.55298  0.38140  0.90907  1.0000
  H   H920      1.0  0.59018  0.42334  0.34306  1.0000
  H   H921      1.0  0.58494  0.42910  0.09121  1.0000
  N   N78       1.0  0.57338  0.48748  0.26271  1.0000
  C   C923      1.0  0.55623  0.29081  0.01224  1.0000
  C   C924      1.0  0.57610  0.48083  0.29927  1.0000
  C   C925      1.0  0.52833  0.38397  0.04915  1.0000
  H   H922      1.0  0.56698  0.46458  0.85091  1.0000
  C   C926      1.0  0.51640  0.41902  0.11859  1.0000
  C   C927      1.0  0.53332  0.50700  0.05711  1.0000
  C   C928      1.0  0.58746  0.26942  0.90981  1.0000
  H   H923      1.0  0.53863  0.47899  0.06519  1.0000
  C   C929      1.0  0.53056  0.41825  0.16529  1.0000
  C   C930      1.0  0.55560  0.28265  0.98568  1.0000
  S   S311      1.0  0.52721  0.42259  0.77226  1.0000
  Fe  Fe156     1.0  0.51411  0.40893  0.94427  1.0000
  H   H924      1.0  0.75077  0.27399  0.97073  1.0000
  C   C931      1.0  0.53367  0.48586  0.06628  1.0000
  C   C932      1.0  0.74271  0.26275  0.04031  1.0000
  C   C933      1.0  0.54184  0.50999  0.14631  1.0000
  H   H925      1.0  0.52811  0.42620  0.17544  1.0000
  C   C934      1.0  0.51871  0.39959  0.15376  1.0000
  H   H926      1.0  0.61832  0.26725  0.88532  1.0000
  H   H927      1.0  0.57359  0.27340  0.10626  1.0000
  S   S312      1.0  0.51054  0.42485  0.96867  1.0000
  C   C935      1.0  0.51472  0.49125  0.08017  1.0000
  C   C936      1.0  0.51077  0.39376  0.13279  1.0000
  S   S313      1.0  0.75271  0.27148  0.06575  1.0000
  C   C937      1.0  0.50847  0.41352  0.09692  1.0000
  H   H928      1.0  0.63354  0.26687  0.88460  1.0000
  H   H929      1.0  0.57452  0.26686  0.02223  1.0000
  H   H930      1.0  0.50661  0.40116  0.79308  1.0000
  H   H931      1.0  0.56187  0.26759  0.96874  1.0000
  H   H932      1.0  0.50682  0.50955  0.10538  1.0000
  H   H933      1.0  0.75433  0.34647  0.97837  1.0000
  H   H934      1.0  0.52556  0.55815  0.19557  1.0000
  S   S314      1.0  0.53120  0.54206  0.13457  1.0000
  C   C938      1.0  0.52163  0.57313  0.22028  1.0000
  C   C939      1.0  0.55223  0.53540  0.12396  1.0000
  H   H935      1.0  0.55641  0.54521  0.11543  1.0000
  H   H936      1.0  0.52837  0.58015  0.19168  1.0000
  C   C940      1.0  0.55959  0.52736  0.12400  1.0000
  H   H937      1.0  0.51549  0.58608  0.25316  1.0000
  C   C941      1.0  0.53961  0.53097  0.13459  1.0000
  C   C942      1.0  0.51996  0.56065  0.22261  1.0000
  H   H938      1.0  0.56933  0.53109  0.11541  1.0000
  C   C943      1.0  0.51446  0.57644  0.25478  1.0000
  H   H939      1.0  0.52460  0.51459  0.15525  1.0000
  H   H940      1.0  0.51458  0.53744  0.22816  1.0000
  C   C944      1.0  0.53436  0.51817  0.14597  1.0000
  Fe  Fe157     1.0  0.51191  0.54104  0.13169  1.0000
  H   H941      1.0  0.51994  0.52168  0.07009  1.0000
  C   C945      1.0  0.50952  0.53872  0.26045  1.0000
  H   H942      1.0  0.53825  0.51663  0.04913  1.0000
  N   N79       1.0  0.51122  0.55177  0.25793  1.0000
  H   H943      1.0  0.51277  0.53412  0.28865  1.0000
  H   H944      1.0  0.50967  0.51370  0.04411  1.0000
  C   C946      1.0  0.55455  0.51464  0.13493  1.0000
  C   C947      1.0  0.51404  0.51255  0.07235  1.0000
  C   C948      1.0  0.50576  0.56730  0.29107  1.0000
  C   C949      1.0  0.51164  0.90581  0.89143  1.0000
  C   C950      1.0  0.51607  0.98259  0.06105  1.0000
  H   H945      1.0  0.51192  0.88770  0.24883  1.0000
  S   S315      1.0  0.51480  0.94648  0.00430  1.0000
  S   S316      1.0  0.53230  0.93152  0.04366  1.0000
  H   H946      1.0  0.59412  0.99618  0.97236  1.0000
  Fe  Fe158     1.0  0.52755  0.94929  0.04807  1.0000
  S   S317      1.0  0.53996  0.96920  0.02974  1.0000
  Fe  Fe159     1.0  0.51798  0.92792  0.00621  1.0000
  H   H947      1.0  0.52163  0.97256  0.11577  1.0000
  C   C951      1.0  0.56762  0.96193  0.03445  1.0000
  S   S318      1.0  0.57454  0.00467  0.10691  1.0000
  S   S319      1.0  0.51273  0.94031  0.11411  1.0000
  H   H948      1.0  0.50575  0.89582  0.84578  1.0000
  H   H949      1.0  0.50795  0.85397  0.25497  1.0000
  H   H950      1.0  0.56146  0.95574  0.02290  1.0000
  H   H951      1.0  0.57928  0.96299  0.12417  1.0000
  H   H952      1.0  0.52117  0.90799  0.87353  1.0000
  H   H953      1.0  0.58675  0.00136  0.01864  1.0000
  N   N80       1.0  0.57993  0.98231  0.02428  1.0000
  C   C952      1.0  0.58248  0.97831  0.06480  1.0000
  S   S320      1.0  0.51964  0.92011  0.94446  1.0000
  S   S321      1.0  0.51768  0.90778  0.16714  1.0000
  H   H954      1.0  0.56333  0.00968  0.03175  1.0000
  C   C953      1.0  0.54747  0.97928  0.05715  1.0000
  C   C954      1.0  0.54986  0.97496  0.09892  1.0000
  C   C955      1.0  0.55748  0.98304  0.11539  1.0000
  C   C956      1.0  0.56259  0.99562  0.09118  1.0000
  C   C957      1.0  0.55951  0.00008  0.05104  1.0000
  C   C958      1.0  0.55215  0.99195  0.03396  1.0000
  H   H955      1.0  0.54636  0.96528  0.11740  1.0000
  H   H956      1.0  0.55978  0.97941  0.14640  1.0000
  H   H957      1.0  0.50800  0.99081  0.01135  1.0000
  H   H958      1.0  0.55034  0.99549  0.00181  1.0000
  C   C959      1.0  0.57002  0.95781  0.07611  1.0000
  H   H959      1.0  0.58799  0.98475  0.07759  1.0000
  H   H960      1.0  0.52504  0.98888  0.04400  1.0000
  Fe  Fe160     1.0  0.51665  0.92249  0.10770  1.0000
  H   H961      1.0  0.57912  0.99841  0.97731  1.0000
  H   H962      1.0  0.50733  0.94146  0.92133  1.0000
  C   C960      1.0  0.57754  0.96602  0.09140  1.0000
  C   C961      1.0  0.58529  0.99518  0.99663  1.0000
  C   C962      1.0  0.57274  0.97427  0.00868  1.0000
  C   C963      1.0  0.50821  0.91022  0.92938  1.0000
  H   H963      1.0  0.57049  0.97745  0.97705  1.0000
  C   C964      1.0  0.50638  0.98357  0.04259  1.0000
  H   H964      1.0  0.50980  0.87239  0.19272  1.0000
  H   H965      1.0  0.56585  0.94833  0.09690  1.0000
  H   H966      1.0  0.53820  0.00902  0.08777  1.0000
  C   C965      1.0  0.51412  0.97348  0.10159  1.0000
  H   H967      1.0  0.77709  0.24751  0.07454  1.0000
  H   H968      1.0  0.76209  0.24935  0.09117  1.0000
  C   C966      1.0  0.77192  0.25435  0.07862  1.0000
  H   H969      1.0  0.75763  0.25927  0.14783  1.0000
  H   H970      1.0  0.77342  0.26097  0.04471  1.0000
  N   N81       1.0  0.77572  0.26109  0.10983  1.0000
  Fe  Fe161     1.0  0.80358  0.41272  0.04948  1.0000
  S   S322      1.0  0.79819  0.42485  0.09239  1.0000
  S   S323      1.0  0.81352  0.41742  0.97432  1.0000
  Fe  Fe162     1.0  0.79284  0.38952  0.13000  1.0000
  S   S324      1.0  0.78683  0.39983  0.17956  1.0000
  S   S325      1.0  0.79336  0.36978  0.14978  1.0000
  Fe  Fe163     1.0  0.78026  0.40973  0.12215  1.0000
  Fe  Fe164     1.0  0.80514  0.41395  0.14613  1.0000
  S   S326      1.0  0.82169  0.42072  0.17196  1.0000
  S   S327      1.0  0.78544  0.39849  0.07521  1.0000
  S   S328      1.0  0.81131  0.40272  0.10038  1.0000
  S   S329      1.0  0.76746  0.30805  0.00818  1.0000
  Fe  Fe165     1.0  0.78981  0.30343  0.08244  1.0000
  S   S330      1.0  0.79079  0.32184  0.03770  1.0000
  S   S331      1.0  0.80458  0.30302  0.12050  1.0000
  Fe  Fe166     1.0  0.77057  0.31606  0.06500  1.0000
  C   C967      1.0  0.90491  0.49409  0.14415  1.0000
  Fe  Fe167     1.0  0.78785  0.31218  0.98504  1.0000
  S   S332      1.0  0.79681  0.32303  0.91062  1.0000
  Fe  Fe168     1.0  0.86706  0.34627  0.26095  1.0000
  S   S333      1.0  0.85028  0.33251  0.31209  1.0000
  S   S334      1.0  0.88364  0.34005  0.23695  1.0000
  Fe  Fe169     1.0  0.85659  0.36747  0.26329  1.0000
  S   S335      1.0  0.83905  0.35547  0.31315  1.0000
  S   S336      1.0  0.85869  0.38783  0.24106  1.0000
  Fe  Fe170     1.0  0.85084  0.34686  0.35092  1.0000
  S   S337      1.0  0.84734  0.34365  0.42883  1.0000
  Fe  Fe171     1.0  0.84007  0.34238  0.26935  1.0000
  S   S338      1.0  0.82252  0.33498  0.25006  1.0000
  S   S339      1.0  0.86824  0.35956  0.30285  1.0000
  S   S340      1.0  0.85693  0.35535  0.21664  1.0000
  Fe  Fe172     1.0  0.86481  0.37549  0.70235  1.0000
  S   S341      1.0  0.88308  0.37840  0.65485  1.0000
  S   S342      1.0  0.85944  0.39278  0.70467  1.0000
  Fe  Fe173     1.0  0.86071  0.34812  0.73655  1.0000
  S   S343      1.0  0.87895  0.34915  0.69155  1.0000
  S   S344      1.0  0.85004  0.32993  0.78891  1.0000
  Fe  Fe174     1.0  0.88606  0.36571  0.71489  1.0000
  S   S345      1.0  0.90268  0.36854  0.74308  1.0000
  Fe  Fe175     1.0  0.87399  0.36174  0.63594  1.0000
  S   S346      1.0  0.87798  0.36287  0.55883  1.0000
  S   S347      1.0  0.86818  0.36368  0.76271  1.0000
  S   S348      1.0  0.85538  0.35980  0.68028  1.0000
  Fe  Fe176     1.0  0.87803  0.43108  0.36840  1.0000
  S   S349      1.0  0.85962  0.42680  0.41697  1.0000
  S   S350      1.0  0.88530  0.41512  0.35992  1.0000
  Fe  Fe177     1.0  0.88104  0.45823  0.34071  1.0000
  S   S351      1.0  0.86239  0.45584  0.38628  1.0000
  S   S352      1.0  0.89221  0.47793  0.30515  1.0000
  Fe  Fe178     1.0  0.86774  0.44311  0.43963  1.0000
  S   S353      1.0  0.86336  0.44283  0.51573  1.0000
  Fe  Fe179     1.0  0.85613  0.43984  0.35891  1.0000
  S   S354      1.0  0.83783  0.43453  0.34245  1.0000
  S   S355      1.0  0.88653  0.44620  0.39515  1.0000
  S   S356      1.0  0.87441  0.44345  0.30938  1.0000
  Fe  Fe180     1.0  0.87593  0.45842  0.82392  1.0000
  S   S357      1.0  0.89188  0.47212  0.76782  1.0000
  S   S358      1.0  0.86066  0.46219  0.87228  1.0000
  Fe  Fe181     1.0  0.88576  0.43708  0.81430  1.0000
  S   S359      1.0  0.90248  0.44881  0.75955  1.0000
  S   S360      1.0  0.88180  0.41659  0.84122  1.0000
  Fe  Fe182     1.0  0.90340  0.46206  0.80280  1.0000
  S   S361      1.0  0.92177  0.46893  0.81729  1.0000
  Fe  Fe183     1.0  0.88965  0.45772  0.72887  1.0000
  S   S362      1.0  0.89297  0.46046  0.65084  1.0000
  S   S363      1.0  0.88760  0.44922  0.85991  1.0000
  S   S364      1.0  0.87283  0.44517  0.78265  1.0000
  H   H971      1.0  0.75733  0.33177  0.99476  1.0000
  S   S365      1.0  0.96968  0.49272  0.09739  1.0000
  H   H972      1.0  0.95181  0.37650  0.07319  1.0000
  S   S366      1.0  0.94500  0.48358  0.06442  1.0000
  H   H973      1.0  0.90009  0.49465  0.17713  1.0000
  Fe  Fe184     1.0  0.95268  0.49837  0.09335  1.0000
  C   C968      1.0  0.78594  0.42418  0.97214  1.0000
  Fe  Fe185     1.0  0.96275  0.47919  0.06155  1.0000
  S   S367      1.0  0.96407  0.45980  0.07831  1.0000
  C   C969      1.0  0.77086  0.26968  0.17234  1.0000
  S   S368      1.0  0.97227  0.49162  0.99069  1.0000
  Fe  Fe186     1.0  0.92851  0.41169  0.00711  1.0000
  S   S369      1.0  0.93962  0.41940  0.93391  1.0000
  S   S370      1.0  0.92056  0.42334  0.04702  1.0000
  Fe  Fe187     1.0  0.93180  0.38651  0.01339  1.0000
  S   S371      1.0  0.94370  0.39231  0.94065  1.0000
  S   S372      1.0  0.92830  0.36747  0.06010  1.0000
  Fe  Fe188     1.0  0.92951  0.40165  0.92377  1.0000
  S   S373      1.0  0.91922  0.40218  0.86826  1.0000
  S   S374      1.0  0.94190  0.40259  0.03105  1.0000
  S   S375      1.0  0.91735  0.39495  0.99618  1.0000
  C   C970      1.0  0.95192  0.45017  0.06810  1.0000
  C   C971      1.0  0.95421  0.44194  0.04309  1.0000
  C   C972      1.0  0.94461  0.43409  0.03497  1.0000
  C   C973      1.0  0.93263  0.43416  0.05297  1.0000
  C   C974      1.0  0.93033  0.44253  0.07749  1.0000
  C   C975      1.0  0.93998  0.45055  0.08500  1.0000
  H   H974      1.0  0.96343  0.44178  0.02931  1.0000
  H   H975      1.0  0.94656  0.42804  0.01454  1.0000
  H   H976      1.0  0.92110  0.44271  0.09113  1.0000
  H   H977      1.0  0.93816  0.45681  0.10477  1.0000
  C   C976      1.0  0.92678  0.47655  0.85668  1.0000
  C   C977      1.0  0.91971  0.48243  0.88166  1.0000
  C   C978      1.0  0.92440  0.48888  0.91029  1.0000
  C   C979      1.0  0.93606  0.48923  0.91581  1.0000
  C   C980      1.0  0.94298  0.48302  0.89194  1.0000
  C   C981      1.0  0.93846  0.47695  0.86210  1.0000
  H   H978      1.0  0.91078  0.48239  0.87771  1.0000
  H   H979      1.0  0.91900  0.49380  0.92776  1.0000
  C   C982      1.0  0.90193  0.48326  0.13172  1.0000
  H   H980      1.0  0.94417  0.47268  0.84251  1.0000
  C   C983      1.0  0.87203  0.44668  0.55369  1.0000
  C   C984      1.0  0.86594  0.44488  0.59986  1.0000
  C   C985      1.0  0.87222  0.44850  0.63058  1.0000
  C   C986      1.0  0.88474  0.45416  0.61550  1.0000
  C   C987      1.0  0.89087  0.45571  0.56957  1.0000
  C   C988      1.0  0.88462  0.45191  0.53903  1.0000
  H   H981      1.0  0.85621  0.44087  0.61192  1.0000
  H   H982      1.0  0.86730  0.44725  0.66561  1.0000
  H   H983      1.0  0.90055  0.46004  0.55735  1.0000
  H   H984      1.0  0.88952  0.45335  0.50383  1.0000
  C   C989      1.0  0.90636  0.48409  0.26283  1.0000
  C   C990      1.0  0.91180  0.49668  0.25343  1.0000
  H   H985      1.0  0.98626  0.45568  0.00629  1.0000
  C   C991      1.0  0.92830  0.49597  0.19266  1.0000
  C   C992      1.0  0.92300  0.48326  0.20185  1.0000
  C   C993      1.0  0.91201  0.47729  0.23722  1.0000
  H   H986      1.0  0.89471  0.47540  0.15490  1.0000
  H   H987      1.0  0.79105  0.41957  0.95164  1.0000
  H   H988      1.0  0.92727  0.47813  0.18153  1.0000
  H   H989      1.0  0.90784  0.46755  0.24410  1.0000
  C   C994      1.0  0.86551  0.39927  0.74314  1.0000
  C   C995      1.0  0.87074  0.41198  0.73102  1.0000
  C   C996      1.0  0.87594  0.41724  0.76082  1.0000
  C   C997      1.0  0.87573  0.40987  0.80322  1.0000
  C   C998      1.0  0.87053  0.39715  0.81540  1.0000
  C   C999      1.0  0.86539  0.39186  0.78543  1.0000
  H   H990      1.0  0.87091  0.41778  0.69835  1.0000
  H   H991      1.0  0.88030  0.42700  0.75032  1.0000
  H   H992      1.0  0.87032  0.39140  0.84818  1.0000
  H   H993      1.0  0.86098  0.38212  0.79573  1.0000
  C   C1000     1.0  0.90633  0.37711  0.78168  1.0000
  C   C1001     1.0  0.89970  0.38501  0.79539  1.0000
  C   C1002     1.0  0.90349  0.39224  0.82328  1.0000
  C   C1003     1.0  0.91380  0.39152  0.83882  1.0000
  C   C1004     1.0  0.92015  0.38329  0.82643  1.0000
  C   C1005     1.0  0.91649  0.37623  0.79788  1.0000
  H   H994      1.0  0.89188  0.38587  0.78329  1.0000
  H   H995      1.0  0.89850  0.39861  0.83214  1.0000
  H   H996      1.0  0.92815  0.38267  0.83754  1.0000
  H   H997      1.0  0.92170  0.37016  0.78773  1.0000
  C   C1006     1.0  0.85571  0.34994  0.46379  1.0000
  C   C1007     1.0  0.86745  0.35797  0.44584  1.0000
  C   C1008     1.0  0.87403  0.36188  0.47534  1.0000
  C   C1009     1.0  0.86896  0.35802  0.52322  1.0000
  C   C1010     1.0  0.85708  0.35030  0.54101  1.0000
  C   C1011     1.0  0.85055  0.34629  0.51155  1.0000
  H   H998      1.0  0.87160  0.36095  0.40928  1.0000
  H   H999      1.0  0.88318  0.36789  0.46092  1.0000
  H   H1000     1.0  0.85298  0.34721  0.57761  1.0000
  H   H1001     1.0  0.84147  0.34014  0.52608  1.0000
  C   C1012     1.0  0.89567  0.34838  0.18713  1.0000
  C   C1013     1.0  0.90498  0.34296  0.17509  1.0000
  C   C1014     1.0  0.91481  0.34899  0.13621  1.0000
  C   C1015     1.0  0.91556  0.36060  0.10869  1.0000
  C   C1016     1.0  0.90631  0.36622  0.12060  1.0000
  C   C1017     1.0  0.89632  0.36008  0.15986  1.0000
  H   H1002     1.0  0.90456  0.33395  0.19579  1.0000
  H   H1003     1.0  0.92185  0.34456  0.12732  1.0000
  H   H1004     1.0  0.90680  0.37518  0.09948  1.0000
  H   H1005     1.0  0.88915  0.36434  0.16890  1.0000
  C   C1018     1.0  0.86644  0.39561  0.27263  1.0000
  C   C1019     1.0  0.86284  0.40541  0.28504  1.0000
  C   C1020     1.0  0.86841  0.41120  0.31282  1.0000
  C   C1021     1.0  0.87793  0.40753  0.32687  1.0000
  C   C1022     1.0  0.88175  0.39793  0.31349  1.0000
  C   C1023     1.0  0.87601  0.39198  0.28639  1.0000
  H   H1006     1.0  0.85548  0.40831  0.27433  1.0000
  H   H1007     1.0  0.86516  0.41836  0.32385  1.0000
  H   H1008     1.0  0.88920  0.39515  0.32382  1.0000
  H   H1009     1.0  0.87921  0.38480  0.27524  1.0000
  C   C1024     1.0  0.80971  0.31265  0.15412  1.0000
  C   C1025     1.0  0.82143  0.31383  0.16006  1.0000
  C   C1026     1.0  0.82561  0.32079  0.18824  1.0000
  C   C1027     1.0  0.81801  0.32644  0.21215  1.0000
  C   C1028     1.0  0.80624  0.32513  0.20658  1.0000
  C   C1029     1.0  0.80219  0.31849  0.17736  1.0000
  H   H1010     1.0  0.82734  0.30930  0.14276  1.0000
  H   H1011     1.0  0.83464  0.32156  0.19212  1.0000
  H   H1012     1.0  0.80007  0.32909  0.22552  1.0000
  C   C1030     1.0  0.81206  0.32535  0.88007  1.0000
  C   C1031     1.0  0.81738  0.33542  0.84068  1.0000
  C   C1032     1.0  0.82918  0.33715  0.81336  1.0000
  C   C1033     1.0  0.83562  0.32861  0.82456  1.0000
  C   C1034     1.0  0.83039  0.31865  0.86438  1.0000
  C   C1035     1.0  0.81870  0.31710  0.89242  1.0000
  H   H1013     1.0  0.81227  0.34179  0.83074  1.0000
  H   H1014     1.0  0.83311  0.34483  0.78273  1.0000
  H   H1015     1.0  0.83528  0.31196  0.87312  1.0000
  H   H1016     1.0  0.81463  0.30927  0.92248  1.0000
  C   C1036     1.0  0.82607  0.43043  0.94566  1.0000
  C   C1037     1.0  0.83299  0.43120  0.90193  1.0000
  C   C1038     1.0  0.84355  0.44093  0.87912  1.0000
  C   C1039     1.0  0.84709  0.45019  0.89926  1.0000
  C   C1040     1.0  0.83987  0.44970  0.94222  1.0000
  C   C1041     1.0  0.82948  0.43975  0.96572  1.0000
  H   H1017     1.0  0.83031  0.42413  0.88588  1.0000
  H   H1018     1.0  0.84888  0.44133  0.84570  1.0000
  H   H1019     1.0  0.84252  0.45688  0.95788  1.0000
  H   H1020     1.0  0.82419  0.43927  0.99936  1.0000
  C   C1042     1.0  0.82589  0.42445  0.22006  1.0000
  C   C1043     1.0  0.81746  0.42508  0.25812  1.0000
  C   C1044     1.0  0.82132  0.42834  0.29465  1.0000
  C   C1045     1.0  0.83365  0.43091  0.29414  1.0000
  C   C1046     1.0  0.84206  0.43004  0.25648  1.0000
  C   C1047     1.0  0.83821  0.42688  0.21976  1.0000
  H   H1021     1.0  0.80797  0.42329  0.25912  1.0000
  H   H1022     1.0  0.81469  0.42894  0.32350  1.0000
  H   H1023     1.0  0.85155  0.43186  0.25550  1.0000
  H   H1024     1.0  0.84486  0.42641  0.19073  1.0000
  H   H1025     1.0  0.92154  0.44080  0.96369  1.0000
  C   C1048     1.0  0.78402  0.35868  0.13293  1.0000
  C   C1049     1.0  0.77345  0.36042  0.12216  1.0000
  C   C1050     1.0  0.76610  0.35125  0.10957  1.0000
  C   C1051     1.0  0.76951  0.34052  0.10621  1.0000
  C   C1052     1.0  0.78003  0.33878  0.11740  1.0000
  C   C1053     1.0  0.78719  0.34778  0.13112  1.0000
  H   H1026     1.0  0.77083  0.36872  0.12427  1.0000
  S   S376      1.0  0.76171  0.41410  0.13130  1.0000
  H   H1027     1.0  0.78260  0.33043  0.11602  1.0000
  H   H1028     1.0  0.79528  0.34630  0.13989  1.0000
  N   N82       1.0  0.91384  0.41458  0.72403  1.0000
  C   C1054     1.0  0.92170  0.40760  0.71655  1.0000
  C   C1055     1.0  0.90453  0.41410  0.70420  1.0000
  C   C1056     1.0  0.92006  0.39953  0.68987  1.0000
  C   C1057     1.0  0.90249  0.40598  0.67802  1.0000
  C   C1058     1.0  0.91031  0.39862  0.67100  1.0000
  H   H1029     1.0  0.92901  0.40788  0.73263  1.0000
  H   H1030     1.0  0.89853  0.41989  0.70911  1.0000
  H   H1031     1.0  0.92594  0.39356  0.68570  1.0000
  H   H1032     1.0  0.89479  0.40527  0.66393  1.0000
  H   H1033     1.0  0.90869  0.39202  0.65181  1.0000
  N   N83       1.0  0.86235  0.40592  0.57462  1.0000
  C   C1059     1.0  0.85909  0.39334  0.59051  1.0000
  C   C1060     1.0  0.86983  0.41183  0.53143  1.0000
  C   C1061     1.0  0.86330  0.38634  0.56282  1.0000
  C   C1062     1.0  0.87421  0.40510  0.50275  1.0000
  C   C1063     1.0  0.87096  0.39227  0.51879  1.0000
  C   C1064     1.0  0.85807  0.41322  0.60407  1.0000
  H   H1034     1.0  0.85327  0.38862  0.62490  1.0000
  H   H1035     1.0  0.87249  0.42181  0.51902  1.0000
  H   H1036     1.0  0.86073  0.37637  0.57569  1.0000
  H   H1037     1.0  0.88014  0.40981  0.46843  1.0000
  H   H1038     1.0  0.87444  0.38690  0.49739  1.0000
  H   H1039     1.0  0.85109  0.40737  0.63618  1.0000
  H   H1040     1.0  0.86578  0.41833  0.61370  1.0000
  H   H1041     1.0  0.85390  0.41986  0.58613  1.0000
  N   N84       1.0  0.81123  0.36676  0.22470  1.0000
  C   C1065     1.0  0.82354  0.36868  0.21287  1.0000
  C   C1066     1.0  0.80631  0.37625  0.22954  1.0000
  C   C1067     1.0  0.83129  0.38038  0.20501  1.0000
  C   C1068     1.0  0.81379  0.38805  0.22222  1.0000
  C   C1069     1.0  0.82637  0.39013  0.20978  1.0000
  C   C1070     1.0  0.80339  0.35441  0.23225  1.0000
  H   H1042     1.0  0.82740  0.36113  0.20903  1.0000
  H   H1043     1.0  0.79655  0.37479  0.23791  1.0000
  H   H1044     1.0  0.84105  0.38189  0.19498  1.0000
  H   H1045     1.0  0.80987  0.39560  0.22533  1.0000
  H   H1046     1.0  0.83227  0.39930  0.20340  1.0000
  H   H1047     1.0  0.80609  0.35114  0.20180  1.0000
  H   H1048     1.0  0.80421  0.34790  0.26267  1.0000
  H   H1049     1.0  0.79369  0.35427  0.23725  1.0000
  N   N85       1.0  0.87980  0.47823  0.50388  1.0000
  C   C1071     1.0  0.87531  0.47590  0.46895  1.0000
  C   C1072     1.0  0.89204  0.48257  0.49688  1.0000
  C   C1073     1.0  0.88315  0.47786  0.42572  1.0000
  C   C1074     1.0  0.90015  0.48445  0.45420  1.0000
  C   C1075     1.0  0.89564  0.48209  0.41839  1.0000
  C   C1076     1.0  0.87140  0.47667  0.54834  1.0000
  H   H1050     1.0  0.86561  0.47236  0.47448  1.0000
  H   H1051     1.0  0.89560  0.48438  0.52466  1.0000
  H   H1052     1.0  0.87960  0.47614  0.39791  1.0000
  H   H1053     1.0  0.90986  0.48771  0.44892  1.0000
  H   H1054     1.0  0.90176  0.48353  0.38491  1.0000
  H   H1055     1.0  0.86321  0.46882  0.55609  1.0000
  H   H1056     1.0  0.87568  0.47455  0.57650  1.0000
  H   H1057     1.0  0.86856  0.48521  0.54839  1.0000
  C   C1077     1.0  0.91551  0.42287  0.75256  1.0000
  Fe  Fe189     1.0  0.95275  0.40949  0.95744  1.0000
  H   H1058     1.0  0.90656  0.42308  0.77285  1.0000
  H   H1059     1.0  0.92066  0.43234  0.73075  1.0000
  H   H1060     1.0  0.92044  0.41968  0.77749  1.0000
  H   H1061     1.0  0.83754  0.37860  0.33080  1.0000
  H   H1062     1.0  0.82461  0.39254  0.31746  1.0000
  H   H1063     1.0  0.85393  0.37415  0.35886  1.0000
  H   H1064     1.0  0.89645  0.41258  0.12346  1.0000
  C   C1078     1.0  0.99105  0.46540  0.99470  1.0000
  C   C1079     1.0  0.83716  0.38534  0.34959  1.0000
  C   C1080     1.0  0.82983  0.39320  0.34185  1.0000
  S   S377      1.0  0.76944  0.29790  0.11241  1.0000
  H   H1065     1.0  0.92068  0.41489  0.14294  1.0000
  C   C1081     1.0  0.85889  0.42798  0.94408  1.0000
  N   N86       1.0  0.84402  0.38640  0.37940  1.0000
  C   C1082     1.0  0.85134  0.37783  0.38833  1.0000
  H   H1066     1.0  0.85993  0.38248  0.39412  1.0000
  H   H1067     1.0  0.84611  0.36993  0.41883  1.0000
  C   C1083     1.0  0.91546  0.41817  0.16841  1.0000
  C   C1084     1.0  0.89681  0.40689  0.15660  1.0000
  H   H1068     1.0  0.83625  0.41013  0.41324  1.0000
  H   H1069     1.0  0.88740  0.40170  0.17794  1.0000
  S   S378      1.0  0.94144  0.50460  0.14744  1.0000
  H   H1070     1.0  0.98909  0.46812  0.09543  1.0000
  C   C1085     1.0  0.82939  0.40203  0.36543  1.0000
  N   N87       1.0  0.90305  0.41483  0.17961  1.0000
  C   C1086     1.0  0.92162  0.42608  0.18883  1.0000
  N   N88       1.0  0.84909  0.41781  0.96091  1.0000
  C   C1087     1.0  0.86108  0.43621  0.96981  1.0000
  C   C1088     1.0  0.84369  0.39510  0.40245  1.0000
  H   H1071     1.0  0.82371  0.40816  0.36004  1.0000
  H   H1072     1.0  0.90167  0.39997  0.14964  1.0000
  C   C1089     1.0  0.83640  0.40307  0.39568  1.0000
  H   H1073     1.0  0.84920  0.39603  0.42575  1.0000
  C   C1090     1.0  0.89651  0.41940  0.21025  1.0000
  H   H1074     1.0  0.88669  0.41701  0.21832  1.0000
  C   C1091     1.0  0.78538  0.43985  0.01118  1.0000
  C   C1092     1.0  0.90235  0.42715  0.23195  1.0000
  H   H1075     1.0  0.89709  0.43049  0.25718  1.0000
  H   H1076     1.0  0.79020  0.44747  0.02086  1.0000
  C   C1093     1.0  0.91500  0.43052  0.22105  1.0000
  H   H1077     1.0  0.89621  0.34850  0.38489  1.0000
  H   H1078     1.0  0.88188  0.33898  0.46223  1.0000
  C   C1094     1.0  0.87975  0.33605  0.43363  1.0000
  C   C1095     1.0  0.88790  0.34148  0.38999  1.0000
  H   H1079     1.0  0.88265  0.32888  0.84989  1.0000
  H   H1080     1.0  0.93148  0.42889  0.17914  1.0000
  H   H1081     1.0  0.86126  0.31210  0.49913  1.0000
  H   H1082     1.0  0.87327  0.32969  0.81103  1.0000
  H   H1083     1.0  0.89143  0.34191  0.31881  1.0000
  N   N89       1.0  0.86910  0.32742  0.43997  1.0000
  C   C1096     1.0  0.86069  0.32162  0.48587  1.0000
  C   C1097     1.0  0.88523  0.33780  0.35298  1.0000
  H   H1084     1.0  0.85122  0.32133  0.48492  1.0000
  S   S379      1.0  0.97342  0.41876  0.93699  1.0000
  C   C1098     1.0  0.87934  0.33518  0.82636  1.0000
  H   H1085     1.0  0.91964  0.43662  0.23733  1.0000
  H   H1086     1.0  0.78727  0.36557  0.02305  1.0000
  H   H1087     1.0  0.88717  0.34138  0.79746  1.0000
  H   H1088     1.0  0.86268  0.32690  0.51020  1.0000
  C   C1099     1.0  0.87448  0.32883  0.35996  1.0000
  C   C1100     1.0  0.86642  0.32378  0.40384  1.0000
  H   H1089     1.0  0.88899  0.35664  0.83907  1.0000
  H   H1090     1.0  0.80497  0.35998  0.98190  1.0000
  N   N90       1.0  0.87294  0.34231  0.85112  1.0000
  C   C1101     1.0  0.87926  0.35330  0.85424  1.0000
  C   C1102     1.0  0.78613  0.35972  0.00079  1.0000
  H   H1091     1.0  0.85794  0.31702  0.40875  1.0000
  H   H1092     1.0  0.87239  0.32589  0.33133  1.0000
  C   C1103     1.0  0.79605  0.35654  0.97789  1.0000
  C   C1104     1.0  0.86074  0.33778  0.87215  1.0000
  H   H1093     1.0  0.85580  0.32885  0.87124  1.0000
  H   H1094     1.0  0.87830  0.36935  0.87731  1.0000
  C   C1105     1.0  0.87325  0.36048  0.87611  1.0000
  H   H1095     1.0  0.00445  0.48805  0.03286  1.0000
  C   C1106     1.0  0.77461  0.35484  0.99653  1.0000
  H   H1096     1.0  0.96605  0.38708  0.11346  1.0000
  C   C1107     1.0  0.86070  0.35621  0.89567  1.0000
  C   C1108     1.0  0.85440  0.34473  0.89406  1.0000
  C   C1109     1.0  0.79437  0.34866  0.95074  1.0000
  H   H1097     1.0  0.80187  0.43746  0.97198  1.0000
  C   C1110     1.0  0.91446  0.50403  0.11459  1.0000
  C   C1111     1.0  0.99557  0.43150  0.94335  1.0000
  S   S380      1.0  0.78812  0.29376  0.02724  1.0000
  H   H1098     1.0  0.79310  0.31760  0.17396  1.0000
  H   H1099     1.0  0.96158  0.39990  0.08360  1.0000
  H   H1100     1.0  0.00308  0.46398  0.07590  1.0000
  H   H1101     1.0  0.98868  0.45433  0.07860  1.0000
  H   H1102     1.0  0.85588  0.36175  0.91215  1.0000
  H   H1103     1.0  0.84464  0.34124  0.90915  1.0000
  C   C1112     1.0  0.96851  0.39469  0.08139  1.0000
  C   C1113     1.0  0.78269  0.34384  0.94768  1.0000
  H   H1104     1.0  0.78137  0.33742  0.92769  1.0000
  H   H1105     1.0  0.79454  0.26502  0.07575  1.0000
  C   C1114     1.0  0.90838  0.48257  0.08967  1.0000
  C   C1115     1.0  0.78319  0.27476  0.16609  1.0000
  C   C1116     1.0  0.79175  0.27292  0.13156  1.0000
  H   H1106     1.0  0.80197  0.34595  0.93325  1.0000
  H   H1107     1.0  0.90619  0.47420  0.07952  1.0000
  H   H1108     1.0  0.83691  0.40585  0.93808  1.0000
  C   C1117     1.0  0.97897  0.39072  0.96493  1.0000
  N   N91       1.0  0.77300  0.34694  0.97046  1.0000
  H   H1109     1.0  0.98637  0.39521  0.93395  1.0000
  Fe  Fe190     1.0  0.76759  0.28995  0.05302  1.0000
  H   H1110     1.0  0.90752  0.50203  0.27275  1.0000
  H   H1111     1.0  0.90495  0.42140  0.98871  1.0000
  N   N92       1.0  0.90472  0.42124  0.92088  1.0000
  H   H1112     1.0  0.76687  0.35696  0.01586  1.0000
  H   H1113     1.0  0.83724  0.42147  0.06432  1.0000
  H   H1114     1.0  0.86847  0.44463  0.95522  1.0000
  H   H1115     1.0  0.97735  0.40107  0.07863  1.0000
  S   S381      1.0  0.94205  0.49867  0.94848  1.0000
  H   H1116     1.0  0.92270  0.49214  0.02802  1.0000
  N   N93       1.0  0.99542  0.47111  0.02389  1.0000
  H   H1117     1.0  0.96952  0.42169  0.03011  1.0000
  C   C1118     1.0  0.97872  0.39488  0.00362  1.0000
  C   C1119     1.0  0.78783  0.26607  0.10341  1.0000
  C   C1120     1.0  0.91818  0.43702  0.93869  1.0000
  H   H1118     1.0  0.99894  0.43172  0.90803  1.0000
  C   C1121     1.0  0.98720  0.43087  0.03442  1.0000
  C   C1122     1.0  0.79203  0.43422  0.98365  1.0000
  H   H1119     1.0  0.83364  0.40731  0.01698  1.0000
  C   C1123     1.0  0.98314  0.42597  0.96620  1.0000
  C   C1124     1.0  0.85328  0.43383  0.01337  1.0000
  Fe  Fe191     1.0  0.97831  0.50580  0.02689  1.0000
  H   H1120     1.0  0.98383  0.43059  0.06980  1.0000
  S   S382      1.0  0.76099  0.32980  0.08517  1.0000
  C   C1125     1.0  0.76725  0.26285  0.14364  1.0000
  C   C1126     1.0  0.95963  0.37590  0.00527  1.0000
  C   C1127     1.0  0.92327  0.44302  0.89227  1.0000
  C   C1128     1.0  0.99404  0.46407  0.07083  1.0000
  N   N94       1.0  0.77300  0.43567  0.02642  1.0000
  C   C1129     1.0  0.97902  0.42578  0.01196  1.0000
  H   H1121     1.0  0.85467  0.44030  0.03318  1.0000
  C   C1130     1.0  0.99837  0.48464  0.93478  1.0000
  H   H1122     1.0  0.92261  0.44304  0.82415  1.0000
  H   H1123     1.0  0.98611  0.40253  0.00204  1.0000
  C   C1131     1.0  0.84151  0.41529  0.00389  1.0000
  C   C1132     1.0  0.99964  0.43642  0.01154  1.0000
  H   H1124     1.0  0.86480  0.43004  0.90980  1.0000
  Fe  Fe192     1.0  0.95471  0.49692  0.99523  1.0000
  C   C1133     1.0  0.84682  0.40939  0.93318  1.0000
  H   H1125     1.0  0.93057  0.45146  0.88104  1.0000
  H   H1126     1.0  0.85099  0.41416  0.89604  1.0000
  H   H1127     1.0  0.89508  0.40359  0.96780  1.0000
  N   N95       1.0  0.96907  0.38978  0.04196  1.0000
  H   H1128     1.0  0.80135  0.27714  0.12576  1.0000
  H   H1129     1.0  0.85069  0.40157  0.94272  1.0000
  H   H1130     1.0  0.78614  0.28044  0.18703  1.0000
  H   H1131     1.0  0.76412  0.27135  0.19825  1.0000
  C   C1134     1.0  0.84348  0.42327  0.03076  1.0000
  H   H1132     1.0  0.88592  0.41221  0.94133  1.0000
  C   C1135     1.0  0.92267  0.50253  0.21896  1.0000
  C   C1136     1.0  0.76076  0.34105  0.96944  1.0000
  H   H1133     1.0  0.90604  0.42356  0.85044  1.0000
  H   H1134     1.0  0.76848  0.41211  0.97941  1.0000
  H   H1135     1.0  0.95204  0.48336  0.89487  1.0000
  H   H1136     1.0  0.96926  0.37806  0.93568  1.0000
  C   C1137     1.0  0.96933  0.38118  0.96581  1.0000
  C   C1138     1.0  0.95959  0.38041  0.04315  1.0000
  C   C1139     1.0  0.90882  0.42606  0.95253  1.0000
  H   H1137     1.0  0.89532  0.40480  0.90978  1.0000
  C   C1140     1.0  0.90944  0.42729  0.87532  1.0000
  C   C1141     1.0  0.91885  0.43821  0.86028  1.0000
  C   C1142     1.0  0.89472  0.40991  0.93594  1.0000
  C   C1143     1.0  0.77331  0.42001  0.98764  1.0000
  H   H1138     1.0  0.95197  0.36860  0.00616  1.0000
  C   C1144     1.0  0.00276  0.49040  0.96483  1.0000
  C   C1145     1.0  0.00372  0.43675  0.96561  1.0000
  C   C1146     1.0  0.91777  0.49275  0.06068  1.0000
  C   C1147     1.0  0.76693  0.42599  0.01450  1.0000
  H   H1139     1.0  0.76977  0.44171  0.08591  1.0000
  C   C1148     1.0  0.76632  0.44174  0.05551  1.0000
  H   H1140     1.0  0.75786  0.35255  0.10175  1.0000
  H   H1141     1.0  0.76735  0.45136  0.03609  1.0000
  C   C1149     1.0  0.00117  0.48346  0.00957  1.0000
  H   H1142     1.0  0.76079  0.34000  0.93501  1.0000
  N   N96       1.0  0.92079  0.50325  0.07359  1.0000
  H   H1143     1.0  0.99938  0.48996  0.90021  1.0000
  H   H1144     1.0  0.98883  0.46748  0.92702  1.0000
  C   C1150     1.0  0.99245  0.47206  0.94976  1.0000
  H   H1145     1.0  0.75711  0.42264  0.02654  1.0000
  H   H1146     1.0  0.75648  0.43678  0.06887  1.0000
  H   H1147     1.0  0.93613  0.51155  0.01450  1.0000
  H   H1148     1.0  0.99583  0.52034  0.09791  1.0000
  S   S383      1.0  0.99853  0.51744  0.00478  1.0000
  C   C1151     1.0  0.00511  0.52495  0.07769  1.0000
  H   H1149     1.0  0.92667  0.51231  0.21219  1.0000
  H   H1150     1.0  0.91702  0.51227  0.12519  1.0000
  S   S384      1.0  0.96156  0.51239  0.02455  1.0000
  H   H1151     1.0  0.93680  0.51749  0.06217  1.0000
  C   C1152     1.0  0.93057  0.51394  0.04306  1.0000
  H   H1152     1.0  0.92673  0.52132  0.02815  1.0000
