data_image0
_chemical_formula_structural       HFeCSC2SFeS2FeSHFeSFeCS3CNFeS2H3C2FeS3HC3SHC8H3C6H3C6H4C6H6C4H9NH2CSNHCHC3H2Fe2H2SCH2CHNCH2CH2CH4SCHCH2NC5SH2NCHCHCH3CHFeCHCH2C5H3SFeS2FeSFeS3CSNFeSHFeS2FeS2FeSFeS3CSHFeS2FeSFeSCFeS2CH2FeSCSHSH2CH2FeS2FeS2HC5H5CHS2HC6H6C7HNHC6H4C6H4C6H4C6H4CHSC3H6C7H2C3H2CH2CNC6HCH6NC6H9NHC4SHFeC4HSC2HSCHFeCH3S2NHC4H4SH2C4FeH2CHNC2H3CH7CNH2C2H3CH5C2HCH3SCH4FeS2FeS2FeSFeS3FeS2H4CFeSHSCHCSFeS2FeSFeSHSH4SNHSCSCFeS2FeS2FeSFeS3H2C2HCHCHC2HC4H5C7H4C6H4C6H6CNCHC4FeH4SC6H4C6H4CHC4FeNH3C5H4NC6H11CNC6H3CHCSHC2H3CH3C3HCNC6H8CSC3NHCH2SHC2HFeSC2H2CH2C2H2FeH3FeHSHCH3FeCHC2FeS2FeS2FeSFeS3C2S3FeS2CFeS2C7H4C6H4C6H5C6H3CHSHCH2CNH5CHCSCNHC6H4CH4C7H2NCH4NHC2HCSFeC2H2CH3NCHC2HNCFeC2HNCH2CH2SCHSHCHC2H3CHCSC4HSHC5FeCSH5CH2CSH2SC2SC3HCH2CH2FeS2FeS2FeS2FeS2FeSFeS3FeS2FeSFeSFeS2FeHCFeS2Fe2S3FeS3FeS3HCHC6H4CH2C6H4C6H4C6H4C6H4CH3C8H4C6H3CHNCHCFeCH3NCH3NC6H8NCH3SHCH2CHCHNC6H5C2SH4CSH2NH2SC2HC3HCHFeNCHCNC2H2C2H6FeCH4NC6H3CHC2H2C2H5SCNH2C4H2C2HC3H3CH2SCH4CH2SC2HC4HSCHSFeSHNSCSCFeSHC2FeCFeSFeS2FeS3CHCHCH2C7H3C3H2C4H2SC6H7CHC3HCHNCHCSH2CHCH3CH2SHCH2CH3C8SC2HC2FeHCH2NSCH3CH2NHNH2CH2CH4C4H3CSHCHSCH2C2SFeS2CFeSCSCH2FeSH2SHCFe2S2FeS2FeSFeS3FeS2FeS2C6H5C4H3C6H4CFeHC6H2C6H4C6H4CSH2FeCNC3HCH2C3FeH3SH3SH2C2HNHSNC3H2C3HCH2CSH2CSH2C2HCNCNC6H2SH5NC6H8NC2H2CH5CH3C3H3CHSC2H2SFeCHCFeS2FeS2FeSFeS3CSFeS2FeS2FeSFeS3CHCHSFeS2FeSNFeSFeS3HCNH2CHSC3HC3SFeC2HC4H6C6H4C5H2C2H2C6H4C6H4C6H4C4HCHCH2CH5NC6H8CH2C2H2C5H2C3H2CHC3HCHSCH3C2NC6H2CH5NC6H8NC2HCHCFeHSH6CHC3SNHSHCHC2HCNH2C2H4NHFeCFe2CH2S2H3FeS2FeHSHFeS3FeS2FeS2FeSFeNS2HFeS2FeSHSH2FeS2FeSCSCHSFeH3FeS2FeS2Fe2S2HCH2C2H2CSHC6H6CSC2SHCHC6H3C4HC6H4SNHCHC3HC2H3C8H3C6H4SHNC5HC2H2CHNCH3C3NC6H9CS2HCHC2HCHC3SCH2C2H3CHNC6H8NC6H4FeH2CH2CHCH2C5FeH4CH5N2C2FeH2CH3C2HSHCH3C2H3SCHCHCHFeSNFeS2FeSFeS3H2CHFeHC5SHCS2FeSFeS2Fe2HS2FeH2CH3CHFeH2C7H3C2HC2H2CS2CFeHSHC3HC2HCH2C6H4C3H2CH8C3HC4HCHC3H2SCHNC2SHCNHCN2HCH8S2CSC2SC2FeC2H4NCHS2FeSH4C2SH3CNC4H3CHCSC8SCH2C3FeCHSHCHC2NH3CHCHSCFeC2HCH2C2H2C2H2S2Fe2SH2FeS2FeS2FeSFeHS2FeHFeS2FeSFeS2FeS2FeS2FeSFeS3HSHFeCSC2HSCSCSHNC6FeCH2C6H4C5H5C7H4C6H4C7H4NH2CH4CH3C7HC7NHNH4C2HC4H6CHCH5C2HCNH6CHNCNHCHCHCNC4HNCSC4H2SCHCH8SHN2SC2H2CHSCHSH3CHFeCSH2CH4C2HSCSCHC2SFeS2C3HFeS2FeS2FeS2CFeSHSHFeS2FeS2FeSFeS4C6H5C4FeC6H4FeC4H3CH2CH2NFeCHFeH2C6H4SHCSH3SHCHC2SC2SHCH2N2H4C3H2CHCHCHCH2SH4SFeHCH3CH4C3H2FeSHSCNC5H4FeCHC2HFeCHCNH3NH3CNSCFeCHCHCHFeHNC4HCHSFeHC2H2C4H2CS2H2CHC7HCSC2H2SH4CNCHSH3FeSCFeS2FeSFeS3N2SH3FeSCFeSH2CHFeS2FeS3FeCFeHFeSHS2FeSHFeS2H2CNHSCFeNHSCHC6H5C3HFeHCHSH2C2H3C6H4CH3FeH2NH2C6H4C6H4C6H4C2H2CH4SHCH3CHCHCSCHSCSHFe2CHFeSHCNC3HSH3CH3C2HC2H2FeCH2CNC5H2CSH2C2FeH3C2SNSC3NC4HCH4C2FeSCSCH2CHC2SH2C2H2CH2FeHCSHS2C3HCHC2H2Fe2SFeS2FeSFeS3FeS2FeS2FeSFeS3FeSH2SHFeHSFeS2FeS2FeSFeS3HCFeS2H2SC6H4C7H3C6H4CH2C6H2NHC8H5FeSH2CHSC6H4C6H3C2H2CH2C5HCH2CHCH4NC2FeCH5SNCHCFeC2H2CHC2HC2H2SHC3NC2HSN2SC2H2SH2CH2NC6H10SH3CNC6H10NHC2SH3CHC2HSC3HC2H3CHC4H2C3HNC2SHCHCHSFeS2FeS2FeS2FeSFeS3FeHFeS2FeSFeS4CHFeS2C2SC2HSCH2C3H3C2H3CH2NHNHC6H2CHC6H4CHC3H2C6H4C6H7SH2CH2SH2C4SH2CH2NHC3H2C2HC3HSHCSCHCHNC6H4FeH2FeH3CFeCH2CSH2CH3CH3C2HCHC5Fe2CNCHCSH3C2H2NCHFeHCHSHFeSHFeS2FeCFeSCSFeS2FeS2FeSFeS3H2SFeS2HCNH2CHFeH2FeSFeS3HSFeS2CHFeS2CH3CH3CFeC3HC2SC3HFeCH2CHCH2C5H2C6H4C6H4C6H8CNC6H4CH2SC2FeCSHC2H2NC6H8NC6H4CH3SH2CHNC3SC2H2CH3SHCNHC2HNCHCH3CHC3HC2H3C4H3CS2CHC3SFeH2CNSCFeCH5SH2CHCHFeC2H3FeS2FeS2FeSFeS3H4CSFeS2FeSFeSFeS3FeS2FeS2FeSFeS3FeSFeS2Fe2S3CHCH2C7H5C2H2C2HC7H4CSH2CSHNC4NCH3C7H4C6H5CH2C3H2CHCH2C3HC2HCH3NCHCSH5C4NC6H9C3HC2HCHC2HC2HCSCNHC2H2CH2CNSH3CHC3SHCSH4NC6H8NC6H9SC5HC3H3CHC2HCHCHFeHCH2SCHFeS2FeSCSFeS2FeS2FeSFeS3H4Fe2HS2CSNHCFeSH4NHC2HCHCH3CH2CHC6H4CHC2HC2HCHC3HC2HCH2C6H3C6H4C2H2C2H2NH3CHC2H2FeHCHCHSC5HCHCH2CSNHC2HC2H3CFeCH2C2SCHC2HCSCHSCFeCNCH3CNCHSHC2HNH2Fe2S2FeS2FeSFeS3H2FeCSC2H3C2SCFeS2CSFeSFeCSHFeS2FeS2CNHC9H7SCH2C6H4C6H4C6H4C3HC2H4C6HCH2NH3SC2HCHCHCHCH4CSCSH2C2H2CHCNHC2NC6H5CH3NCNH4C2HCHCNFeNC2HCH4CHCHFeH3NC2H3SHCH3CNH3FeSH2CHCSHCHCHSFeS2FeS2FeSFeS4C3HC2HSCHFeHFeS2FeSFeHS2FeSHFeS2FeSFeS3HCHCHCSHC2HC2H2CHC7H4C6H3C6H8C6H4C3H2CHFeHC6H4C7H6CNHC3HNC4H5CHSCNCSCHCS2CHFeHCHCH2NCH3C4H2C2H3SH3CH2CH2CFeC4HCHCH2SHCH2NSH3S2CSH2FeN2C3HCHCHC2H2C2HCHNH2C2HC2SFeH2CFeH6CHC2HFeC2SH2S2HCSFeS2FeSFeS3CHCFeCFeHC2HFeHFeC6H2NHC4HCH3C6H2CHCSHC3HCHCFeSH4S2HC4H5CHSNCHC2HC2HC2NCH2SHC2H2C2H6CS2HFeS2C3FeSNCSHFeS2FeS2FeSFeS3H4FeH2SC3FeS2FeS2FeSFeS2H2CFeS2FeS3HFeS2FeS2FeSFeS3C6H4C6H5SFeC7H5C5H4C2HC6H4C4NCH2CHC6H4C6H4C6H4CSH2C2HCH4FeCNHCHCHCFeH3C3SCNC6H10CH3C2HSHCH3CNSCH6NCHCH5C2H2CH2CHC2HC2HC5NHCHNFeCHC3HNC6H6CH7CHC2HSCHSHC2FeS2FeS2Fe2S3FeS2FeSHCHFeS2FeSCFeSFeS3H2FeS2FeS2FeSFeS3FeS2C6H4C2HCH2SC6H4NH2NH2CHSC4H4C4HCH2C4NH5C6H4C6H5CSC4Fe2NC6H8NC6H7SCHCSC2HC3H2CN3C2H2CHS2H3CHCNC6H7CHC3FeH2SHNHSHNC3HCHCHCH3CH2C4H2CHC2NH2C7HC2HSH4CH2C3HC2SHCH2CH2C3H8CHCH2C3HCHCH8FeS2NHFeSCSFeS2FeS2FeSFeS3H2CHCSHC2HCFeS2FeS2FeCFeS3C5H4CHC7H4SC2H2NC6H4CHSHCH2C5H2C6H5CHSFeCH4C2H3CNH2SH5C2H2NH2C2NHNC6H9CH3SCFeCH5CH2C2H3C2HCHC4HC
_chemical_formula_sum              "H2304 Fe384 C2304 S768 N192"
_cell_length_a       72.0005
_cell_length_b       72.3526
_cell_length_c       72.4223
_cell_angle_alpha    77.8132
_cell_angle_beta     77.7385
_cell_angle_gamma    77.6641

_space_group_name_H-M_alt    "P 1"
_space_group_IT_number       1

loop_
  _space_group_symop_operation_xyz
  'x, y, z'

loop_
  _atom_site_type_symbol
  _atom_site_label
  _atom_site_symmetry_multiplicity
  _atom_site_fract_x
  _atom_site_fract_y
  _atom_site_fract_z
  _atom_site_occupancy
  H   H1        1.0  0.29492  0.18380  0.39165  1.0000
  Fe  Fe1       1.0  0.99794  0.12579  0.37423  1.0000
  C   C1        1.0  0.08437  0.13411  0.35252  1.0000
  S   S1        1.0  0.10050  0.16525  0.44793  1.0000
  C   C2        1.0  0.24344  0.12201  0.42782  1.0000
  C   C3        1.0  0.31604  0.19640  0.21355  1.0000
  S   S2        1.0  0.15193  0.15187  0.46477  1.0000
  Fe  Fe2       1.0  0.23646  0.14598  0.36975  1.0000
  S   S3        1.0  0.22812  0.17127  0.38470  1.0000
  S   S4        1.0  0.21806  0.12322  0.37614  1.0000
  Fe  Fe3       1.0  0.27401  0.15809  0.34710  1.0000
  S   S5        1.0  0.26865  0.18469  0.36037  1.0000
  H   H2        1.0  0.19107  0.22475  0.29945  1.0000
  Fe  Fe4       1.0  0.25918  0.16566  0.38800  1.0000
  S   S6        1.0  0.26603  0.16370  0.41735  1.0000
  Fe  Fe5       1.0  0.23805  0.18787  0.35575  1.0000
  C   C4        1.0  0.29039  0.16329  0.41772  1.0000
  S   S7        1.0  0.26682  0.13882  0.37530  1.0000
  S   S8        1.0  0.24412  0.16283  0.34022  1.0000
  S   S9        1.0  0.13541  0.21249  0.33736  1.0000
  C   C5        1.0  0.29858  0.15211  0.43322  1.0000
  N   N1        1.0  0.04585  0.12596  0.47571  1.0000
  Fe  Fe6       1.0  0.02804  0.13428  0.39485  1.0000
  S   S10       1.0  0.03056  0.11878  0.37017  1.0000
  S   S11       1.0  0.04835  0.12200  0.41649  1.0000
  H   H3        1.0  0.17068  0.19303  0.38232  1.0000
  H   H4        1.0  0.17638  0.16280  0.37007  1.0000
  H   H5        1.0  0.01930  0.11740  0.47611  1.0000
  C   C6        1.0  0.99976  0.20730  0.30371  1.0000
  C   C7        1.0  0.31899  0.18634  0.19836  1.0000
  Fe  Fe7       1.0  0.02976  0.14832  0.35221  1.0000
  S   S12       1.0  0.05028  0.15796  0.32560  1.0000
  S   S13       1.0  0.30865  0.14827  0.24036  1.0000
  S   S14       1.0  0.02938  0.16305  0.37653  1.0000
  H   H6        1.0  0.02686  0.21727  0.29241  1.0000
  C   C8        1.0  0.31916  0.22552  0.19056  1.0000
  C   C9        1.0  0.30138  0.17472  0.40337  1.0000
  C   C10       1.0  0.30432  0.14920  0.30429  1.0000
  S   S15       1.0  0.99774  0.15399  0.35383  1.0000
  H   H7        1.0  0.02070  0.22187  0.34012  1.0000
  C   C11       1.0  0.31786  0.15193  0.43414  1.0000
  C   C12       1.0  0.04863  0.22205  0.32215  1.0000
  C   C13       1.0  0.03316  0.21338  0.33274  1.0000
  C   C14       1.0  0.03357  0.19379  0.33357  1.0000
  C   C15       1.0  0.04940  0.18275  0.32369  1.0000
  C   C16       1.0  0.06466  0.19152  0.31261  1.0000
  C   C17       1.0  0.06443  0.21110  0.31208  1.0000
  C   C18       1.0  0.15422  0.13062  0.40393  1.0000
  H   H8        1.0  0.02138  0.18737  0.34158  1.0000
  H   H9        1.0  0.07674  0.18315  0.30458  1.0000
  H   H10       1.0  0.07621  0.21783  0.30350  1.0000
  C   C19       1.0  0.19620  0.21501  0.34483  1.0000
  C   C20       1.0  0.04800  0.14468  0.47360  1.0000
  C   C21       1.0  0.16670  0.15747  0.38281  1.0000
  C   C22       1.0  0.15874  0.21378  0.34008  1.0000
  C   C23       1.0  0.17309  0.19730  0.33991  1.0000
  C   C24       1.0  0.19178  0.19788  0.34234  1.0000
  H   H11       1.0  0.02776  0.13281  0.45427  1.0000
  H   H12       1.0  0.16980  0.18410  0.33769  1.0000
  H   H13       1.0  0.20287  0.18519  0.34191  1.0000
  C   C25       1.0  0.06325  0.13448  0.42413  1.0000
  C   C26       1.0  0.07763  0.12380  0.43448  1.0000
  C   C27       1.0  0.08924  0.13302  0.44166  1.0000
  C   C28       1.0  0.08662  0.15308  0.43855  1.0000
  C   C29       1.0  0.07232  0.16379  0.42807  1.0000
  C   C30       1.0  0.06058  0.15456  0.42101  1.0000
  H   H14       1.0  0.07975  0.10827  0.43705  1.0000
  H   H15       1.0  0.10014  0.12454  0.44964  1.0000
  H   H16       1.0  0.07007  0.17933  0.42571  1.0000
  H   H17       1.0  0.04931  0.16298  0.41338  1.0000
  C   C31       1.0  0.18934  0.10625  0.43829  1.0000
  C   C32       1.0  0.19065  0.12555  0.43093  1.0000
  C   C33       1.0  0.20018  0.13085  0.41207  1.0000
  C   C34       1.0  0.20776  0.11693  0.40033  1.0000
  C   C35       1.0  0.20609  0.09776  0.40761  1.0000
  C   C36       1.0  0.19727  0.09238  0.42664  1.0000
  H   H18       1.0  0.18481  0.13630  0.43989  1.0000
  H   H19       1.0  0.20111  0.14574  0.40643  1.0000
  H   H20       1.0  0.21180  0.08697  0.39856  1.0000
  H   H21       1.0  0.19637  0.07743  0.43225  1.0000
  H   H22       1.0  0.14572  0.19722  0.37935  1.0000
  H   H23       1.0  0.29005  0.14351  0.44455  1.0000
  C   C37       1.0  0.03236  0.12091  0.46579  1.0000
  C   C38       1.0  0.16608  0.13781  0.38723  1.0000
  C   C39       1.0  0.28921  0.15376  0.27627  1.0000
  C   C40       1.0  0.28773  0.15398  0.29592  1.0000
  H   H24       1.0  0.30049  0.00051  0.28732  1.0000
  H   H25       1.0  0.09392  0.20394  0.35733  1.0000
  H   H26       1.0  0.10738  0.19083  0.32737  1.0000
  H   H27       1.0  0.27631  0.15743  0.26990  1.0000
  H   H28       1.0  0.27375  0.15779  0.30456  1.0000
  H   H29       1.0  0.29102  0.98427  0.26514  1.0000
  H   H30       1.0  0.20512  0.16868  0.46047  1.0000
  H   H31       1.0  0.29691  0.18793  0.44682  1.0000
  H   H32       1.0  0.25841  0.12146  0.42989  1.0000
  N   N2        1.0  0.32223  0.19562  0.17975  1.0000
  H   H33       1.0  0.31998  0.08716  0.32587  1.0000
  H   H34       1.0  0.15417  0.11530  0.40787  1.0000
  C   C41       1.0  0.09195  0.18972  0.35638  1.0000
  S   S16       1.0  0.21983  0.21646  0.34648  1.0000
  N   N3        1.0  0.22961  0.12815  0.44433  1.0000
  H   H35       1.0  0.26466  0.18053  0.45641  1.0000
  C   C42       1.0  0.31627  0.21609  0.20958  1.0000
  H   H36       1.0  0.03938  0.10838  0.45861  1.0000
  C   C43       1.0  0.26398  0.18344  0.47106  1.0000
  C   C44       1.0  0.14274  0.14321  0.41569  1.0000
  C   C45       1.0  0.15596  0.19034  0.38938  1.0000
  H   H37       1.0  0.17531  0.12811  0.37810  1.0000
  H   H38       1.0  0.07588  0.18436  0.38512  1.0000
  Fe  Fe8       1.0  0.99728  0.16674  0.37953  1.0000
  Fe  Fe9       1.0  0.12037  0.14983  0.46921  1.0000
  H   H39       1.0  0.13339  0.13782  0.42868  1.0000
  H   H40       1.0  0.04036  0.15587  0.46400  1.0000
  S   S17       1.0  0.17886  0.09878  0.46222  1.0000
  C   C46       1.0  0.20356  0.13990  0.47576  1.0000
  H   H41       1.0  0.24178  0.10774  0.42561  1.0000
  H   H42       1.0  0.06996  0.13120  0.36038  1.0000
  C   C47       1.0  0.29879  0.18341  0.46169  1.0000
  H   H43       1.0  0.13435  0.17255  0.41984  1.0000
  N   N4        1.0  0.15559  0.16969  0.39458  1.0000
  C   C48       1.0  0.14347  0.16285  0.41068  1.0000
  H   H44       1.0  0.09575  0.12322  0.35882  1.0000
  H   H45       1.0  0.00627  0.19237  0.30329  1.0000
  C   C49       1.0  0.32057  0.17492  0.40459  1.0000
  H   H46       1.0  0.31428  0.22401  0.22122  1.0000
  H   H47       1.0  0.15185  0.19743  0.40222  1.0000
  C   C50       1.0  0.22334  0.14732  0.44473  1.0000
  H   H48       1.0  0.25675  0.19851  0.47190  1.0000
  H   H49       1.0  0.07174  0.15192  0.38245  1.0000
  H   H50       1.0  0.22826  0.15797  0.43275  1.0000
  H   H51       1.0  0.10246  0.15852  0.32511  1.0000
  S   S18       1.0  0.30305  0.14878  0.32900  1.0000
  C   C51       1.0  0.30723  0.14855  0.26494  1.0000
  H   H52       1.0  0.08504  0.13252  0.33743  1.0000
  C   C52       1.0  0.32193  0.21503  0.17573  1.0000
  H   H53       1.0  0.00007  0.08725  0.34687  1.0000
  H   H54       1.0  0.24103  0.13222  0.41439  1.0000
  N   N5        1.0  0.08669  0.15347  0.35363  1.0000
  C   C53       1.0  0.07951  0.16046  0.37034  1.0000
  C   C54       1.0  0.09679  0.16404  0.33838  1.0000
  C   C55       1.0  0.08187  0.17874  0.37194  1.0000
  C   C56       1.0  0.09956  0.18232  0.33952  1.0000
  C   C57       1.0  0.32238  0.14436  0.29286  1.0000
  S   S19       1.0  0.99544  0.13918  0.40045  1.0000
  H   H55       1.0  0.99477  0.06219  0.33062  1.0000
  H   H56       1.0  0.31340  0.99707  0.22559  1.0000
  N   N6        1.0  0.28332  0.18027  0.47588  1.0000
  C   C58       1.0  0.32385  0.14388  0.27327  1.0000
  H   H57       1.0  0.31178  0.16442  0.36119  1.0000
  C   C59       1.0  0.31737  0.18034  0.46602  1.0000
  H   H58       1.0  0.31367  0.18887  0.22829  1.0000
  C   C60       1.0  0.31105  0.98974  0.28060  1.0000
  H   H59       1.0  0.32044  0.12874  0.36568  1.0000
  H   H60       1.0  0.31876  0.17104  0.20161  1.0000
  H   H61       1.0  0.16591  0.23004  0.27843  1.0000
  C   C61       1.0  0.22343  0.11473  0.45949  1.0000
  H   H62       1.0  0.31134  0.18262  0.16164  1.0000
  Fe  Fe10      1.0  0.15555  0.12017  0.47592  1.0000
  C   C62       1.0  0.21020  0.15348  0.46038  1.0000
  H   H63       1.0  0.22814  0.09951  0.45910  1.0000
  C   C63       1.0  0.21024  0.12039  0.47536  1.0000
  H   H64       1.0  0.00389  0.22963  0.37078  1.0000
  H   H65       1.0  0.32250  0.02950  0.21467  1.0000
  C   C64       1.0  0.01151  0.22131  0.29758  1.0000
  C   C65       1.0  0.32021  0.00136  0.21085  1.0000
  C   C66       1.0  0.32386  0.98870  0.19788  1.0000
  C   C67       1.0  0.16307  0.23082  0.34284  1.0000
  C   C68       1.0  0.18177  0.23142  0.34522  1.0000
  H   H66       1.0  0.32385  0.14358  0.44641  1.0000
  H   H67       1.0  0.32455  0.22245  0.16099  1.0000
  H   H68       1.0  0.11761  0.04895  0.63152  1.0000
  S   S20       1.0  0.26615  0.18790  0.59147  1.0000
  Fe  Fe11      1.0  0.24664  0.19402  0.54347  1.0000
  S   S21       1.0  0.24574  0.16742  0.56571  1.0000
  S   S22       1.0  0.23616  0.19697  0.51523  1.0000
  Fe  Fe12      1.0  0.23608  0.18784  0.58687  1.0000
  S   S23       1.0  0.20722  0.18871  0.60710  1.0000
  Fe  Fe13      1.0  0.27573  0.17021  0.56782  1.0000
  S   S24       1.0  0.30321  0.14840  0.56562  1.0000
  S   S25       1.0  0.23572  0.21459  0.56425  1.0000
  S   S26       1.0  0.27744  0.19536  0.54397  1.0000
  C   C69       1.0  0.04812  0.14426  0.79134  1.0000
  S   S27       1.0  0.00687  0.15254  0.83345  1.0000
  N   N7        1.0  0.03054  0.01141  0.56747  1.0000
  Fe  Fe14      1.0  0.12120  0.12376  0.50820  1.0000
  S   S28       1.0  0.09984  0.11299  0.53382  1.0000
  H   H69       1.0  0.19783  0.20568  0.57049  1.0000
  Fe  Fe15      1.0  0.11891  0.15746  0.71430  1.0000
  S   S29       1.0  0.14379  0.13724  0.72527  1.0000
  S   S30       1.0  0.10871  0.18664  0.72385  1.0000
  Fe  Fe16      1.0  0.11194  0.12744  0.69220  1.0000
  S   S31       1.0  0.13626  0.10534  0.70244  1.0000
  S   S32       1.0  0.09302  0.12135  0.67333  1.0000
  Fe  Fe17      1.0  0.12493  0.11504  0.73087  1.0000
  S   S33       1.0  0.11627  0.09978  0.76085  1.0000
  Fe  Fe18      1.0  0.15238  0.13023  0.69543  1.0000
  S   S34       1.0  0.18376  0.12802  0.68092  1.0000
  S   S35       1.0  0.09944  0.13555  0.72120  1.0000
  S   S36       1.0  0.12853  0.15206  0.68385  1.0000
  C   C70       1.0  0.18609  0.20445  0.56391  1.0000
  S   S37       1.0  0.06659  0.99572  0.65212  1.0000
  H   H70       1.0  0.06263  0.03937  0.89980  1.0000
  Fe  Fe19      1.0  0.09323  0.01613  0.60231  1.0000
  S   S38       1.0  0.06586  0.03246  0.61699  1.0000
  S   S39       1.0  0.10971  0.02531  0.57267  1.0000
  Fe  Fe20      1.0  0.07980  0.02265  0.64346  1.0000
  S   S40       1.0  0.08382  0.03771  0.66683  1.0000
  Fe  Fe21      1.0  0.05565  0.00374  0.62401  1.0000
  S   S41       1.0  0.10779  0.00792  0.62811  1.0000
  C   C71       1.0  0.06102  0.99719  0.55070  1.0000
  Fe  Fe22      1.0  0.11272  0.99986  0.80963  1.0000
  S   S42       1.0  0.08070  0.00090  0.81543  1.0000
  S   S43       1.0  0.12692  0.00925  0.77927  1.0000
  C   C72       1.0  0.20925  0.19173  0.49603  1.0000
  H   H71       1.0  0.07955  0.00844  0.88825  1.0000
  H   H72       1.0  0.01595  0.22896  0.83677  1.0000
  Fe  Fe23      1.0  0.08151  0.01137  0.84223  1.0000
  S   S44       1.0  0.05801  0.03287  0.85598  1.0000
  C   C73       1.0  0.03970  0.02226  0.57473  1.0000
  S   S45       1.0  0.11316  0.01264  0.83530  1.0000
  H   H73       1.0  0.27833  0.13354  0.54786  1.0000
  S   S46       1.0  0.99312  0.18401  0.86315  1.0000
  H   H74       1.0  0.12978  0.03831  0.59987  1.0000
  H   H75       1.0  0.08738  0.08876  0.87035  1.0000
  C   C74       1.0  0.08491  0.20922  0.87978  1.0000
  H   H76       1.0  0.07389  0.10922  0.77289  1.0000
  H   H77       1.0  0.11357  0.08359  0.63337  1.0000
  Fe  Fe24      1.0  0.03363  0.14227  0.84653  1.0000
  S   S47       1.0  0.01783  0.14058  0.87695  1.0000
  S   S48       1.0  0.05995  0.12203  0.83472  1.0000
  Fe  Fe25      1.0  0.02119  0.17141  0.87349  1.0000
  S   S49       1.0  0.03002  0.18297  0.89617  1.0000
  S   S50       1.0  0.03899  0.17208  0.84420  1.0000
  H   H78       1.0  0.00396  0.01638  0.58689  1.0000
  C   C75       1.0  0.07521  0.20777  0.86548  1.0000
  C   C76       1.0  0.05869  0.19918  0.87032  1.0000
  C   C77       1.0  0.05154  0.19238  0.88953  1.0000
  C   C78       1.0  0.06113  0.19404  0.90384  1.0000
  C   C79       1.0  0.07791  0.20217  0.89895  1.0000
  H   H79       1.0  0.19311  0.14445  0.48786  1.0000
  H   H80       1.0  0.05114  0.19854  0.85921  1.0000
  H   H81       1.0  0.05564  0.18890  0.91875  1.0000
  H   H82       1.0  0.11758  0.06715  0.85877  1.0000
  H   H83       1.0  0.03005  0.06560  0.86520  1.0000
  C   C80       1.0  0.16753  0.22352  0.51781  1.0000
  H   H84       1.0  0.19531  0.17062  0.71176  1.0000
  S   S51       1.0  0.15285  0.12249  0.50690  1.0000
  S   S52       1.0  0.10591  0.21945  0.87419  1.0000
  H   H85       1.0  0.13360  0.20269  0.68793  1.0000
  C   C81       1.0  0.05818  0.05763  0.84856  1.0000
  C   C82       1.0  0.04245  0.07078  0.85592  1.0000
  C   C83       1.0  0.04273  0.09059  0.85151  1.0000
  C   C84       1.0  0.05885  0.09734  0.83983  1.0000
  C   C85       1.0  0.07455  0.08421  0.83235  1.0000
  C   C86       1.0  0.07416  0.06440  0.83656  1.0000
  H   H86       1.0  0.03054  0.10060  0.85731  1.0000
  H   H87       1.0  0.08718  0.08930  0.82350  1.0000
  H   H88       1.0  0.08639  0.05436  0.83091  1.0000
  H   H89       1.0  0.08536  0.20320  0.91011  1.0000
  H   H90       1.0  0.02856  0.17104  0.79444  1.0000
  H   H91       1.0  0.18153  0.15298  0.71010  1.0000
  C   C87       1.0  0.04272  0.16427  0.78802  1.0000
  C   C88       1.0  0.11779  0.19437  0.74146  1.0000
  C   C89       1.0  0.13450  0.18430  0.74841  1.0000
  C   C90       1.0  0.14192  0.19154  0.76141  1.0000
  C   C91       1.0  0.13249  0.20864  0.76809  1.0000
  C   C92       1.0  0.11535  0.21832  0.76176  1.0000
  C   C93       1.0  0.10818  0.21132  0.74835  1.0000
  H   H92       1.0  0.14196  0.17112  0.74354  1.0000
  N   N8        1.0  0.09150  0.03364  0.88471  1.0000
  H   H93       1.0  0.09524  0.21925  0.74313  1.0000
  C   C94       1.0  0.11940  0.07463  0.76532  1.0000
  C   C95       1.0  0.13117  0.06363  0.75209  1.0000
  C   C96       1.0  0.13349  0.04347  0.75637  1.0000
  C   C97       1.0  0.12390  0.03440  0.77375  1.0000
  C   C98       1.0  0.11184  0.04548  0.78670  1.0000
  C   C99       1.0  0.10971  0.06553  0.78256  1.0000
  H   H94       1.0  0.13878  0.07060  0.73880  1.0000
  H   H95       1.0  0.14290  0.03491  0.74635  1.0000
  H   H96       1.0  0.10413  0.03862  0.79995  1.0000
  H   H97       1.0  0.10050  0.07397  0.79277  1.0000
  C   C100      1.0  0.09266  0.09811  0.66915  1.0000
  C   C101      1.0  0.10504  0.08179  0.67649  1.0000
  C   C102      1.0  0.10307  0.06339  0.67443  1.0000
  C   C103      1.0  0.08885  0.06107  0.66488  1.0000
  C   C104      1.0  0.07702  0.07744  0.65681  1.0000
  C   C105      1.0  0.07893  0.09585  0.65895  1.0000
  H   H98       1.0  0.11572  0.08326  0.68430  1.0000
  H   H99       1.0  0.11222  0.05086  0.68086  1.0000
  H   H100      1.0  0.06575  0.07587  0.64976  1.0000
  H   H101      1.0  0.06926  0.10837  0.65323  1.0000
  C   C106      1.0  0.10210  0.08843  0.54383  1.0000
  C   C107      1.0  0.09030  0.08275  0.56132  1.0000
  C   C108      1.0  0.09225  0.06336  0.57016  1.0000
  C   C109      1.0  0.10593  0.04953  0.56142  1.0000
  C   C110      1.0  0.11752  0.05517  0.54376  1.0000
  C   C111      1.0  0.11571  0.07461  0.53502  1.0000
  H   H102      1.0  0.07979  0.09343  0.56822  1.0000
  H   H103      1.0  0.08338  0.05921  0.58383  1.0000
  H   H104      1.0  0.12816  0.04451  0.53696  1.0000
  H   H105      1.0  0.12488  0.07888  0.52153  1.0000
  C   C112      1.0  0.20131  0.17004  0.62607  1.0000
  C   C113      1.0  0.21541  0.15678  0.63485  1.0000
  C   C114      1.0  0.20987  0.14355  0.65138  1.0000
  C   C115      1.0  0.19025  0.14346  0.65913  1.0000
  C   C116      1.0  0.17624  0.15632  0.64992  1.0000
  C   C117      1.0  0.18174  0.16958  0.63352  1.0000
  H   H106      1.0  0.23055  0.15706  0.62923  1.0000
  H   H107      1.0  0.22081  0.13357  0.65838  1.0000
  H   H108      1.0  0.16115  0.15628  0.65554  1.0000
  H   H109      1.0  0.17075  0.17982  0.62685  1.0000
  C   C118      1.0  0.21641  0.18686  0.51334  1.0000
  H   H110      1.0  0.08612  0.00673  0.55477  1.0000
  S   S53       1.0  0.02609  0.99907  0.62072  1.0000
  C   C119      1.0  0.05977  0.02087  0.57008  1.0000
  C   C120      1.0  0.18996  0.16934  0.52739  1.0000
  C   C121      1.0  0.20701  0.17515  0.52886  1.0000
  H   H111      1.0  0.03804  0.13566  0.80066  1.0000
  H   H112      1.0  0.06705  0.02940  0.57592  1.0000
  H   H113      1.0  0.18219  0.16125  0.53983  1.0000
  H   H114      1.0  0.21240  0.17124  0.54227  1.0000
  H   H115      1.0  0.99175  0.98481  0.62001  1.0000
  H   H116      1.0  0.08509  0.11049  0.79253  1.0000
  C   C122      1.0  0.30759  0.13769  0.54510  1.0000
  C   C123      1.0  0.29282  0.13138  0.53967  1.0000
  C   C124      1.0  0.12793  0.05337  0.60095  1.0000
  C   C125      1.0  0.10564  0.06117  0.86819  1.0000
  C   C126      1.0  0.06344  0.08290  0.70891  1.0000
  C   C127      1.0  0.09283  0.01276  0.89024  1.0000
  C   C128      1.0  0.15622  0.20144  0.54674  1.0000
  H   H117      1.0  0.10251  0.05093  0.73635  1.0000
  H   H118      1.0  0.00283  0.02559  0.56179  1.0000
  C   C129      1.0  0.12106  0.05934  0.61864  1.0000
  C   C130      1.0  0.11861  0.07878  0.61968  1.0000
  C   C131      1.0  0.07049  0.00815  0.55812  1.0000
  H   H119      1.0  0.28783  0.21909  0.60378  1.0000
  H   H120      1.0  0.30568  0.16828  0.51442  1.0000
  C   C132      1.0  0.31577  0.11826  0.51366  1.0000
  H   H121      1.0  0.25494  0.17372  0.48128  1.0000
  H   H122      1.0  0.30602  0.20089  0.57106  1.0000
  C   C133      1.0  0.00943  0.01356  0.57199  1.0000
  N   N9        1.0  0.17922  0.17852  0.68907  1.0000
  C   C134      1.0  0.18841  0.18711  0.67188  1.0000
  C   C135      1.0  0.15984  0.18421  0.69493  1.0000
  C   C136      1.0  0.17806  0.20145  0.65983  1.0000
  C   C137      1.0  0.14903  0.19845  0.68323  1.0000
  C   C138      1.0  0.15822  0.20706  0.66553  1.0000
  C   C139      1.0  0.19036  0.16384  0.70173  1.0000
  H   H123      1.0  0.20374  0.18252  0.66713  1.0000
  C   C140      1.0  0.18420  0.21443  0.54545  1.0000
  H   H124      1.0  0.14752  0.18192  0.57266  1.0000
  H   H125      1.0  0.00382  0.22057  0.87185  1.0000
  H   H126      1.0  0.31670  0.17916  0.58467  1.0000
  H   H127      1.0  0.18535  0.20774  0.64592  1.0000
  H   H128      1.0  0.09488  0.02773  0.70698  1.0000
  H   H129      1.0  0.07153  0.02524  0.72124  1.0000
  N   N10       1.0  0.12131  0.18010  0.83399  1.0000
  C   C141      1.0  0.12036  0.17736  0.81611  1.0000
  C   C142      1.0  0.10831  0.17386  0.84959  1.0000
  C   C143      1.0  0.10583  0.16858  0.81342  1.0000
  C   C144      1.0  0.09356  0.16504  0.84743  1.0000
  C   C145      1.0  0.09238  0.16235  0.82922  1.0000
  C   C146      1.0  0.13705  0.18868  0.83662  1.0000
  H   H130      1.0  0.13090  0.18196  0.80382  1.0000
  H   H131      1.0  0.10915  0.17593  0.86380  1.0000
  H   H132      1.0  0.10510  0.16660  0.79916  1.0000
  H   H133      1.0  0.08306  0.16041  0.85981  1.0000
  H   H134      1.0  0.08110  0.15538  0.82738  1.0000
  H   H135      1.0  0.14950  0.17728  0.83984  1.0000
  H   H136      1.0  0.14193  0.19883  0.82352  1.0000
  H   H137      1.0  0.13232  0.19706  0.84853  1.0000
  H   H138      1.0  0.18193  0.22497  0.50888  1.0000
  N   N11       1.0  0.16951  0.21267  0.53702  1.0000
  H   H139      1.0  0.15257  0.17766  0.70865  1.0000
  C   C147      1.0  0.07494  0.04542  0.89131  1.0000
  C   C148      1.0  0.07428  0.09134  0.71755  1.0000
  C   C149      1.0  0.06054  0.14961  0.48337  1.0000
  C   C150      1.0  0.08876  0.07329  0.87477  1.0000
  S   S54       1.0  0.14296  0.21735  0.78399  1.0000
  H   H140      1.0  0.03154  0.03174  0.58456  1.0000
  Fe  Fe26      1.0  0.14722  0.15422  0.49603  1.0000
  C   C151      1.0  0.08830  0.07975  0.72762  1.0000
  C   C152      1.0  0.10682  0.04124  0.87343  1.0000
  C   C153      1.0  0.28565  0.17510  0.49466  1.0000
  C   C154      1.0  0.06838  0.11628  0.49763  1.0000
  H   H141      1.0  0.08047  0.21301  0.85066  1.0000
  S   S55       1.0  0.12444  0.11793  0.47838  1.0000
  C   C155      1.0  0.06695  0.06292  0.71027  1.0000
  C   C156      1.0  0.07066  0.13531  0.49554  1.0000
  H   H142      1.0  0.13752  0.09384  0.55508  1.0000
  S   S56       1.0  0.11515  0.15578  0.49928  1.0000
  C   C157      1.0  0.19216  0.18604  0.49462  1.0000
  H   H143      1.0  0.27334  0.17307  0.50601  1.0000
  Fe  Fe27      1.0  0.26651  0.21312  0.56736  1.0000
  C   C158      1.0  0.29426  0.23189  0.60011  1.0000
  H   H144      1.0  0.12035  0.10716  0.60384  1.0000
  H   H145      1.0  0.05915  0.05652  0.70270  1.0000
  H   H146      1.0  0.17453  0.18466  0.58800  1.0000
  S   S57       1.0  0.01071  0.20607  0.80844  1.0000
  S   S58       1.0  0.15782  0.17376  0.51091  1.0000
  N   N12       1.0  0.06596  0.13569  0.78320  1.0000
  H   H147      1.0  0.06037  0.10759  0.79702  1.0000
  C   C159      1.0  0.07875  0.14657  0.77167  1.0000
  C   C160      1.0  0.07382  0.16663  0.76808  1.0000
  C   C161      1.0  0.05568  0.17550  0.77635  1.0000
  C   C162      1.0  0.07150  0.11472  0.78656  1.0000
  H   H148      1.0  0.09287  0.13970  0.76515  1.0000
  H   H149      1.0  0.08393  0.17523  0.75883  1.0000
  H   H150      1.0  0.05160  0.19105  0.77368  1.0000
  H   H151      1.0  0.15515  0.18390  0.76624  1.0000
  S   S59       1.0  0.08224  0.98838  0.60768  1.0000
  H   H152      1.0  0.28559  0.11616  0.52027  1.0000
  H   H153      1.0  0.13752  0.06214  0.57086  1.0000
  C   C163      1.0  0.12261  0.09204  0.60291  1.0000
  C   C164      1.0  0.07333  0.06540  0.88647  1.0000
  C   C165      1.0  0.15780  0.19115  0.56519  1.0000
  C   C166      1.0  0.18222  0.17508  0.51038  1.0000
  Fe  Fe28      1.0  0.01081  0.18227  0.83395  1.0000
  H   H154      1.0  0.14462  0.19996  0.54002  1.0000
  H   H155      1.0  0.09176  0.02297  0.73292  1.0000
  C   C167      1.0  0.04089  0.99916  0.55539  1.0000
  H   H156      1.0  0.05991  0.07469  0.89112  1.0000
  N   N13       1.0  0.12921  0.08607  0.58560  1.0000
  C   C168      1.0  0.13218  0.06698  0.58452  1.0000
  C   C169      1.0  0.13315  0.10038  0.56828  1.0000
  H   H157      1.0  0.11990  0.11128  0.56643  1.0000
  H   H158      1.0  0.14490  0.10766  0.56933  1.0000
  H   H159      1.0  0.07226  0.10688  0.71588  1.0000
  C   C170      1.0  0.08495  0.03086  0.72041  1.0000
  H   H160      1.0  0.07635  0.10511  0.50703  1.0000
  H   H161      1.0  0.00458  0.00016  0.57127  1.0000
  H   H162      1.0  0.05303  0.09185  0.70044  1.0000
  H   H163      1.0  0.09457  0.00817  0.90550  1.0000
  H   H164      1.0  0.20304  0.15570  0.69330  1.0000
  H   H165      1.0  0.10529  0.00489  0.88133  1.0000
  H   H166      1.0  0.11994  0.03190  0.86817  1.0000
  C   C171      1.0  0.17291  0.19265  0.57377  1.0000
  N   N14       1.0  0.08070  0.05165  0.72020  1.0000
  H   H167      1.0  0.19485  0.22321  0.53776  1.0000
  H   H168      1.0  0.06924  0.98710  0.54153  1.0000
  C   C172      1.0  0.09137  0.05981  0.72877  1.0000
  C   C173      1.0  0.29696  0.12149  0.52410  1.0000
  H   H169      1.0  0.30553  0.22659  0.62646  1.0000
  H   H170      1.0  0.08033  0.13892  0.50331  1.0000
  H   H171      1.0  0.14996  0.21798  0.65622  1.0000
  C   C174      1.0  0.30395  0.17231  0.49953  1.0000
  H   H172      1.0  0.09702  0.08620  0.73412  1.0000
  H   H173      1.0  0.20480  0.10966  0.48697  1.0000
  H   H174      1.0  0.18593  0.19132  0.48175  1.0000
  H   H175      1.0  0.21632  0.20089  0.48398  1.0000
  H   H176      1.0  0.16037  0.21599  0.51014  1.0000
  C   C175      1.0  0.01521  0.22905  0.86670  1.0000
  C   C176      1.0  0.05583  0.11183  0.48753  1.0000
  H   H177      1.0  0.06270  0.16437  0.48122  1.0000
  C   C177      1.0  0.31993  0.17466  0.48509  1.0000
  H   H178      1.0  0.03362  0.99042  0.54976  1.0000
  H   H179      1.0  0.10793  0.23151  0.76673  1.0000
  H   H180      1.0  0.05416  0.09699  0.48917  1.0000
  S   S60       1.0  0.32094  0.10474  0.49502  1.0000
  C   C178      1.0  0.31976  0.19052  0.57202  1.0000
  H   H181      1.0  0.01869  0.23046  0.89505  1.0000
  H   H182      1.0  0.32348  0.22699  0.55822  1.0000
  H   H183      1.0  0.99896  0.22804  0.77399  1.0000
  H   H184      1.0  0.32397  0.18384  0.55892  1.0000
  Fe  Fe29      1.0  0.19283  0.38754  0.07856  1.0000
  S   S61       1.0  0.20253  0.41478  0.06269  1.0000
  S   S62       1.0  0.16175  0.38450  0.08748  1.0000
  Fe  Fe30      1.0  0.23338  0.36798  0.08587  1.0000
  S   S63       1.0  0.24643  0.39395  0.07100  1.0000
  S   S64       1.0  0.24857  0.33913  0.09903  1.0000
  Fe  Fe31      1.0  0.21959  0.41064  0.08634  1.0000
  S   S65       1.0  0.21518  0.43419  0.10353  1.0000
  Fe  Fe32      1.0  0.22812  0.39540  0.04897  1.0000
  S   S66       1.0  0.23925  0.39720  0.01728  1.0000
  S   S67       1.0  0.20820  0.38454  0.10294  1.0000
  S   S68       1.0  0.21672  0.36829  0.06296  1.0000
  Fe  Fe33      1.0  0.11310  0.40444  0.00156  1.0000
  S   S69       1.0  0.12691  0.42953  0.00083  1.0000
  S   S70       1.0  0.12238  0.37654  0.02019  1.0000
  H   H185      1.0  0.14222  0.42176  0.14935  1.0000
  H   H186      1.0  0.31343  0.30081  0.10024  1.0000
  H   H187      1.0  0.00214  0.29067  0.35679  1.0000
  H   H188      1.0  0.31977  0.24076  0.18721  1.0000
  C   C179      1.0  0.19250  0.33794  0.11080  1.0000
  Fe  Fe34      1.0  0.09673  0.44621  0.00357  1.0000
  S   S71       1.0  0.08482  0.46716  0.02485  1.0000
  H   H189      1.0  0.31949  0.41175  0.02202  1.0000
  S   S72       1.0  0.08262  0.42046  0.00633  1.0000
  C   C180      1.0  0.99209  0.45723  0.39060  1.0000
  H   H190      1.0  0.16369  0.40996  0.12074  1.0000
  C   C181      1.0  0.00355  0.24041  0.29898  1.0000
  S   S73       1.0  0.08758  0.24973  0.34665  1.0000
  Fe  Fe35      1.0  0.09396  0.27963  0.33690  1.0000
  S   S74       1.0  0.08015  0.28563  0.31085  1.0000
  S   S75       1.0  0.08704  0.30334  0.35414  1.0000
  Fe  Fe36      1.0  0.10678  0.47618  0.34357  1.0000
  S   S76       1.0  0.04730  0.24679  0.32077  1.0000
  Fe  Fe37      1.0  0.10966  0.27415  0.29610  1.0000
  S   S77       1.0  0.12336  0.28872  0.26735  1.0000
  H   H191      1.0  0.07945  0.42939  0.04847  1.0000
  S   S78       1.0  0.12400  0.27029  0.32156  1.0000
  H   H192      1.0  0.26651  0.39726  0.98213  1.0000
  H   H193      1.0  0.02030  0.25762  0.35561  1.0000
  H   H194      1.0  0.20796  0.33623  0.10381  1.0000
  H   H195      1.0  0.21775  0.33684  0.13342  1.0000
  S   S79       1.0  0.01322  0.40315  0.33543  1.0000
  N   N15       1.0  0.17270  0.25125  0.29107  1.0000
  H   H196      1.0  0.13389  0.45672  0.14984  1.0000
  S   S80       1.0  0.04382  0.45759  0.37670  1.0000
  C   C182      1.0  0.18254  0.36478  0.15969  1.0000
  S   S81       1.0  0.13132  0.45624  0.32920  1.0000
  C   C183      1.0  0.27080  0.40557  0.99079  1.0000
  Fe  Fe38      1.0  0.13327  0.43931  0.22804  1.0000
  S   S82       1.0  0.10724  0.42658  0.22897  1.0000
  S   S83       1.0  0.12865  0.46621  0.24078  1.0000
  Fe  Fe39      1.0  0.16011  0.40986  0.20565  1.0000
  S   S84       1.0  0.13634  0.39420  0.20560  1.0000
  S   S85       1.0  0.18991  0.39834  0.19080  1.0000
  Fe  Fe40      1.0  0.11950  0.42387  0.19833  1.0000
  S   S86       1.0  0.10455  0.43151  0.17279  1.0000
  Fe  Fe41      1.0  0.12649  0.39818  0.23633  1.0000
  S   S87       1.0  0.11491  0.37845  0.26302  1.0000
  S   S88       1.0  0.14379  0.43928  0.19656  1.0000
  S   S89       1.0  0.15191  0.41119  0.23721  1.0000
  H   H197      1.0  0.18510  0.24466  0.34729  1.0000
  H   H198      1.0  0.25035  0.35628  0.03279  1.0000
  C   C184      1.0  0.09417  0.45596  0.16888  1.0000
  C   C185      1.0  0.09291  0.46562  0.15014  1.0000
  H   H199      1.0  0.21472  0.24015  0.30818  1.0000
  C   C186      1.0  0.28743  0.41384  0.98389  1.0000
  H   H200      1.0  0.15377  0.37526  0.15357  1.0000
  C   C187      1.0  0.08766  0.46599  0.18423  1.0000
  H   H201      1.0  0.09791  0.45789  0.13826  1.0000
  C   C188      1.0  0.20054  0.35385  0.15402  1.0000
  C   C189      1.0  0.32116  0.38264  0.03694  1.0000
  H   H202      1.0  0.08852  0.45856  0.19872  1.0000
  C   C190      1.0  0.13054  0.45883  0.30465  1.0000
  C   C191      1.0  0.14122  0.44473  0.29409  1.0000
  C   C192      1.0  0.14040  0.44662  0.27453  1.0000
  C   C193      1.0  0.12904  0.46274  0.26546  1.0000
  H   H203      1.0  0.01504  0.40224  0.37568  1.0000
  H   H204      1.0  0.15650  0.27952  0.28477  1.0000
  H   H205      1.0  0.15009  0.43228  0.30104  1.0000
  H   H206      1.0  0.14883  0.43577  0.26643  1.0000
  H   H207      1.0  0.18406  0.34664  0.09973  1.0000
  C   C194      1.0  0.15031  0.46440  0.12153  1.0000
  C   C195      1.0  0.02342  0.41699  0.34698  1.0000
  C   C196      1.0  0.03274  0.43195  0.33589  1.0000
  C   C197      1.0  0.03971  0.44411  0.34469  1.0000
  C   C198      1.0  0.03773  0.44122  0.36470  1.0000
  C   C199      1.0  0.02912  0.42578  0.37569  1.0000
  C   C200      1.0  0.02191  0.41382  0.36692  1.0000
  H   H208      1.0  0.03400  0.43455  0.32044  1.0000
  H   H209      1.0  0.04600  0.45611  0.33604  1.0000
  H   H210      1.0  0.02759  0.42333  0.39116  1.0000
  H   H211      1.0  0.16460  0.47685  0.26322  1.0000
  C   C201      1.0  0.12201  0.31353  0.26620  1.0000
  C   C202      1.0  0.11502  0.32182  0.28268  1.0000
  C   C203      1.0  0.11357  0.34166  0.28157  1.0000
  C   C204      1.0  0.11895  0.35340  0.26398  1.0000
  C   C205      1.0  0.12625  0.34510  0.24753  1.0000
  C   C206      1.0  0.12782  0.32517  0.24867  1.0000
  H   H212      1.0  0.11067  0.31297  0.29631  1.0000
  H   H213      1.0  0.10797  0.34798  0.29436  1.0000
  H   H214      1.0  0.13037  0.35406  0.23390  1.0000
  H   H215      1.0  0.13326  0.31882  0.23588  1.0000
  C   C207      1.0  0.06264  0.30683  0.36497  1.0000
  C   C208      1.0  0.05284  0.32536  0.36727  1.0000
  C   C209      1.0  0.03296  0.32852  0.37455  1.0000
  C   C210      1.0  0.02305  0.31302  0.38028  1.0000
  C   C211      1.0  0.03297  0.29444  0.37851  1.0000
  C   C212      1.0  0.05264  0.29140  0.37046  1.0000
  H   H216      1.0  0.06054  0.33731  0.36302  1.0000
  H   H217      1.0  0.02537  0.34289  0.37601  1.0000
  H   H218      1.0  0.02542  0.28240  0.38319  1.0000
  H   H219      1.0  0.06017  0.27707  0.36886  1.0000
  H   H220      1.0  0.26716  0.36391  0.99948  1.0000
  H   H221      1.0  0.99308  0.45343  0.33601  1.0000
  C   C213      1.0  0.30507  0.31510  0.09747  1.0000
  N   N16       1.0  0.18916  0.34739  0.12754  1.0000
  C   C214      1.0  0.19890  0.26885  0.30125  1.0000
  H   H222      1.0  0.18828  0.32356  0.11522  1.0000
  C   C215      1.0  0.00520  0.25990  0.36241  1.0000
  C   C216      1.0  0.16782  0.36681  0.14923  1.0000
  C   C217      1.0  0.29627  0.33605  0.03885  1.0000
  C   C218      1.0  0.99605  0.24422  0.37087  1.0000
  Fe  Fe42      1.0  0.11632  0.24079  0.32870  1.0000
  H   H223      1.0  0.14655  0.47968  0.12187  1.0000
  H   H224      1.0  0.15987  0.35956  0.12503  1.0000
  H   H225      1.0  0.15200  0.24349  0.34338  1.0000
  H   H226      1.0  0.12593  0.46326  0.02701  1.0000
  S   S90       1.0  0.09357  0.47319  0.37496  1.0000
  C   C219      1.0  0.20919  0.42498  0.12816  1.0000
  C   C220      1.0  0.21796  0.40659  0.13583  1.0000
  C   C221      1.0  0.21231  0.39885  0.15520  1.0000
  C   C222      1.0  0.19744  0.40917  0.16690  1.0000
  C   C223      1.0  0.18888  0.42771  0.15933  1.0000
  C   C224      1.0  0.19503  0.43574  0.14010  1.0000
  H   H227      1.0  0.22936  0.39843  0.12689  1.0000
  H   H228      1.0  0.21945  0.38479  0.16110  1.0000
  H   H229      1.0  0.17785  0.43603  0.16834  1.0000
  H   H230      1.0  0.18856  0.45016  0.13440  1.0000
  C   C225      1.0  0.15142  0.38206  0.06848  1.0000
  C   C226      1.0  0.15985  0.38770  0.04936  1.0000
  C   C227      1.0  0.15072  0.38654  0.03440  1.0000
  C   C228      1.0  0.13353  0.37914  0.03858  1.0000
  C   C229      1.0  0.12531  0.37330  0.05768  1.0000
  C   C230      1.0  0.13406  0.37506  0.07260  1.0000
  H   H231      1.0  0.17325  0.39319  0.04611  1.0000
  H   H232      1.0  0.15719  0.39097  0.01966  1.0000
  H   H233      1.0  0.11211  0.36746  0.06094  1.0000
  H   H234      1.0  0.12748  0.37072  0.08735  1.0000
  C   C231      1.0  0.29258  0.42531  0.99461  1.0000
  H   H235      1.0  0.14286  0.43128  0.07679  1.0000
  C   C232      1.0  0.26586  0.35172  0.02931  1.0000
  C   C233      1.0  0.25969  0.40815  0.00875  1.0000
  C   C234      1.0  0.26504  0.41931  0.01965  1.0000
  C   C235      1.0  0.28132  0.42811  0.01245  1.0000
  Fe  Fe43      1.0  0.07615  0.25491  0.31920  1.0000
  N   N17       1.0  0.29504  0.35046  0.00588  1.0000
  H   H236      1.0  0.25635  0.42160  0.03339  1.0000
  H   H237      1.0  0.28518  0.43710  0.02072  1.0000
  H   H238      1.0  0.01269  0.25129  0.29485  1.0000
  C   C236      1.0  0.30344  0.34939  0.08737  1.0000
  C   C237      1.0  0.28325  0.35201  0.09004  1.0000
  C   C238      1.0  0.27386  0.33621  0.09641  1.0000
  C   C239      1.0  0.28481  0.31775  0.10022  1.0000
  C   C240      1.0  0.14768  0.43184  0.13705  1.0000
  H   H239      1.0  0.31053  0.36176  0.08277  1.0000
  H   H240      1.0  0.27497  0.36631  0.08753  1.0000
  H   H241      1.0  0.27762  0.30545  0.10515  1.0000
  H   H242      1.0  0.32098  0.33603  0.01617  1.0000
  N   N18       1.0  0.09827  0.42245  0.32373  1.0000
  C   C241      1.0  0.11156  0.40699  0.31858  1.0000
  C   C242      1.0  0.09000  0.43591  0.31009  1.0000
  C   C243      1.0  0.11664  0.40456  0.29937  1.0000
  C   C244      1.0  0.09491  0.43402  0.29074  1.0000
  C   C245      1.0  0.10828  0.41822  0.28542  1.0000
  C   C246      1.0  0.09350  0.42476  0.34394  1.0000
  H   H243      1.0  0.11836  0.39650  0.32933  1.0000
  H   H244      1.0  0.07968  0.44829  0.31403  1.0000
  H   H245      1.0  0.12710  0.39226  0.29522  1.0000
  H   H246      1.0  0.08873  0.44494  0.27986  1.0000
  H   H247      1.0  0.11245  0.41671  0.27045  1.0000
  H   H248      1.0  0.09000  0.41123  0.35331  1.0000
  H   H249      1.0  0.10593  0.42869  0.34816  1.0000
  H   H250      1.0  0.08076  0.43621  0.34670  1.0000
  H   H251      1.0  0.26892  0.33828  0.05826  1.0000
  H   H252      1.0  0.10305  0.41681  0.04064  1.0000
  H   H253      1.0  0.14872  0.25197  0.27758  1.0000
  C   C247      1.0  0.27548  0.35602  0.01044  1.0000
  N   N19       1.0  0.10016  0.42903  0.06574  1.0000
  C   C248      1.0  0.08786  0.43972  0.07830  1.0000
  C   C249      1.0  0.11966  0.42605  0.06515  1.0000
  C   C250      1.0  0.09507  0.44793  0.09057  1.0000
  C   C251      1.0  0.12736  0.43384  0.07734  1.0000
  C   C252      1.0  0.11496  0.44495  0.09005  1.0000
  C   C253      1.0  0.09232  0.41986  0.05361  1.0000
  H   H254      1.0  0.07240  0.44218  0.07866  1.0000
  H   H255      1.0  0.12937  0.41772  0.05511  1.0000
  H   H256      1.0  0.08532  0.45672  0.10026  1.0000
  C   C254      1.0  0.20218  0.24894  0.30264  1.0000
  H   H257      1.0  0.14971  0.23561  0.30005  1.0000
  C   C255      1.0  0.30548  0.34057  0.01978  1.0000
  S   S91       1.0  0.07912  0.47942  0.33294  1.0000
  H   H258      1.0  0.99984  0.46661  0.39475  1.0000
  C   C256      1.0  0.15963  0.42524  0.12105  1.0000
  C   C257      1.0  0.12649  0.47921  0.04904  1.0000
  H   H259      1.0  0.20901  0.27565  0.30549  1.0000
  H   H260      1.0  0.14209  0.47641  0.04725  1.0000
  H   H261      1.0  0.17683  0.43324  0.09358  1.0000
  C   C258      1.0  0.18240  0.27990  0.29470  1.0000
  H   H262      1.0  0.18003  0.37170  0.17215  1.0000
  H   H263      1.0  0.12071  0.45146  0.09931  1.0000
  H   H264      1.0  0.21210  0.35233  0.16201  1.0000
  C   C259      1.0  0.17137  0.35787  0.13315  1.0000
  C   C260      1.0  0.16693  0.43849  0.10563  1.0000
  C   C261      1.0  0.16937  0.27081  0.28966  1.0000
  H   H265      1.0  0.08827  0.40605  0.06174  1.0000
  C   C262      1.0  0.11926  0.47498  0.29552  1.0000
  N   N20       1.0  0.05240  0.34704  0.30775  1.0000
  C   C263      1.0  0.06350  0.34570  0.29006  1.0000
  C   C264      1.0  0.04719  0.36431  0.31402  1.0000
  C   C265      1.0  0.06920  0.36205  0.27791  1.0000
  C   C266      1.0  0.05285  0.38090  0.30230  1.0000
  C   C267      1.0  0.06398  0.37970  0.28415  1.0000
  C   C268      1.0  0.04705  0.32960  0.32034  1.0000
  H   H266      1.0  0.06824  0.33190  0.28535  1.0000
  H   H267      1.0  0.03864  0.36537  0.32817  1.0000
  H   H268      1.0  0.07812  0.36095  0.26393  1.0000
  H   H269      1.0  0.04863  0.39455  0.30734  1.0000
  H   H270      1.0  0.06880  0.39234  0.27498  1.0000
  H   H271      1.0  0.04249  0.32046  0.31219  1.0000
  H   H272      1.0  0.05967  0.32128  0.32678  1.0000
  H   H273      1.0  0.03490  0.33295  0.33217  1.0000
  C   C269      1.0  0.30463  0.35525  0.98593  1.0000
  S   S92       1.0  0.10442  0.24376  0.30176  1.0000
  C   C270      1.0  0.11736  0.47170  0.03753  1.0000
  C   C271      1.0  0.20361  0.34512  0.13787  1.0000
  C   C272      1.0  0.31442  0.33094  0.09094  1.0000
  N   N21       1.0  0.16231  0.45776  0.10604  1.0000
  H   H274      1.0  0.30559  0.38372  0.04093  1.0000
  C   C273      1.0  0.14299  0.45153  0.13733  1.0000
  H   H275      1.0  0.17957  0.29540  0.29369  1.0000
  H   H276      1.0  0.32041  0.34957  0.98381  1.0000
  S   S93       1.0  0.31333  0.43576  0.98607  1.0000
  H   H277      1.0  0.30446  0.32811  0.04992  1.0000
  C   C274      1.0  0.27632  0.34170  0.04358  1.0000
  C   C275      1.0  0.17075  0.47114  0.08986  1.0000
  H   H278      1.0  0.99715  0.46970  0.36077  1.0000
  Fe  Fe44      1.0  0.06561  0.47768  0.36380  1.0000
  S   S94       1.0  0.99816  0.31678  0.38905  1.0000
  C   C276      1.0  0.15857  0.24177  0.28655  1.0000
  C   C277      1.0  0.18877  0.24031  0.29762  1.0000
  H   H279      1.0  0.15442  0.38196  0.98775  1.0000
  H   H280      1.0  0.30265  0.37110  0.98129  1.0000
  C   C278      1.0  0.11855  0.47694  0.27599  1.0000
  H   H281      1.0  0.16776  0.41192  0.98227  1.0000
  H   H282      1.0  0.16659  0.46971  0.07638  1.0000
  C   C279      1.0  0.09721  0.47540  0.03949  1.0000
  C   C280      1.0  0.99480  0.27856  0.36297  1.0000
  H   H283      1.0  0.18677  0.46804  0.08834  1.0000
  H   H284      1.0  0.17007  0.35675  0.96805  1.0000
  Fe  Fe45      1.0  0.11164  0.23849  0.84547  1.0000
  H   H285      1.0  0.27910  0.26968  0.63662  1.0000
  H   H286      1.0  0.22677  0.27953  0.86377  1.0000
  H   H287      1.0  0.24560  0.34340  0.81334  1.0000
  Fe  Fe46      1.0  0.01465  0.36591  0.86052  1.0000
  H   H288      1.0  0.26535  0.29354  0.63657  1.0000
  S   S95       1.0  0.11552  0.40756  0.96966  1.0000
  H   H289      1.0  0.10401  0.31745  0.82459  1.0000
  C   C281      1.0  0.30454  0.27225  0.67961  1.0000
  H   H290      1.0  0.21944  0.34037  0.79715  1.0000
  H   H291      1.0  0.11675  0.39261  0.89966  1.0000
  H   H292      1.0  0.07506  0.38498  0.96026  1.0000
  Fe  Fe47      1.0  0.12819  0.23969  0.80306  1.0000
  C   C282      1.0  0.21919  0.30011  0.83131  1.0000
  H   H293      1.0  0.29740  0.25639  0.66100  1.0000
  C   C283      1.0  0.28928  0.37902  0.86966  1.0000
  C   C284      1.0  0.31119  0.26502  0.59095  1.0000
  Fe  Fe48      1.0  0.24369  0.35792  0.85764  1.0000
  S   S96       1.0  0.24256  0.33353  0.88267  1.0000
  S   S97       1.0  0.27063  0.35323  0.83528  1.0000
  Fe  Fe49      1.0  0.20531  0.37983  0.87498  1.0000
  S   S98       1.0  0.20160  0.35708  0.90094  1.0000
  S   S99       1.0  0.18328  0.40697  0.87344  1.0000
  Fe  Fe50      1.0  0.23305  0.35671  0.90080  1.0000
  S   S100      1.0  0.24224  0.36156  0.92736  1.0000
  Fe  Fe51      1.0  0.21129  0.33656  0.87983  1.0000
  S   S101      1.0  0.19782  0.31016  0.88141  1.0000
  S   S102      1.0  0.23601  0.38079  0.87590  1.0000
  S   S103      1.0  0.21316  0.35955  0.85369  1.0000
  C   C285      1.0  0.29244  0.24423  0.58266  1.0000
  C   C286      1.0  0.03672  0.40037  0.92672  1.0000
  S   S104      1.0  0.01136  0.38950  0.87745  1.0000
  S   S105      1.0  0.06327  0.42712  0.95558  1.0000
  S   S106      1.0  0.03510  0.36509  0.83250  1.0000
  Fe  Fe52      1.0  0.13137  0.27222  0.82378  1.0000
  S   S107      1.0  0.12049  0.27208  0.79657  1.0000
  S   S108      1.0  0.14654  0.29689  0.82462  1.0000
  C   C287      1.0  0.02373  0.23468  0.87980  1.0000
  Fe  Fe53      1.0  0.09246  0.26805  0.81625  1.0000
  S   S109      1.0  0.06197  0.28144  0.81282  1.0000
  S   S110      1.0  0.10247  0.27040  0.84273  1.0000
  C   C288      1.0  0.10138  0.32072  0.86218  1.0000
  C   C289      1.0  0.04273  0.34167  0.82746  1.0000
  C   C290      1.0  0.05872  0.33785  0.81309  1.0000
  C   C291      1.0  0.06523  0.31914  0.80912  1.0000
  C   C292      1.0  0.05540  0.30434  0.81916  1.0000
  C   C293      1.0  0.03936  0.30814  0.83348  1.0000
  C   C294      1.0  0.03310  0.32676  0.83772  1.0000
  H   H294      1.0  0.06597  0.34942  0.80490  1.0000
  H   H295      1.0  0.07744  0.31631  0.79783  1.0000
  H   H296      1.0  0.03174  0.29671  0.84130  1.0000
  H   H297      1.0  0.02061  0.32965  0.84867  1.0000
  C   C295      1.0  0.15988  0.30045  0.84132  1.0000
  C   C296      1.0  0.16560  0.31836  0.83903  1.0000
  C   C297      1.0  0.17674  0.32176  0.85145  1.0000
  C   C298      1.0  0.18243  0.30721  0.86631  1.0000
  C   C299      1.0  0.17651  0.28937  0.86874  1.0000
  C   C300      1.0  0.16528  0.28601  0.85638  1.0000
  H   H298      1.0  0.16153  0.32968  0.82746  1.0000
  H   H299      1.0  0.18114  0.33555  0.84935  1.0000
  H   H300      1.0  0.18077  0.27800  0.88020  1.0000
  H   H301      1.0  0.16101  0.27216  0.85837  1.0000
  C   C301      1.0  0.26632  0.36299  0.92825  1.0000
  C   C302      1.0  0.28201  0.35042  0.92011  1.0000
  C   C303      1.0  0.30078  0.35031  0.92298  1.0000
  C   C304      1.0  0.30420  0.36325  0.93337  1.0000
  C   C305      1.0  0.28861  0.37635  0.94089  1.0000
  C   C306      1.0  0.26971  0.37593  0.93867  1.0000
  H   H302      1.0  0.27956  0.34017  0.91234  1.0000
  H   H303      1.0  0.09761  0.34286  0.81671  1.0000
  H   H304      1.0  0.29102  0.38643  0.94887  1.0000
  H   H305      1.0  0.25765  0.38560  0.94517  1.0000
  H   H306      1.0  0.02601  0.40476  0.91748  1.0000
  C   C307      1.0  0.16159  0.43256  0.92817  1.0000
  C   C308      1.0  0.15910  0.41390  0.92806  1.0000
  C   C309      1.0  0.16701  0.40532  0.91170  1.0000
  C   C310      1.0  0.17675  0.41570  0.89524  1.0000
  C   C311      1.0  0.17932  0.43424  0.89552  1.0000
  C   C312      1.0  0.17212  0.44247  0.91205  1.0000
  H   H307      1.0  0.15108  0.40609  0.94047  1.0000
  H   H308      1.0  0.16477  0.39106  0.91148  1.0000
  H   H309      1.0  0.18674  0.44234  0.88282  1.0000
  C   C313      1.0  0.23859  0.28776  0.85686  1.0000
  H   H310      1.0  0.29597  0.41178  0.97003  1.0000
  S   S111      1.0  0.14147  0.24014  0.82863  1.0000
  H   H311      1.0  0.31048  0.29204  0.69520  1.0000
  C   C314      1.0  0.31523  0.38619  0.88948  1.0000
  H   H312      1.0  0.11368  0.30936  0.85944  1.0000
  H   H313      1.0  0.28980  0.28975  0.62323  1.0000
  C   C315      1.0  0.23811  0.33123  0.81824  1.0000
  N   N22       1.0  0.30798  0.36954  0.86717  1.0000
  H   H314      1.0  0.05726  0.25732  0.84934  1.0000
  H   H315      1.0  0.27908  0.37634  0.86186  1.0000
  H   H316      1.0  0.09587  0.40580  0.92766  1.0000
  H   H317      1.0  0.13492  0.46594  0.90495  1.0000
  H   H318      1.0  0.03605  0.42918  0.93104  1.0000
  C   C316      1.0  0.05632  0.40886  0.94662  1.0000
  H   H319      1.0  0.24102  0.29483  0.86815  1.0000
  C   C317      1.0  0.21400  0.31379  0.81562  1.0000
  S   S112      1.0  0.02101  0.34209  0.88475  1.0000
  C   C318      1.0  0.13000  0.41776  0.88916  1.0000
  N   N23       1.0  0.28773  0.28657  0.65328  1.0000
  H   H320      1.0  0.25416  0.31886  0.84103  1.0000
  C   C319      1.0  0.29361  0.40358  0.79332  1.0000
  C   C320      1.0  0.30319  0.38470  0.79267  1.0000
  C   C321      1.0  0.29593  0.36938  0.80558  1.0000
  C   C322      1.0  0.27914  0.37284  0.81925  1.0000
  C   C323      1.0  0.26969  0.39172  0.82008  1.0000
  C   C324      1.0  0.27691  0.40703  0.80712  1.0000
  H   H321      1.0  0.18822  0.43279  0.96328  1.0000
  H   H322      1.0  0.30331  0.35479  0.80486  1.0000
  H   H323      1.0  0.25670  0.39454  0.83051  1.0000
  H   H324      1.0  0.28077  0.31718  0.64802  1.0000
  C   C325      1.0  0.06446  0.38940  0.95089  1.0000
  H   H325      1.0  0.07412  0.35830  0.83877  1.0000
  H   H326      1.0  0.20236  0.42686  0.94125  1.0000
  H   H327      1.0  0.21149  0.28814  0.83646  1.0000
  H   H328      1.0  0.11983  0.33334  0.82564  1.0000
  C   C326      1.0  0.10705  0.43228  0.92058  1.0000
  C   C327      1.0  0.11743  0.40678  0.90193  1.0000
  C   C328      1.0  0.22348  0.32950  0.80914  1.0000
  C   C329      1.0  0.04246  0.41421  0.93446  1.0000
  C   C330      1.0  0.10447  0.33180  0.82756  1.0000
  C   C331      1.0  0.10580  0.41411  0.91769  1.0000
  C   C332      1.0  0.29490  0.30664  0.67242  1.0000
  H   H329      1.0  0.04276  0.24772  0.82559  1.0000
  H   H330      1.0  0.17421  0.45684  0.91209  1.0000
  N   N24       1.0  0.11972  0.44277  0.90824  1.0000
  C   C333      1.0  0.12064  0.46183  0.91153  1.0000
  H   H331      1.0  0.09787  0.43790  0.93281  1.0000
  H   H332      1.0  0.14097  0.44414  0.88267  1.0000
  H   H333      1.0  0.31272  0.34004  0.91722  1.0000
  H   H334      1.0  0.21179  0.39195  0.93795  1.0000
  N   N25       1.0  0.03888  0.24440  0.87352  1.0000
  H   H335      1.0  0.05787  0.36121  0.87195  1.0000
  C   C334      1.0  0.07940  0.34804  0.85059  1.0000
  C   C335      1.0  0.07015  0.34980  0.86934  1.0000
  H   H336      1.0  0.26802  0.39916  0.88477  1.0000
  C   C336      1.0  0.04481  0.38091  0.93102  1.0000
  S   S113      1.0  0.30201  0.42322  0.77722  1.0000
  Fe  Fe54      1.0  0.01590  0.36556  0.90232  1.0000
  C   C337      1.0  0.05876  0.37557  0.94310  1.0000
  C   C338      1.0  0.09245  0.32207  0.88114  1.0000
  H   H337      1.0  0.31603  0.38190  0.78205  1.0000
  H   H338      1.0  0.02381  0.29509  0.80348  1.0000
  C   C339      1.0  0.19203  0.37276  0.95172  1.0000
  H   H339      1.0  0.19916  0.36180  0.94312  1.0000
  H   H340      1.0  0.01616  0.26777  0.79234  1.0000
  H   H341      1.0  0.20243  0.31237  0.80883  1.0000
  N   N26       1.0  0.23322  0.30219  0.84046  1.0000
  C   C340      1.0  0.13088  0.43589  0.89249  1.0000
  H   H342      1.0  0.13943  0.41210  0.87702  1.0000
  C   C341      1.0  0.19868  0.42118  0.95683  1.0000
  C   C342      1.0  0.17581  0.36992  0.96572  1.0000
  H   H343      1.0  0.31524  0.36415  0.83863  1.0000
  N   N27       1.0  0.19046  0.40370  0.95974  1.0000
  C   C343      1.0  0.31286  0.25275  0.60847  1.0000
  Fe  Fe55      1.0  0.08598  0.42577  0.97403  1.0000
  C   C344      1.0  0.24285  0.31733  0.83395  1.0000
  C   C345      1.0  0.30102  0.26077  0.57815  1.0000
  H   H344      1.0  0.06954  0.33796  0.89931  1.0000
  N   N28       1.0  0.09476  0.33359  0.84722  1.0000
  C   C346      1.0  0.28004  0.28482  0.63666  1.0000
  H   H345      1.0  0.25188  0.27767  0.85219  1.0000
  H   H346      1.0  0.26942  0.42162  0.80765  1.0000
  C   C347      1.0  0.04536  0.24946  0.85431  1.0000
  H   H347      1.0  0.31945  0.34913  0.70366  1.0000
  H   H348      1.0  0.09772  0.31185  0.89299  1.0000
  S   S114      1.0  0.15169  0.44422  0.94797  1.0000
  C   C348      1.0  0.07670  0.33671  0.88470  1.0000
  H   H349      1.0  0.21187  0.41800  0.96342  1.0000
  S   S115      1.0  0.03825  0.36276  0.92158  1.0000
  H   H350      1.0  0.29978  0.27038  0.56465  1.0000
  C   C349      1.0  0.30376  0.29043  0.68368  1.0000
  H   H351      1.0  0.06508  0.36058  0.94662  1.0000
  C   C350      1.0  0.19919  0.38984  0.94890  1.0000
  C   C351      1.0  0.00555  0.27538  0.80249  1.0000
  H   H352      1.0  0.15887  0.23803  0.51888  1.0000
  H   H353      1.0  0.04710  0.23932  0.90105  1.0000
  H   H354      1.0  0.31759  0.27784  0.58731  1.0000
  C   C352      1.0  0.04791  0.24988  0.88743  1.0000
  H   H355      1.0  0.11884  0.46196  0.92716  1.0000
  C   C353      1.0  0.17466  0.40095  0.97366  1.0000
  S   S116      1.0  0.09927  0.23594  0.82056  1.0000
  C   C354      1.0  0.30434  0.23619  0.61294  1.0000
  C   C355      1.0  0.03717  0.24408  0.84080  1.0000
  C   C356      1.0  0.28300  0.39208  0.88241  1.0000
  C   C357      1.0  0.00987  0.29066  0.80879  1.0000
  H   H356      1.0  0.10908  0.47270  0.90550  1.0000
  S   S117      1.0  0.28057  0.23915  0.56558  1.0000
  H   H357      1.0  0.06355  0.25005  0.88189  1.0000
  C   C358      1.0  0.29631  0.27056  0.66433  1.0000
  C   C359      1.0  0.99612  0.30028  0.82188  1.0000
  C   C360      1.0  0.16704  0.38407  0.97680  1.0000
  C   C361      1.0  0.28706  0.30445  0.65709  1.0000
  C   C362      1.0  0.31411  0.35607  0.85358  1.0000
  Fe  Fe56      1.0  0.12656  0.43434  0.96923  1.0000
  C   C363      1.0  0.32096  0.37304  0.87680  1.0000
  S   S118      1.0  0.09735  0.45321  0.97157  1.0000
  H   H358      1.0  0.04061  0.26435  0.89047  1.0000
  H   H359      1.0  0.99937  0.31218  0.82688  1.0000
  H   H360      1.0  0.31190  0.25960  0.68793  1.0000
  H   H361      1.0  0.29135  0.40542  0.90263  1.0000
  H   H362      1.0  0.30338  0.34646  0.85574  1.0000
  C   C364      1.0  0.29609  0.39566  0.89236  1.0000
  H   H363      1.0  0.29472  0.32086  0.67521  1.0000
  H   H364      1.0  0.29841  0.34909  0.97628  1.0000
  C   C365      1.0  0.02208  0.23369  0.84707  1.0000
  S   S119      1.0  0.32458  0.25769  0.62573  1.0000
  H   H365      1.0  0.13590  0.66417  0.37902  1.0000
  H   H366      1.0  0.20379  0.63300  0.45869  1.0000
  S   S120      1.0  0.12841  0.69832  0.13024  1.0000
  C   C366      1.0  0.29914  0.63055  0.37823  1.0000
  C   C367      1.0  0.06102  0.60290  0.31015  1.0000
  S   S121      1.0  0.29919  0.63131  0.35383  1.0000
  C   C368      1.0  0.05617  0.55837  0.05191  1.0000
  C   C369      1.0  0.22274  0.61977  0.40832  1.0000
  C   C370      1.0  0.22825  0.63511  0.41348  1.0000
  H   H367      1.0  0.07416  0.49320  0.19282  1.0000
  C   C371      1.0  0.06537  0.57560  0.35960  1.0000
  H   H368      1.0  0.27955  0.65599  0.47175  1.0000
  H   H369      1.0  0.03830  0.54918  0.34631  1.0000
  C   C372      1.0  0.16111  0.49242  0.26012  1.0000
  H   H370      1.0  0.07546  0.60049  0.34180  1.0000
  H   H371      1.0  0.17791  0.70063  0.24526  1.0000
  Fe  Fe57      1.0  0.07730  0.51075  0.33234  1.0000
  S   S122      1.0  0.10622  0.50762  0.34040  1.0000
  S   S123      1.0  0.07077  0.53310  0.30678  1.0000
  Fe  Fe58      1.0  0.09003  0.50574  0.37082  1.0000
  S   S124      1.0  0.09230  0.53039  0.38542  1.0000
  S   S125      1.0  0.06075  0.50980  0.36231  1.0000
  Fe  Fe59      1.0  0.14099  0.63799  0.22915  1.0000
  S   S126      1.0  0.16833  0.62071  0.21529  1.0000
  S   S127      1.0  0.12856  0.66899  0.21896  1.0000
  Fe  Fe60      1.0  0.13586  0.60699  0.26441  1.0000
  S   S128      1.0  0.16260  0.58763  0.25323  1.0000
  S   S129      1.0  0.12049  0.59795  0.29444  1.0000
  Fe  Fe61      1.0  0.17613  0.61420  0.24498  1.0000
  S   S130      1.0  0.20547  0.61460  0.25218  1.0000
  Fe  Fe62      1.0  0.15184  0.59597  0.22496  1.0000
  S   S131      1.0  0.15043  0.57073  0.21105  1.0000
  S   S132      1.0  0.14992  0.63292  0.25791  1.0000
  S   S133      1.0  0.12403  0.61382  0.23703  1.0000
  Fe  Fe63      1.0  0.08707  0.56311  0.09315  1.0000
  S   S134      1.0  0.11917  0.55418  0.08564  1.0000
  S   S135      1.0  0.07570  0.58864  0.07206  1.0000
  Fe  Fe64      1.0  0.08551  0.53325  0.12950  1.0000
  S   S136      1.0  0.11741  0.52243  0.12442  1.0000
  Fe  Fe65      1.0  0.11954  0.55380  0.11680  1.0000
  S   S137      1.0  0.13703  0.57185  0.12627  1.0000
  Fe  Fe66      1.0  0.11328  0.52386  0.09402  1.0000
  S   S138      1.0  0.08775  0.56446  0.12355  1.0000
  S   S139      1.0  0.08108  0.53285  0.09974  1.0000
  Fe  Fe67      1.0  0.26825  0.69665  0.33154  1.0000
  H   H372      1.0  0.30738  0.68168  0.34026  1.0000
  C   C373      1.0  0.09547  0.49399  0.06468  1.0000
  Fe  Fe68      1.0  0.23700  0.67748  0.36059  1.0000
  S   S140      1.0  0.24374  0.65094  0.34741  1.0000
  S   S141      1.0  0.21388  0.68019  0.38687  1.0000
  Fe  Fe69      1.0  0.27461  0.65393  0.34478  1.0000
  Fe  Fe70      1.0  0.24404  0.67148  0.31929  1.0000
  S   S142      1.0  0.22274  0.67240  0.29935  1.0000
  S   S143      1.0  0.26785  0.67864  0.36066  1.0000
  S   S144      1.0  0.23638  0.69819  0.33287  1.0000
  Fe  Fe71      1.0  0.14036  0.61564  0.43155  1.0000
  S   S145      1.0  0.15946  0.59064  0.44575  1.0000
  S   S146      1.0  0.15181  0.62640  0.40060  1.0000
  S   S147      1.0  0.99669  0.71923  0.04741  1.0000
  Fe  Fe72      1.0  0.13214  0.57801  0.45554  1.0000
  S   S148      1.0  0.13238  0.54808  0.44946  1.0000
  S   S149      1.0  0.13337  0.63080  0.45657  1.0000
  S   S150      1.0  0.11349  0.60277  0.44027  1.0000
  H   H373      1.0  0.31576  0.67085  0.40548  1.0000
  C   C374      1.0  0.29984  0.72163  0.35454  1.0000
  H   H374      1.0  0.04187  0.57368  0.31703  1.0000
  C   C375      1.0  0.19703  0.66474  0.39082  1.0000
  C   C376      1.0  0.18449  0.66234  0.40848  1.0000
  C   C377      1.0  0.17107  0.64995  0.41191  1.0000
  C   C378      1.0  0.16983  0.64029  0.39750  1.0000
  C   C379      1.0  0.18234  0.64271  0.37988  1.0000
  C   C380      1.0  0.19594  0.65485  0.37657  1.0000
  H   H375      1.0  0.18518  0.67001  0.41955  1.0000
  H   H376      1.0  0.16137  0.64827  0.42551  1.0000
  H   H377      1.0  0.18137  0.63540  0.36862  1.0000
  H   H378      1.0  0.20504  0.65705  0.36272  1.0000
  C   C381      1.0  0.28192  0.63803  0.40914  1.0000
  H   H379      1.0  0.26857  0.64027  0.38457  1.0000
  H   H380      1.0  0.26858  0.64296  0.41819  1.0000
  C   C382      1.0  0.21749  0.65446  0.28874  1.0000
  C   C383      1.0  0.19946  0.65750  0.28292  1.0000
  C   C384      1.0  0.19515  0.64474  0.27281  1.0000
  C   C385      1.0  0.20904  0.62901  0.26785  1.0000
  C   C386      1.0  0.22696  0.62576  0.27396  1.0000
  C   C387      1.0  0.23111  0.63829  0.28450  1.0000
  H   H381      1.0  0.18887  0.67005  0.28587  1.0000
  H   H382      1.0  0.18139  0.64758  0.26812  1.0000
  H   H383      1.0  0.23785  0.61368  0.27018  1.0000
  H   H384      1.0  0.24510  0.63580  0.28873  1.0000
  C   C388      1.0  0.14627  0.57161  0.18749  1.0000
  C   C389      1.0  0.14359  0.58883  0.17446  1.0000
  C   C390      1.0  0.14052  0.58872  0.15586  1.0000
  C   C391      1.0  0.13962  0.57150  0.15023  1.0000
  C   C392      1.0  0.14207  0.55433  0.16335  1.0000
  C   C393      1.0  0.14558  0.55438  0.18177  1.0000
  H   H385      1.0  0.14421  0.60218  0.17858  1.0000
  H   H386      1.0  0.13898  0.60204  0.14574  1.0000
  H   H387      1.0  0.14194  0.54092  0.15907  1.0000
  H   H388      1.0  0.14790  0.54093  0.19157  1.0000
  C   C394      1.0  0.10265  0.53438  0.40427  1.0000
  C   C395      1.0  0.11388  0.51973  0.41527  1.0000
  C   C396      1.0  0.12250  0.52407  0.42932  1.0000
  C   C397      1.0  0.12010  0.54306  0.43254  1.0000
  C   C398      1.0  0.10870  0.55761  0.42164  1.0000
  C   C399      1.0  0.10009  0.55330  0.40765  1.0000
  H   H389      1.0  0.11600  0.50509  0.41292  1.0000
  H   H390      1.0  0.13121  0.51263  0.43767  1.0000
  H   H391      1.0  0.10649  0.57223  0.42394  1.0000
  H   H392      1.0  0.09144  0.56477  0.39934  1.0000
  C   C400      1.0  0.08564  0.55034  0.30276  1.0000
  C   C401      1.0  0.09283  0.55365  0.31802  1.0000
  C   C402      1.0  0.10397  0.56797  0.31515  1.0000
  C   C403      1.0  0.10815  0.57897  0.29696  1.0000
  C   C404      1.0  0.10145  0.57541  0.28149  1.0000
  C   C405      1.0  0.08999  0.56122  0.28446  1.0000
  H   H393      1.0  0.08899  0.54584  0.33232  1.0000
  H   H394      1.0  0.10897  0.57084  0.32715  1.0000
  H   H395      1.0  0.10455  0.58400  0.26742  1.0000
  H   H396      1.0  0.08440  0.55874  0.27262  1.0000
  C   C406      1.0  0.15159  0.53216  0.25260  1.0000
  H   H397      1.0  0.16137  0.52976  0.22272  1.0000
  H   H398      1.0  0.17963  0.67253  0.32118  1.0000
  H   H399      1.0  0.10961  0.71591  0.16370  1.0000
  C   C407      1.0  0.11276  0.51676  0.22209  1.0000
  C   C408      1.0  0.20352  0.61386  0.43986  1.0000
  C   C409      1.0  0.01147  0.61513  0.07942  1.0000
  C   C410      1.0  0.01789  0.59805  0.09144  1.0000
  C   C411      1.0  0.03763  0.59001  0.08963  1.0000
  C   C412      1.0  0.05102  0.59893  0.07561  1.0000
  C   C413      1.0  0.04465  0.61605  0.06362  1.0000
  C   C414      1.0  0.02493  0.62421  0.06559  1.0000
  H   H400      1.0  0.00751  0.59100  0.10217  1.0000
  H   H401      1.0  0.04241  0.57682  0.09895  1.0000
  H   H402      1.0  0.05497  0.62295  0.05268  1.0000
  H   H403      1.0  0.09281  0.55558  0.05498  1.0000
  C   C415      1.0  0.12749  0.69019  0.15502  1.0000
  C   C416      1.0  0.13763  0.67189  0.16130  1.0000
  C   C417      1.0  0.13774  0.66509  0.18094  1.0000
  C   C418      1.0  0.12793  0.67673  0.19435  1.0000
  C   C419      1.0  0.11785  0.69509  0.18807  1.0000
  C   C420      1.0  0.11749  0.70178  0.16843  1.0000
  H   H404      1.0  0.14543  0.66289  0.15096  1.0000
  H   H405      1.0  0.14552  0.65092  0.18566  1.0000
  H   H406      1.0  0.11020  0.70411  0.19844  1.0000
  C   C421      1.0  0.22697  0.65624  0.43630  1.0000
  H   H407      1.0  0.08494  0.51521  0.01093  1.0000
  N   N29       1.0  0.07299  0.54650  0.04217  1.0000
  C   C422      1.0  0.03190  0.70014  0.05730  1.0000
  H   H408      1.0  0.15309  0.72500  0.10919  1.0000
  C   C423      1.0  0.20309  0.67958  0.23742  1.0000
  Fe  Fe73      1.0  0.10946  0.72540  0.11828  1.0000
  C   C424      1.0  0.06703  0.58944  0.34287  1.0000
  H   H409      1.0  0.02800  0.68711  0.05539  1.0000
  H   H410      1.0  0.28771  0.71512  0.36264  1.0000
  H   H411      1.0  0.20551  0.59742  0.41772  1.0000
  N   N30       1.0  0.00733  0.70500  0.99912  1.0000
  C   C425      1.0  0.15911  0.52207  0.23737  1.0000
  H   H412      1.0  0.23762  0.64358  0.40293  1.0000
  H   H413      1.0  0.10223  0.51409  0.17935  1.0000
  H   H414      1.0  0.05649  0.53518  0.02733  1.0000
  N   N31       1.0  0.10251  0.65672  0.10213  1.0000
  C   C426      1.0  0.08832  0.65769  0.09184  1.0000
  C   C427      1.0  0.11166  0.63929  0.11037  1.0000
  C   C428      1.0  0.08329  0.64088  0.08919  1.0000
  C   C429      1.0  0.10704  0.62221  0.10795  1.0000
  C   C430      1.0  0.09279  0.62304  0.09726  1.0000
  C   C431      1.0  0.10731  0.67443  0.10516  1.0000
  H   H415      1.0  0.08087  0.67154  0.08560  1.0000
  H   H416      1.0  0.12266  0.63850  0.11884  1.0000
  H   H417      1.0  0.07210  0.64159  0.08096  1.0000
  H   H418      1.0  0.11446  0.60839  0.11433  1.0000
  H   H419      1.0  0.08908  0.60989  0.09527  1.0000
  H   H420      1.0  0.10357  0.68677  0.09369  1.0000
  H   H421      1.0  0.09936  0.67807  0.11923  1.0000
  H   H422      1.0  0.12304  0.67283  0.10503  1.0000
  N   N32       1.0  0.21036  0.66397  0.22856  1.0000
  C   C432      1.0  0.11007  0.50856  0.20727  1.0000
  H   H423      1.0  0.14796  0.54772  0.24945  1.0000
  H   H424      1.0  0.14839  0.52779  0.29910  1.0000
  H   H425      1.0  0.04231  0.55470  0.05068  1.0000
  S   S151      1.0  0.07017  0.52020  0.15791  1.0000
  H   H426      1.0  0.23976  0.65108  0.44350  1.0000
  C   C433      1.0  0.19902  0.65733  0.21937  1.0000
  H   H427      1.0  0.23254  0.63914  0.22822  1.0000
  H   H428      1.0  0.02008  0.63734  0.05626  1.0000
  C   C434      1.0  0.21017  0.60917  0.42159  1.0000
  H   H429      1.0  0.05665  0.55636  0.06746  1.0000
  C   C435      1.0  0.15355  0.50294  0.27501  1.0000
  H   H430      1.0  0.10124  0.56373  0.20259  1.0000
  N   N33       1.0  0.14897  0.56643  0.38863  1.0000
  C   C436      1.0  0.14185  0.57957  0.37410  1.0000
  C   C437      1.0  0.14977  0.54721  0.38945  1.0000
  C   C438      1.0  0.13523  0.57356  0.35988  1.0000
  C   C439      1.0  0.14317  0.54072  0.37556  1.0000
  C   C440      1.0  0.13574  0.55399  0.36078  1.0000
  C   C441      1.0  0.15491  0.57326  0.40377  1.0000
  H   H431      1.0  0.14111  0.59482  0.37361  1.0000
  H   H432      1.0  0.12155  0.53556  0.03911  1.0000
  H   H433      1.0  0.12959  0.58398  0.34834  1.0000
  H   H434      1.0  0.11139  0.48622  0.30336  1.0000
  H   H435      1.0  0.13014  0.54908  0.35024  1.0000
  C   C442      1.0  0.08680  0.52439  0.02026  1.0000
  C   C443      1.0  0.10735  0.53577  0.03608  1.0000
  S   S152      1.0  0.12778  0.50017  0.07636  1.0000
  H   H436      1.0  0.04868  0.61507  0.31079  1.0000
  H   H437      1.0  0.11170  0.54329  0.23175  1.0000
  H   H438      1.0  0.22794  0.61639  0.39400  1.0000
  H   H439      1.0  0.11735  0.50761  0.23483  1.0000
  C   C444      1.0  0.29924  0.63362  0.41627  1.0000
  S   S153      1.0  0.28616  0.72064  0.32159  1.0000
  H   H440      1.0  0.15702  0.68847  0.22879  1.0000
  H   H441      1.0  0.21205  0.68477  0.24482  1.0000
  N   N34       1.0  0.22117  0.63999  0.43122  1.0000
  H   H442      1.0  0.01469  0.67773  0.99007  1.0000
  H   H443      1.0  0.11769  0.51546  0.01668  1.0000
  S   S154      1.0  0.27604  0.67193  0.31530  1.0000
  C   C445      1.0  0.20922  0.62938  0.44449  1.0000
  C   C446      1.0  0.23066  0.65483  0.22817  1.0000
  H   H444      1.0  0.16199  0.56126  0.41375  1.0000
  C   C447      1.0  0.17979  0.66623  0.21914  1.0000
  C   C448      1.0  0.05487  0.56111  0.36093  1.0000
  C   C449      1.0  0.30273  0.72513  0.33446  1.0000
  H   H445      1.0  0.07474  0.60848  0.30799  1.0000
  C   C450      1.0  0.05023  0.69970  0.06152  1.0000
  H   H446      1.0  0.19387  0.60566  0.45038  1.0000
  Fe  Fe74      1.0  0.15094  0.60491  0.47195  1.0000
  N   N35       1.0  0.05878  0.58858  0.32775  1.0000
  C   C451      1.0  0.17209  0.68181  0.22856  1.0000
  H   H447      1.0  0.05387  0.55007  0.37369  1.0000
  C   C452      1.0  0.00419  0.69088  0.99082  1.0000
  N   N36       1.0  0.14894  0.52255  0.27114  1.0000
  C   C453      1.0  0.10949  0.53672  0.22042  1.0000
  C   C454      1.0  0.28189  0.63657  0.39016  1.0000
  H   H448      1.0  0.17076  0.66101  0.21187  1.0000
  H   H449      1.0  0.23582  0.65621  0.24117  1.0000
  C   C455      1.0  0.32302  0.67605  0.33994  1.0000
  C   C456      1.0  0.07074  0.53555  0.02978  1.0000
  H   H450      1.0  0.08504  0.49290  0.13220  1.0000
  H   H451      1.0  0.16511  0.58343  0.39749  1.0000
  H   H452      1.0  0.20471  0.64482  0.21251  1.0000
  H   H453      1.0  0.07247  0.57578  0.37134  1.0000
  H   H454      1.0  0.14311  0.52552  0.37668  1.0000
  H   H455      1.0  0.10299  0.54636  0.15908  1.0000
  Fe  Fe75      1.0  0.10853  0.61506  0.46732  1.0000
  C   C457      1.0  0.04611  0.56064  0.34564  1.0000
  H   H456      1.0  0.21497  0.66378  0.44596  1.0000
  H   H457      1.0  0.12508  0.53114  0.29213  1.0000
  H   H458      1.0  0.06039  0.68633  0.06248  1.0000
  H   H459      1.0  0.05613  0.57381  0.04572  1.0000
  N   N37       1.0  0.15539  0.68319  0.36423  1.0000
  C   C458      1.0  0.16590  0.69599  0.36650  1.0000
  C   C459      1.0  0.15994  0.67504  0.34804  1.0000
  C   C460      1.0  0.18162  0.70069  0.35249  1.0000
  C   C461      1.0  0.17561  0.67939  0.33377  1.0000
  C   C462      1.0  0.18639  0.69238  0.33600  1.0000
  C   C463      1.0  0.13878  0.67870  0.37895  1.0000
  H   H460      1.0  0.16255  0.70221  0.37945  1.0000
  H   H461      1.0  0.15172  0.66480  0.34627  1.0000
  H   H462      1.0  0.19038  0.71029  0.35464  1.0000
  C   C464      1.0  0.31841  0.67350  0.37478  1.0000
  H   H463      1.0  0.16569  0.48636  0.09178  1.0000
  C   C465      1.0  0.10424  0.52051  0.19088  1.0000
  C   C466      1.0  0.07879  0.49536  0.16211  1.0000
  H   H464      1.0  0.14670  0.72537  0.14398  1.0000
  H   H465      1.0  0.12572  0.68953  0.37636  1.0000
  C   C467      1.0  0.31652  0.62725  0.40446  1.0000
  C   C468      1.0  0.18379  0.68860  0.23776  1.0000
  H   H466      1.0  0.02763  0.71490  0.10536  1.0000
  H   H467      1.0  0.99762  0.71363  0.09415  1.0000
  H   H468      1.0  0.14058  0.54877  0.28256  1.0000
  H   H469      1.0  0.06180  0.59642  0.29731  1.0000
  H   H470      1.0  0.23980  0.66146  0.21518  1.0000
  S   S155      1.0  0.29869  0.63678  0.43982  1.0000
  C   C469      1.0  0.04815  0.57461  0.32909  1.0000
  N   N38       1.0  0.10118  0.54006  0.18930  1.0000
  H   H471      1.0  0.02387  0.69138  0.02071  1.0000
  H   H472      1.0  0.07919  0.55248  0.17277  1.0000
  C   C470      1.0  0.10350  0.54823  0.20389  1.0000
  C   C471      1.0  0.01902  0.71754  0.05484  1.0000
  C   C472      1.0  0.14033  0.53311  0.28698  1.0000
  C   C473      1.0  0.16375  0.50206  0.24118  1.0000
  H   H473      1.0  0.15491  0.53681  0.40126  1.0000
  H   H474      1.0  0.15121  0.49526  0.28968  1.0000
  C   C474      1.0  0.08636  0.48642  0.05327  1.0000
  C   C475      1.0  0.10520  0.52451  0.02349  1.0000
  H   H475      1.0  0.14158  0.67845  0.39353  1.0000
  C   C476      1.0  0.09101  0.54683  0.04524  1.0000
  C   C477      1.0  0.05556  0.71645  0.06418  1.0000
  C   C478      1.0  0.09483  0.55217  0.17207  1.0000
  H   H476      1.0  0.30554  0.66754  0.37600  1.0000
  H   H477      1.0  0.07077  0.48931  0.05497  1.0000
  H   H478      1.0  0.19860  0.69580  0.32506  1.0000
  C   C479      1.0  0.31644  0.62555  0.38548  1.0000
  H   H479      1.0  0.23064  0.66707  0.42331  1.0000
  H   H480      1.0  0.11249  0.49303  0.20847  1.0000
  S   S156      1.0  0.07926  0.71535  0.06824  1.0000
  C   C480      1.0  0.11563  0.49058  0.06254  1.0000
  H   H481      1.0  0.16933  0.49400  0.22951  1.0000
  H   H482      1.0  0.08687  0.50253  0.07509  1.0000
  H   H483      1.0  0.14202  0.58076  0.41245  1.0000
  H   H484      1.0  0.30978  0.72464  0.37973  1.0000
  C   C481      1.0  0.31230  0.72718  0.36420  1.0000
  H   H485      1.0  0.10986  0.48953  0.26906  1.0000
  H   H486      1.0  0.09748  0.56709  0.17022  1.0000
  S   S157      1.0  0.07834  0.72787  0.11626  1.0000
  C   C482      1.0  0.01486  0.72579  0.10787  1.0000
  C   C483      1.0  0.02498  0.70207  0.00720  1.0000
  H   H487      1.0  0.03786  0.69687  0.99691  1.0000
  C   C484      1.0  0.99806  0.72509  0.10153  1.0000
  C   C485      1.0  0.07955  0.48558  0.18089  1.0000
  C   C486      1.0  0.08564  0.48540  0.14672  1.0000
  C   C487      1.0  0.99367  0.72122  0.00080  1.0000
  H   H488      1.0  0.02723  0.71556  0.01078  1.0000
  S   S158      1.0  0.11929  0.73136  0.08646  1.0000
  C   C488      1.0  0.32408  0.67542  0.39149  1.0000
  H   H489      1.0  0.99590  0.73222  0.00781  1.0000
  S   S159      1.0  0.04639  0.62347  0.56827  1.0000
  Fe  Fe76      1.0  0.99995  0.67183  0.60555  1.0000
  S   S160      1.0  0.17019  0.61862  0.48465  1.0000
  H   H490      1.0  0.30643  0.62289  0.55696  1.0000
  N   N39       1.0  0.11472  0.63491  0.52429  1.0000
  S   S161      1.0  0.29362  0.66663  0.66805  1.0000
  C   C489      1.0  0.11480  0.71306  0.61013  1.0000
  S   S162      1.0  0.01552  0.67580  0.57504  1.0000
  C   C490      1.0  0.11477  0.68814  0.63886  1.0000
  Fe  Fe77      1.0  0.01913  0.64372  0.57807  1.0000
  S   S163      1.0  0.00566  0.63945  0.60943  1.0000
  H   H491      1.0  0.30818  0.66960  0.57462  1.0000
  C   C491      1.0  0.29997  0.68202  0.49462  1.0000
  C   C492      1.0  0.31742  0.61173  0.56362  1.0000
  Fe  Fe78      1.0  0.20983  0.66592  0.59054  1.0000
  C   C493      1.0  0.32310  0.58670  0.69409  1.0000
  Fe  Fe79      1.0  0.25128  0.64442  0.58600  1.0000
  S   S164      1.0  0.27934  0.63374  0.59806  1.0000
  Fe  Fe80      1.0  0.22083  0.63409  0.56644  1.0000
  S   S165      1.0  0.20594  0.66473  0.56086  1.0000
  S   S166      1.0  0.21049  0.61010  0.55736  1.0000
  Fe  Fe81      1.0  0.23599  0.67133  0.55228  1.0000
  S   S167      1.0  0.24540  0.68985  0.52432  1.0000
  S   S168      1.0  0.25084  0.64060  0.55601  1.0000
  S   S169      1.0  0.22269  0.63455  0.59709  1.0000
  C   C494      1.0  0.27064  0.68419  0.51854  1.0000
  H   H492      1.0  0.31156  0.61556  0.71260  1.0000
  C   C495      1.0  0.27056  0.59773  0.50982  1.0000
  H   H493      1.0  0.27174  0.69563  0.48841  1.0000
  C   C496      1.0  0.27998  0.68813  0.49947  1.0000
  H   H494      1.0  0.18517  0.64518  0.49904  1.0000
  H   H495      1.0  0.29696  0.63018  0.69597  1.0000
  C   C497      1.0  0.18063  0.61581  0.50545  1.0000
  C   C498      1.0  0.18701  0.63166  0.50886  1.0000
  C   C499      1.0  0.19562  0.63028  0.52496  1.0000
  C   C500      1.0  0.19839  0.61286  0.53766  1.0000
  C   C501      1.0  0.19189  0.59703  0.53435  1.0000
  C   C502      1.0  0.18290  0.59851  0.51842  1.0000
  C   C503      1.0  0.27569  0.62827  0.48883  1.0000
  H   H496      1.0  0.20017  0.64267  0.52753  1.0000
  H   H497      1.0  0.19397  0.58347  0.54408  1.0000
  H   H498      1.0  0.17814  0.58615  0.51598  1.0000
  C   C504      1.0  0.04699  0.64081  0.53045  1.0000
  C   C505      1.0  0.05463  0.64257  0.51074  1.0000
  C   C506      1.0  0.03191  0.72271  0.64376  1.0000
  H   H499      1.0  0.03499  0.65138  0.53561  1.0000
  H   H500      1.0  0.04843  0.65449  0.50080  1.0000
  C   C507      1.0  0.05088  0.71314  0.63906  1.0000
  C   C508      1.0  0.05419  0.69755  0.62927  1.0000
  C   C509      1.0  0.03876  0.69145  0.62441  1.0000
  C   C510      1.0  0.01974  0.70058  0.62973  1.0000
  H   H501      1.0  0.06873  0.68983  0.62581  1.0000
  H   H502      1.0  0.04153  0.67918  0.61726  1.0000
  S   S170      1.0  0.23846  0.67581  0.58133  1.0000
  C   C511      1.0  0.29020  0.65723  0.64851  1.0000
  C   C512      1.0  0.27285  0.66390  0.64137  1.0000
  C   C513      1.0  0.26935  0.65680  0.62599  1.0000
  C   C514      1.0  0.28315  0.64280  0.61763  1.0000
  C   C515      1.0  0.30052  0.63601  0.62481  1.0000
  C   C516      1.0  0.30408  0.64323  0.64013  1.0000
  H   H503      1.0  0.26197  0.67465  0.64779  1.0000
  H   H504      1.0  0.25589  0.66211  0.62068  1.0000
  H   H505      1.0  0.31129  0.62517  0.61843  1.0000
  H   H506      1.0  0.00179  0.72340  0.64367  1.0000
  H   H507      1.0  0.14300  0.66945  0.61534  1.0000
  H   H508      1.0  0.30711  0.68486  0.47985  1.0000
  H   H509      1.0  0.08650  0.65121  0.53119  1.0000
  C   C517      1.0  0.28144  0.67482  0.53285  1.0000
  H   H510      1.0  0.24946  0.67328  0.48912  1.0000
  C   C518      1.0  0.07053  0.61190  0.53648  1.0000
  C   C519      1.0  0.05505  0.62556  0.54339  1.0000
  C   C520      1.0  0.17506  0.70113  0.61125  1.0000
  H   H511      1.0  0.11211  0.69983  0.64742  1.0000
  C   C521      1.0  0.07037  0.62915  0.50383  1.0000
  H   H512      1.0  0.27435  0.67197  0.54763  1.0000
  N   N40       1.0  0.00795  0.58782  0.56185  1.0000
  C   C522      1.0  0.11614  0.64151  0.50356  1.0000
  H   H513      1.0  0.12510  0.67612  0.64542  1.0000
  C   C523      1.0  0.13706  0.70875  0.58072  1.0000
  S   S171      1.0  0.07046  0.71842  0.64729  1.0000
  H   H514      1.0  0.15639  0.68141  0.58175  1.0000
  H   H515      1.0  0.30203  0.59362  0.64785  1.0000
  C   C524      1.0  0.31073  0.67273  0.50897  1.0000
  H   H516      1.0  0.23948  0.62018  0.52562  1.0000
  C   C525      1.0  0.27044  0.64813  0.48330  1.0000
  H   H517      1.0  0.16111  0.71691  0.68751  1.0000
  H   H518      1.0  0.27853  0.59068  0.49748  1.0000
  H   H519      1.0  0.28776  0.61084  0.71331  1.0000
  C   C526      1.0  0.30812  0.59159  0.66078  1.0000
  H   H520      1.0  0.01785  0.59562  0.53156  1.0000
  H   H521      1.0  0.10496  0.65426  0.49999  1.0000
  S   S172      1.0  0.32187  0.65618  0.71223  1.0000
  H   H522      1.0  0.31019  0.67554  0.60645  1.0000
  C   C527      1.0  0.11161  0.62064  0.56338  1.0000
  H   H523      1.0  0.09017  0.60316  0.51159  1.0000
  H   H524      1.0  0.11401  0.62987  0.49684  1.0000
  C   C528      1.0  0.12936  0.62156  0.53105  1.0000
  H   H525      1.0  0.07675  0.60000  0.54643  1.0000
  H   H526      1.0  0.31565  0.61369  0.57875  1.0000
  H   H527      1.0  0.13956  0.72939  0.63666  1.0000
  C   C529      1.0  0.09664  0.63411  0.55633  1.0000
  C   C530      1.0  0.07821  0.61370  0.51676  1.0000
  C   C531      1.0  0.12815  0.61436  0.55070  1.0000
  C   C532      1.0  0.30148  0.66931  0.52810  1.0000
  C   C533      1.0  0.14429  0.69023  0.58940  1.0000
  C   C534      1.0  0.25358  0.65783  0.49301  1.0000
  C   C535      1.0  0.99790  0.57483  0.55912  1.0000
  C   C536      1.0  0.30099  0.60428  0.67386  1.0000
  S   S173      1.0  0.18607  0.67683  0.61351  1.0000
  C   C537      1.0  0.17870  0.71438  0.59435  1.0000
  C   C538      1.0  0.17424  0.72895  0.65908  1.0000
  H   H528      1.0  0.30971  0.66209  0.53920  1.0000
  C   C539      1.0  0.30086  0.61525  0.70367  1.0000
  C   C540      1.0  0.24239  0.64772  0.50828  1.0000
  Fe  Fe82      1.0  0.32107  0.66147  0.68055  1.0000
  H   H529      1.0  0.14197  0.61624  0.52119  1.0000
  C   C541      1.0  0.09847  0.64119  0.53661  1.0000
  H   H530      1.0  0.13990  0.60382  0.55595  1.0000
  H   H531      1.0  0.28923  0.61607  0.67094  1.0000
  N   N41       1.0  0.12233  0.69507  0.61870  1.0000
  S   S174      1.0  0.08010  0.63253  0.47910  1.0000
  C   C542      1.0  0.13667  0.68355  0.60850  1.0000
  H   H532      1.0  0.14340  0.71440  0.56619  1.0000
  H   H533      1.0  0.18406  0.71572  0.65653  1.0000
  H   H534      1.0  0.31744  0.63782  0.64556  1.0000
  C   C543      1.0  0.24806  0.62788  0.51347  1.0000
  H   H535      1.0  0.10085  0.68331  0.64003  1.0000
  H   H536      1.0  0.22976  0.65538  0.51643  1.0000
  N   N42       1.0  0.30875  0.60194  0.69006  1.0000
  H   H537      1.0  0.13059  0.64530  0.49710  1.0000
  N   N43       1.0  0.26441  0.61838  0.50362  1.0000
  H   H538      1.0  0.15834  0.69671  0.63969  1.0000
  H   H539      1.0  0.03579  0.59189  0.54663  1.0000
  C   C544      1.0  0.16110  0.70686  0.62654  1.0000
  H   H540      1.0  0.11027  0.61488  0.57862  1.0000
  H   H541      1.0  0.99859  0.57191  0.54488  1.0000
  C   C545      1.0  0.12215  0.72024  0.59109  1.0000
  H   H542      1.0  0.31440  0.59726  0.56373  1.0000
  H   H543      1.0  0.99395  0.58589  0.60979  1.0000
  H   H544      1.0  0.18953  0.71004  0.58247  1.0000
  H   H545      1.0  0.28887  0.62086  0.48120  1.0000
  C   C546      1.0  0.32305  0.57624  0.66458  1.0000
  C   C547      1.0  0.99528  0.58239  0.59565  1.0000
  C   C548      1.0  0.32196  0.66594  0.57957  1.0000
  C   C549      1.0  0.02036  0.59755  0.54560  1.0000
  H   H546      1.0  0.25791  0.59054  0.51637  1.0000
  H   H547      1.0  0.10350  0.72221  0.61822  1.0000
  H   H548      1.0  0.28009  0.59539  0.52063  1.0000
  C   C550      1.0  0.00690  0.59153  0.57984  1.0000
  S   S175      1.0  0.99960  0.69206  0.62601  1.0000
  H   H549      1.0  0.01493  0.60177  0.58200  1.0000
  C   C551      1.0  0.01644  0.71639  0.63922  1.0000
  H   H550      1.0  0.08343  0.63864  0.56597  1.0000
  S   S176      1.0  0.12548  0.58952  0.48372  1.0000
  C   C552      1.0  0.16132  0.72958  0.67639  1.0000
  H   H551      1.0  0.01752  0.61326  0.54567  1.0000
  H   H552      1.0  0.99564  0.71463  0.58681  1.0000
  C   C553      1.0  0.15019  0.72540  0.62476  1.0000
  C   C554      1.0  0.32319  0.66925  0.59761  1.0000
  S   S177      1.0  0.99183  0.64419  0.56766  1.0000
  Fe  Fe83      1.0  0.07645  0.75938  0.11555  1.0000
  S   S178      1.0  0.08401  0.76705  0.08355  1.0000
  S   S179      1.0  0.05182  0.77849  0.13078  1.0000
  C   C555      1.0  0.31169  0.78497  0.29074  1.0000
  Fe  Fe84      1.0  0.11441  0.76244  0.08947  1.0000
  S   S180      1.0  0.13606  0.78249  0.07527  1.0000
  C   C556      1.0  0.25162  0.90568  0.99155  1.0000
  S   S181      1.0  0.10659  0.75617  0.12143  1.0000
  C   C557      1.0  0.27942  0.87917  0.03072  1.0000
  H   H553      1.0  0.31396  0.93085  0.28781  1.0000
  H   H554      1.0  0.18317  0.76778  0.13417  1.0000
  Fe  Fe85      1.0  0.12580  0.92232  0.97945  1.0000
  S   S182      1.0  0.15373  0.92993  0.98184  1.0000
  H   H555      1.0  0.26811  0.90089  0.11039  1.0000
  H   H556      1.0  0.27390  0.76344  0.31507  1.0000
  S   S183      1.0  0.27152  0.90645  0.19560  1.0000
  H   H557      1.0  0.05107  0.90716  0.00779  1.0000
  C   C558      1.0  0.24864  0.93139  0.14204  1.0000
  Fe  Fe86      1.0  0.16278  0.89814  0.99037  1.0000
  Fe  Fe87      1.0  0.23005  0.86206  0.08103  1.0000
  S   S184      1.0  0.22941  0.88450  0.09827  1.0000
  S   S185      1.0  0.24856  0.86315  0.05168  1.0000
  Fe  Fe88      1.0  0.20182  0.84113  0.11173  1.0000
  S   S186      1.0  0.20022  0.86161  0.13200  1.0000
  S   S187      1.0  0.18256  0.81811  0.12117  1.0000
  Fe  Fe89      1.0  0.19778  0.88431  0.10571  1.0000
  S   S188      1.0  0.17723  0.91231  0.10644  1.0000
  Fe  Fe90      1.0  0.23249  0.85993  0.12276  1.0000
  S   S189      1.0  0.25882  0.85733  0.13685  1.0000
  S   S190      1.0  0.19784  0.86413  0.08609  1.0000
  S   S191      1.0  0.23439  0.83716  0.10495  1.0000
  Fe  Fe91      1.0  0.12412  0.89309  0.01636  1.0000
  S   S192      1.0  0.11239  0.92451  0.01008  1.0000
  S   S193      1.0  0.10623  0.87394  0.03861  1.0000
  Fe  Fe92      1.0  0.14142  0.92870  0.01315  1.0000
  S   S194      1.0  0.14400  0.95006  0.03048  1.0000
  S   S195      1.0  0.15226  0.89739  0.02187  1.0000
  C   C559      1.0  0.16958  0.92332  0.08461  1.0000
  C   C560      1.0  0.15616  0.94046  0.08395  1.0000
  C   C561      1.0  0.14879  0.94886  0.06710  1.0000
  C   C562      1.0  0.15465  0.94005  0.05087  1.0000
  C   C563      1.0  0.16842  0.92315  0.05134  1.0000
  C   C564      1.0  0.17596  0.91483  0.06817  1.0000
  H   H558      1.0  0.15128  0.94716  0.09657  1.0000
  H   H559      1.0  0.13825  0.96201  0.06675  1.0000
  H   H560      1.0  0.17344  0.91666  0.03866  1.0000
  H   H561      1.0  0.18663  0.90190  0.06840  1.0000
  H   H562      1.0  0.21330  0.87161  0.01770  1.0000
  C   C565      1.0  0.28938  0.88842  0.06248  1.0000
  C   C566      1.0  0.27347  0.87935  0.06480  1.0000
  C   C567      1.0  0.26833  0.87482  0.04893  1.0000
  C   C568      1.0  0.31730  0.78945  0.30639  1.0000
  H   H563      1.0  0.23295  0.88689  0.98947  1.0000
  H   H564      1.0  0.29333  0.89172  0.07486  1.0000
  H   H565      1.0  0.26573  0.87517  0.07900  1.0000
  C   C569      1.0  0.26180  0.87043  0.15396  1.0000
  C   C570      1.0  0.28041  0.86907  0.15794  1.0000
  C   C571      1.0  0.28362  0.87972  0.17086  1.0000
  C   C572      1.0  0.26817  0.89171  0.18016  1.0000
  C   C573      1.0  0.24951  0.89274  0.17648  1.0000
  C   C574      1.0  0.24633  0.88228  0.16337  1.0000
  H   H566      1.0  0.29245  0.85978  0.15094  1.0000
  H   H567      1.0  0.29801  0.87857  0.17369  1.0000
  H   H568      1.0  0.23743  0.90187  0.18367  1.0000
  H   H569      1.0  0.23192  0.88336  0.16062  1.0000
  C   C575      1.0  0.30048  0.92281  0.14771  1.0000
  Fe  Fe93      1.0  0.31809  0.93397  0.22303  1.0000
  H   H570      1.0  0.30528  0.92019  0.27166  1.0000
  C   C576      1.0  0.04179  0.89148  0.03588  1.0000
  C   C577      1.0  0.04778  0.87980  0.05235  1.0000
  C   C578      1.0  0.06760  0.87470  0.05332  1.0000
  C   C579      1.0  0.08142  0.88108  0.03776  1.0000
  C   C580      1.0  0.07535  0.89283  0.02143  1.0000
  C   C581      1.0  0.05561  0.89808  0.02054  1.0000
  H   H571      1.0  0.03717  0.87481  0.06432  1.0000
  H   H572      1.0  0.07222  0.86578  0.06609  1.0000
  C   C582      1.0  0.16863  0.81023  0.10772  1.0000
  C   C583      1.0  0.15309  0.80109  0.11763  1.0000
  C   C584      1.0  0.14271  0.79296  0.10787  1.0000
  C   C585      1.0  0.14775  0.79384  0.08800  1.0000
  C   C586      1.0  0.16290  0.80353  0.07797  1.0000
  C   C587      1.0  0.17332  0.81165  0.08775  1.0000
  H   H573      1.0  0.14926  0.79995  0.13306  1.0000
  H   H574      1.0  0.13103  0.78575  0.11584  1.0000
  H   H575      1.0  0.16690  0.80441  0.06257  1.0000
  H   H576      1.0  0.18527  0.81857  0.07990  1.0000
  C   C588      1.0  0.03375  0.79006  0.11724  1.0000
  C   C589      1.0  0.03190  0.78322  0.10116  1.0000
  C   C590      1.0  0.01676  0.79209  0.09110  1.0000
  C   C591      1.0  0.00386  0.80822  0.09668  1.0000
  C   C592      1.0  0.00610  0.81545  0.11236  1.0000
  C   C593      1.0  0.02087  0.80621  0.12278  1.0000
  H   H577      1.0  0.04172  0.77074  0.09682  1.0000
  H   H578      1.0  0.01505  0.78643  0.07899  1.0000
  H   H579      1.0  0.30379  0.89162  0.01427  1.0000
  H   H580      1.0  0.02227  0.81156  0.13521  1.0000
  C   C594      1.0  0.25605  0.91670  0.00314  1.0000
  S   S196      1.0  0.31007  0.95589  0.24318  1.0000
  H   H581      1.0  0.01446  0.74785  0.05558  1.0000
  H   H582      1.0  0.18907  0.76705  0.09947  1.0000
  Fe  Fe94      1.0  0.30009  0.91048  0.20197  1.0000
  C   C595      1.0  0.28438  0.82996  0.07820  1.0000
  N   N44       1.0  0.17120  0.74619  0.10229  1.0000
  C   C596      1.0  0.99880  0.75495  0.11973  1.0000
  C   C597      1.0  0.30567  0.98050  0.26794  1.0000
  C   C598      1.0  0.23639  0.89543  0.99854  1.0000
  H   H583      1.0  0.26460  0.94021  0.15958  1.0000
  C   C599      1.0  0.28799  0.83517  0.09442  1.0000
  H   H584      1.0  0.27573  0.87543  0.01842  1.0000
  H   H585      1.0  0.31974  0.85360  0.28802  1.0000
  C   C600      1.0  0.17996  0.75768  0.10920  1.0000
  C   C601      1.0  0.30042  0.89283  0.04428  1.0000
  C   C602      1.0  0.30376  0.84420  0.09279  1.0000
  Fe  Fe95      1.0  0.08787  0.73506  0.08450  1.0000
  H   H586      1.0  0.26812  0.92436  0.99804  1.0000
  H   H587      1.0  0.19669  0.89392  0.01941  1.0000
  H   H588      1.0  0.30334  0.78751  0.35425  1.0000
  S   S197      1.0  0.31382  0.94327  0.99928  1.0000
  H   H589      1.0  0.08585  0.89773  0.00930  1.0000
  H   H590      1.0  0.23649  0.91902  0.12372  1.0000
  H   H591      1.0  0.28443  0.77158  0.34223  1.0000
  S   S198      1.0  0.32122  0.90273  0.04202  1.0000
  H   H592      1.0  0.99936  0.76676  0.12658  1.0000
  H   H593      1.0  0.31081  0.90899  0.14775  1.0000
  C   C603      1.0  0.28581  0.77122  0.31244  1.0000
  C   C604      1.0  0.17671  0.75811  0.12887  1.0000
  H   H594      1.0  0.04631  0.74675  0.06430  1.0000
  N   N45       1.0  0.22610  0.89590  0.01669  1.0000
  H   H595      1.0  0.00853  0.91725  0.06769  1.0000
  S   S199      1.0  0.01726  0.89848  0.03382  1.0000
  N   N46       1.0  0.30731  0.78503  0.32457  1.0000
  C   C605      1.0  0.01525  0.74077  0.11708  1.0000
  C   C606      1.0  0.17485  0.74578  0.08166  1.0000
  C   C607      1.0  0.29586  0.77575  0.29384  1.0000
  H   H596      1.0  0.00507  0.93820  0.03628  1.0000
  H   H597      1.0  0.31656  0.80438  0.33765  1.0000
  C   C608      1.0  0.29184  0.77588  0.32776  1.0000
  C   C609      1.0  0.29660  0.83367  0.06064  1.0000
  C   C610      1.0  0.31396  0.78933  0.34071  1.0000
  H   H598      1.0  0.24867  0.92575  0.03070  1.0000
  C   C611      1.0  0.23006  0.90702  0.02800  1.0000
  H   H599      1.0  0.16193  0.74312  0.07719  1.0000
  H   H600      1.0  0.02830  0.74161  0.12190  1.0000
  C   C612      1.0  0.24515  0.91749  0.02145  1.0000
  S   S200      1.0  0.13575  0.89032  0.98551  1.0000
  H   H601      1.0  0.23482  0.93894  0.14835  1.0000
  H   H602      1.0  0.29713  0.92541  0.16275  1.0000
  C   C613      1.0  0.99761  0.93019  0.06695  1.0000
  S   S201      1.0  0.30570  0.94078  0.19582  1.0000
  H   H603      1.0  0.17779  0.75987  0.07311  1.0000
  H   H604      1.0  0.20804  0.88081  0.03961  1.0000
  C   C614      1.0  0.29531  0.88836  0.02836  1.0000
  C   C615      1.0  0.24958  0.92023  0.12822  1.0000
  H   H605      1.0  0.29771  0.90299  0.12157  1.0000
  C   C616      1.0  0.02432  0.73430  0.05748  1.0000
  N   N47       1.0  0.31557  0.84798  0.07545  1.0000
  C   C617      1.0  0.26736  0.91008  0.12070  1.0000
  N   N48       1.0  0.09230  0.82347  0.05735  1.0000
  C   C618      1.0  0.08858  0.81640  0.07659  1.0000
  C   C619      1.0  0.07746  0.83048  0.04729  1.0000
  C   C620      1.0  0.06955  0.81678  0.08637  1.0000
  C   C621      1.0  0.05826  0.83100  0.05660  1.0000
  C   C622      1.0  0.05433  0.82421  0.07628  1.0000
  C   C623      1.0  0.11234  0.82257  0.04733  1.0000
  H   H606      1.0  0.10036  0.81035  0.08447  1.0000
  H   H607      1.0  0.08038  0.83618  0.03206  1.0000
  S   S202      1.0  0.30938  0.90478  0.23092  1.0000
  H   H608      1.0  0.04649  0.83698  0.04867  1.0000
  H   H609      1.0  0.03951  0.82472  0.08368  1.0000
  H   H610      1.0  0.12161  0.82531  0.05658  1.0000
  H   H611      1.0  0.11805  0.80811  0.04344  1.0000
  H   H612      1.0  0.11354  0.83365  0.03412  1.0000
  N   N49       1.0  0.12831  0.89478  0.08014  1.0000
  C   C624      1.0  0.13411  0.87654  0.07617  1.0000
  C   C625      1.0  0.13279  0.89929  0.09590  1.0000
  C   C626      1.0  0.14399  0.86209  0.08852  1.0000
  C   C627      1.0  0.14273  0.88520  0.10852  1.0000
  C   C628      1.0  0.14825  0.86646  0.10484  1.0000
  C   C629      1.0  0.11798  0.90966  0.06693  1.0000
  H   H613      1.0  0.13111  0.87309  0.06338  1.0000
  H   H614      1.0  0.12894  0.91391  0.09870  1.0000
  H   H615      1.0  0.14843  0.84762  0.08539  1.0000
  H   H616      1.0  0.14650  0.88892  0.12085  1.0000
  H   H617      1.0  0.15610  0.85543  0.11445  1.0000
  H   H618      1.0  0.10733  0.90382  0.06171  1.0000
  H   H619      1.0  0.10999  0.92204  0.07389  1.0000
  H   H620      1.0  0.12836  0.91515  0.05438  1.0000
  N   N50       1.0  0.28290  0.92190  0.14102  1.0000
  C   C630      1.0  0.26555  0.93210  0.14830  1.0000
  C   C631      1.0  0.28400  0.91120  0.12720  1.0000
  H   H621      1.0  0.30766  0.93453  0.13849  1.0000
  H   H622      1.0  0.27840  0.83260  0.10812  1.0000
  C   C632      1.0  0.21021  0.88509  0.02374  1.0000
  H   H623      1.0  0.30309  0.90956  0.29648  1.0000
  H   H624      1.0  0.22187  0.90741  0.04239  1.0000
  H   H625      1.0  0.06662  0.81117  0.10164  1.0000
  H   H626      1.0  0.31974  0.78845  0.27637  1.0000
  H   H627      1.0  0.29157  0.77179  0.28192  1.0000
  C   C633      1.0  0.16456  0.74656  0.14147  1.0000
  H   H628      1.0  0.29352  0.83022  0.04786  1.0000
  H   H629      1.0  0.27188  0.82348  0.07910  1.0000
  H   H630      1.0  0.30623  0.84846  0.10543  1.0000
  C   C634      1.0  0.99564  0.94196  0.04929  1.0000
  C   C635      1.0  0.31261  0.91700  0.28435  1.0000
  C   C636      1.0  0.31225  0.84273  0.05951  1.0000
  H   H631      1.0  0.32132  0.84609  0.04566  1.0000
  H   H632      1.0  0.31654  0.97666  0.03647  1.0000
  H   H633      1.0  0.32097  0.73641  0.30871  1.0000
  C   C637      1.0  0.31884  0.96649  0.25896  1.0000
  H   H634      1.0  0.16164  0.74698  0.15672  1.0000
  S   S203      1.0  0.19389  0.88578  0.98053  1.0000
  C   C638      1.0  0.04235  0.73371  0.06248  1.0000
  C   C639      1.0  0.31850  0.73374  0.32424  1.0000
  H   H635      1.0  0.31999  0.97455  0.20257  1.0000
  H   H636      1.0  0.99609  0.82783  0.11680  1.0000
  S   S204      1.0  0.99216  0.87279  0.08598  1.0000
  Fe  Fe96      1.0  0.99356  0.88548  0.05471  1.0000
  C   C640      1.0  0.15969  0.73444  0.11460  1.0000
  H   H637      1.0  0.18731  0.73434  0.07809  1.0000
  C   C641      1.0  0.15609  0.73453  0.13434  1.0000
  Fe  Fe97      1.0  0.17228  0.86499  0.75822  1.0000
  S   S205      1.0  0.14863  0.84766  0.76196  1.0000
  S   S206      1.0  0.19620  0.85214  0.77584  1.0000
  Fe  Fe98      1.0  0.15151  0.89836  0.73230  1.0000
  S   S207      1.0  0.12620  0.88406  0.73509  1.0000
  S   S208      1.0  0.15196  0.92832  0.71522  1.0000
  Fe  Fe99      1.0  0.12897  0.87567  0.76608  1.0000
  S   S209      1.0  0.10247  0.87746  0.78896  1.0000
  Fe  Fe100     1.0  0.14809  0.85748  0.73030  1.0000
  S   S210      1.0  0.14615  0.84369  0.70500  1.0000
  S   S211      1.0  0.15235  0.89235  0.76388  1.0000
  S   S212      1.0  0.17371  0.87244  0.72616  1.0000
  C   C642      1.0  0.03952  0.89484  0.57540  1.0000
  S   S213      1.0  0.07192  0.94765  0.83310  1.0000
  Fe  Fe101     1.0  0.23951  0.87829  0.87750  1.0000
  S   S214      1.0  0.24649  0.90527  0.85807  1.0000
  S   S215      1.0  0.20861  0.88154  0.89237  1.0000
  Fe  Fe102     1.0  0.27857  0.85510  0.86321  1.0000
  S   S216      1.0  0.28791  0.88060  0.84259  1.0000
  S   S217      1.0  0.29735  0.82569  0.86617  1.0000
  Fe  Fe103     1.0  0.27546  0.89638  0.86743  1.0000
  S   S218      1.0  0.29138  0.91696  0.87515  1.0000
  Fe  Fe104     1.0  0.25783  0.88633  0.83578  1.0000
  S   S219      1.0  0.24937  0.89519  0.80620  1.0000
  S   S220      1.0  0.26765  0.87053  0.88844  1.0000
  S   S221      1.0  0.24937  0.85982  0.85484  1.0000
  C   C643      1.0  0.24166  0.94205  0.94550  1.0000
  H   H638      1.0  0.25201  0.94801  0.95042  1.0000
  C   C644      1.0  0.31586  0.82012  0.84688  1.0000
  H   H639      1.0  0.06846  0.94751  0.78342  1.0000
  S   S222      1.0  0.10700  0.93509  0.95703  1.0000
  Fe  Fe105     1.0  0.09523  0.77316  0.66816  1.0000
  S   S223      1.0  0.10118  0.79336  0.64049  1.0000
  S   S224      1.0  0.10386  0.77747  0.69542  1.0000
  Fe  Fe106     1.0  0.07750  0.74744  0.64859  1.0000
  S   S225      1.0  0.08219  0.76686  0.62014  1.0000
  N   N51       1.0  0.09113  0.93625  0.76231  1.0000
  Fe  Fe107     1.0  0.11124  0.76674  0.62705  1.0000
  S   S226      1.0  0.13858  0.76160  0.60510  1.0000
  Fe  Fe108     1.0  0.07154  0.79088  0.63706  1.0000
  S   S227      1.0  0.04779  0.81654  0.63356  1.0000
  S   S228      1.0  0.10701  0.74658  0.65498  1.0000
  S   S229      1.0  0.06500  0.77151  0.66542  1.0000
  H   H640      1.0  0.30652  0.80131  0.80051  1.0000
  C   C645      1.0  0.03571  0.88596  0.62876  1.0000
  N   N52       1.0  0.04205  0.88369  0.60862  1.0000
  H   H641      1.0  0.06860  0.85122  0.58158  1.0000
  H   H642      1.0  0.20603  0.91986  0.92764  1.0000
  C   C646      1.0  0.24539  0.93815  0.92680  1.0000
  H   H643      1.0  0.04540  0.95209  0.57661  1.0000
  S   S230      1.0  0.13837  0.97064  0.87130  1.0000
  C   C647      1.0  0.08255  0.94875  0.77471  1.0000
  C   C648      1.0  0.14896  0.76278  0.66482  1.0000
  C   C649      1.0  0.10985  0.96268  0.90231  1.0000
  H   H644      1.0  0.03852  0.77191  0.63962  1.0000
  C   C650      1.0  0.31019  0.82690  0.77989  1.0000
  C   C651      1.0  0.99312  0.78964  0.61628  1.0000
  C   C652      1.0  0.05411  0.86729  0.60411  1.0000
  S   S231      1.0  0.01618  0.85707  0.55780  1.0000
  Fe  Fe109     1.0  0.08805  0.97125  0.83200  1.0000
  C   C653      1.0  0.03786  0.82480  0.61258  1.0000
  C   C654      1.0  0.02078  0.83834  0.61352  1.0000
  H   H645      1.0  0.18042  0.90476  0.80113  1.0000
  C   C655      1.0  0.02332  0.84313  0.57901  1.0000
  C   C656      1.0  0.03985  0.82872  0.57813  1.0000
  C   C657      1.0  0.04711  0.81945  0.59498  1.0000
  C   C658      1.0  0.02574  0.77668  0.63306  1.0000
  H   H646      1.0  0.04748  0.82532  0.56435  1.0000
  H   H647      1.0  0.06030  0.80893  0.59420  1.0000
  H   H648      1.0  0.03496  0.75710  0.61293  1.0000
  H   H649      1.0  0.05934  0.85606  0.61531  1.0000
  H   H650      1.0  0.11298  0.91661  0.67241  1.0000
  H   H651      1.0  0.31296  0.94367  0.92229  1.0000
  C   C659      1.0  0.20485  0.88229  0.91693  1.0000
  C   C660      1.0  0.18616  0.88850  0.92634  1.0000
  C   C661      1.0  0.18277  0.88960  0.94589  1.0000
  C   C662      1.0  0.19802  0.88415  0.95616  1.0000
  C   C663      1.0  0.21675  0.87796  0.94677  1.0000
  C   C664      1.0  0.22019  0.87713  0.92712  1.0000
  H   H652      1.0  0.17430  0.89253  0.91849  1.0000
  H   H653      1.0  0.16833  0.89459  0.95300  1.0000
  H   H654      1.0  0.22858  0.87373  0.95470  1.0000
  H   H655      1.0  0.23460  0.87213  0.91999  1.0000
  C   C665      1.0  0.29641  0.92154  0.93633  1.0000
  C   C666      1.0  0.28640  0.90797  0.93347  1.0000
  C   C667      1.0  0.28516  0.90601  0.91483  1.0000
  C   C668      1.0  0.29354  0.91798  0.89884  1.0000
  C   C669      1.0  0.01128  0.79135  0.63946  1.0000
  H   H656      1.0  0.27930  0.89908  0.94573  1.0000
  H   H657      1.0  0.27734  0.89557  0.91289  1.0000
  C   C670      1.0  0.14260  0.95447  0.90842  1.0000
  C   C671      1.0  0.13590  0.94661  0.92760  1.0000
  H   H658      1.0  0.15791  0.95413  0.90337  1.0000
  H   H659      1.0  0.14600  0.94015  0.93727  1.0000
  C   C672      1.0  0.13308  0.82599  0.70306  1.0000
  C   C673      1.0  0.13062  0.82434  0.68471  1.0000
  C   C674      1.0  0.12117  0.81006  0.68221  1.0000
  C   C675      1.0  0.11441  0.79684  0.69802  1.0000
  C   C676      1.0  0.11683  0.79849  0.71637  1.0000
  C   C677      1.0  0.12592  0.81306  0.71892  1.0000
  H   H660      1.0  0.13605  0.83423  0.67233  1.0000
  H   H661      1.0  0.11929  0.80921  0.66803  1.0000
  H   H662      1.0  0.11169  0.78839  0.72873  1.0000
  H   H663      1.0  0.12775  0.81402  0.73311  1.0000
  C   C678      1.0  0.21050  0.86472  0.78411  1.0000
  C   C679      1.0  0.21879  0.85587  0.80039  1.0000
  C   C680      1.0  0.23024  0.86523  0.80758  1.0000
  C   C681      1.0  0.23428  0.88325  0.79808  1.0000
  C   C682      1.0  0.22620  0.89203  0.78162  1.0000
  C   C683      1.0  0.21410  0.88297  0.77483  1.0000
  H   H664      1.0  0.21607  0.84177  0.80766  1.0000
  H   H665      1.0  0.23601  0.85833  0.82038  1.0000
  H   H666      1.0  0.22928  0.90593  0.77407  1.0000
  H   H667      1.0  0.20795  0.88986  0.76216  1.0000
  C   C684      1.0  0.09565  0.89651  0.80199  1.0000
  C   C685      1.0  0.10767  0.90970  0.80120  1.0000
  C   C686      1.0  0.10094  0.92524  0.81125  1.0000
  C   C687      1.0  0.08207  0.92772  0.82172  1.0000
  C   C688      1.0  0.07035  0.91433  0.82271  1.0000
  C   C689      1.0  0.07713  0.89878  0.81301  1.0000
  H   H668      1.0  0.12203  0.90801  0.79279  1.0000
  H   H669      1.0  0.11010  0.93552  0.81045  1.0000
  H   H670      1.0  0.05580  0.91611  0.83083  1.0000
  H   H671      1.0  0.06780  0.88862  0.81375  1.0000
  C   C690      1.0  0.13734  0.93535  0.69738  1.0000
  C   C691      1.0  0.12902  0.92191  0.69210  1.0000
  C   C692      1.0  0.12443  0.95984  0.67232  1.0000
  C   C693      1.0  0.13481  0.95440  0.68760  1.0000
  H   H672      1.0  0.13117  0.90714  0.69917  1.0000
  C   C694      1.0  0.23737  0.92491  0.90148  1.0000
  H   H673      1.0  0.14121  0.96489  0.69161  1.0000
  C   C695      1.0  0.03751  0.97105  0.59743  1.0000
  H   H674      1.0  0.03331  0.90552  0.56436  1.0000
  H   H675      1.0  0.19860  0.92665  0.96071  1.0000
  C   C696      1.0  0.99977  0.96491  0.59998  1.0000
  H   H676      1.0  0.25863  0.94133  0.91739  1.0000
  H   H677      1.0  0.12297  0.97442  0.66449  1.0000
  H   H678      1.0  0.17037  0.74328  0.57949  1.0000
  H   H679      1.0  0.01346  0.84237  0.62715  1.0000
  H   H680      1.0  0.05207  0.97348  0.59610  1.0000
  N   N53       1.0  0.10712  0.92156  0.88654  1.0000
  C   C697      1.0  0.09761  0.91528  0.90450  1.0000
  C   C698      1.0  0.12675  0.92034  0.88312  1.0000
  C   C699      1.0  0.10775  0.90782  0.91970  1.0000
  C   C700      1.0  0.13736  0.91279  0.89796  1.0000
  C   C701      1.0  0.12775  0.90655  0.91637  1.0000
  C   C702      1.0  0.09624  0.92894  0.87075  1.0000
  H   H681      1.0  0.08204  0.91637  0.90724  1.0000
  H   H682      1.0  0.13427  0.92569  0.86899  1.0000
  H   H683      1.0  0.10011  0.90368  0.93415  1.0000
  H   H684      1.0  0.15283  0.91241  0.89534  1.0000
  H   H685      1.0  0.13564  0.90139  0.92822  1.0000
  H   H686      1.0  0.09352  0.91688  0.86500  1.0000
  H   H687      1.0  0.08212  0.93787  0.87559  1.0000
  H   H688      1.0  0.10412  0.93825  0.85878  1.0000
  C   C703      1.0  0.02375  0.76845  0.61800  1.0000
  H   H689      1.0  0.08556  0.97224  0.78733  1.0000
  H   H690      1.0  0.27018  0.85283  0.81489  1.0000
  C   C704      1.0  0.30387  0.93128  0.90169  1.0000
  C   C705      1.0  0.01341  0.84724  0.59684  1.0000
  H   H691      1.0  0.08787  0.95500  0.92631  1.0000
  H   H692      1.0  0.04678  0.87812  0.63760  1.0000
  C   C706      1.0  0.05935  0.86441  0.58505  1.0000
  C   C707      1.0  0.10897  0.93775  0.75149  1.0000
  C   C708      1.0  0.11679  0.94613  0.66662  1.0000
  C   C709      1.0  0.21177  0.93006  0.95126  1.0000
  C   C710      1.0  0.09217  0.96280  0.77700  1.0000
  H   H693      1.0  0.22153  0.94102  0.97228  1.0000
  H   H694      1.0  0.24280  0.90920  0.90274  1.0000
  C   C711      1.0  0.11054  0.96419  0.76630  1.0000
  C   C712      1.0  0.28953  0.85605  0.78803  1.0000
  C   C713      1.0  0.03366  0.95891  0.58634  1.0000
  H   H695      1.0  0.09968  0.96859  0.89279  1.0000
  H   H696      1.0  0.11562  0.92807  0.74141  1.0000
  C   C714      1.0  0.10316  0.95496  0.92140  1.0000
  H   H697      1.0  0.28460  0.87147  0.78475  1.0000
  C   C715      1.0  0.30547  0.93294  0.92032  1.0000
  C   C716      1.0  0.01476  0.95595  0.58730  1.0000
  C   C717      1.0  0.05176  0.87816  0.57067  1.0000
  H   H698      1.0  0.03316  0.90135  0.63022  1.0000
  C   C718      1.0  0.22468  0.93802  0.95776  1.0000
  H   H699      1.0  0.24866  0.93250  0.89181  1.0000
  S   S232      1.0  0.12006  0.96928  0.82431  1.0000
  C   C719      1.0  0.00734  0.77496  0.60951  1.0000
  H   H700      1.0  0.05488  0.87566  0.55597  1.0000
  H   H701      1.0  0.31231  0.84856  0.83016  1.0000
  H   H702      1.0  0.21424  0.92044  0.82371  1.0000
  C   C720      1.0  0.21604  0.92623  0.93253  1.0000
  C   C721      1.0  0.11898  0.95166  0.75337  1.0000
  N   N54       1.0  0.19416  0.90206  0.82520  1.0000
  C   C722      1.0  0.18349  0.89617  0.81471  1.0000
  C   C723      1.0  0.19812  0.89113  0.84226  1.0000
  C   C724      1.0  0.17699  0.87862  0.82094  1.0000
  C   C725      1.0  0.19182  0.87352  0.84895  1.0000
  C   C726      1.0  0.18129  0.86720  0.83813  1.0000
  C   C727      1.0  0.20074  0.92057  0.81850  1.0000
  H   H703      1.0  0.16922  0.87362  0.81215  1.0000
  H   H704      1.0  0.20640  0.89586  0.85071  1.0000
  C   C728      1.0  0.00358  0.97738  0.61082  1.0000
  H   H705      1.0  0.19528  0.86482  0.86237  1.0000
  H   H706      1.0  0.17665  0.85339  0.84290  1.0000
  H   H707      1.0  0.20429  0.92362  0.80257  1.0000
  H   H708      1.0  0.18938  0.93229  0.82362  1.0000
  H   H709      1.0  0.14659  0.78650  0.63154  1.0000
  N   N55       1.0  0.16001  0.91687  0.64907  1.0000
  C   C729      1.0  0.15208  0.90116  0.64947  1.0000
  C   C730      1.0  0.17117  0.91668  0.66226  1.0000
  C   C731      1.0  0.15525  0.88470  0.66338  1.0000
  C   C732      1.0  0.17469  0.90044  0.67629  1.0000
  C   C733      1.0  0.16678  0.88433  0.67671  1.0000
  C   C734      1.0  0.15711  0.93387  0.63414  1.0000
  H   H710      1.0  0.14286  0.90146  0.63933  1.0000
  H   H711      1.0  0.17698  0.92932  0.66233  1.0000
  H   H712      1.0  0.14858  0.87236  0.66415  1.0000
  H   H713      1.0  0.18302  0.90056  0.68711  1.0000
  H   H714      1.0  0.16928  0.87166  0.68753  1.0000
  H   H715      1.0  0.15372  0.94720  0.64045  1.0000
  H   H716      1.0  0.17026  0.93422  0.62295  1.0000
  H   H717      1.0  0.14463  0.93404  0.62726  1.0000
  N   N56       1.0  0.28736  0.82597  0.80942  1.0000
  C   C735      1.0  0.28129  0.84539  0.80508  1.0000
  C   C736      1.0  0.30145  0.81666  0.79697  1.0000
  H   H718      1.0  0.09112  0.90823  0.75735  1.0000
  C   C737      1.0  0.02242  0.98081  0.60938  1.0000
  H   H719      1.0  0.28859  0.80243  0.83281  1.0000
  C   C738      1.0  0.27818  0.81498  0.82714  1.0000
  Fe  Fe110     1.0  0.31974  0.93070  0.97221  1.0000
  H   H720      1.0  0.31047  0.94057  0.88942  1.0000
  S   S233      1.0  0.10713  0.95124  0.64537  1.0000
  H   H721      1.0  0.07047  0.91755  0.77318  1.0000
  H   H722      1.0  0.31087  0.85485  0.76226  1.0000
  H   H723      1.0  0.13850  0.74739  0.69274  1.0000
  H   H724      1.0  0.16925  0.78934  0.63676  1.0000
  H   H725      1.0  0.22437  0.92850  0.89453  1.0000
  H   H726      1.0  0.02210  0.88022  0.63459  1.0000
  C   C739      1.0  0.12958  0.96231  0.89565  1.0000
  H   H727      1.0  0.26564  0.80993  0.82444  1.0000
  C   C740      1.0  0.11613  0.94667  0.93403  1.0000
  C   C741      1.0  0.11884  0.92727  0.67676  1.0000
  C   C742      1.0  0.15318  0.73857  0.60778  1.0000
  S   S234      1.0  0.01067  0.94286  0.57071  1.0000
  N   N57       1.0  0.16144  0.76197  0.64779  1.0000
  H   H728      1.0  0.32194  0.81953  0.77048  1.0000
  S   S235      1.0  0.29473  0.92584  0.95988  1.0000
  H   H729      1.0  0.13905  0.77594  0.66722  1.0000
  C   C743      1.0  0.30414  0.84672  0.77540  1.0000
  H   H730      1.0  0.02494  0.91028  0.59814  1.0000
  C   C744      1.0  0.08087  0.92167  0.75996  1.0000
  C   C745      1.0  0.14864  0.74662  0.67934  1.0000
  H   H731      1.0  0.13322  0.95261  0.74487  1.0000
  C   C746      1.0  0.16780  0.73315  0.59268  1.0000
  N   N58       1.0  0.23269  0.93025  0.92058  1.0000
  H   H732      1.0  0.07305  0.92712  0.74769  1.0000
  H   H733      1.0  0.00022  0.85754  0.59781  1.0000
  C   C747      1.0  0.03480  0.89741  0.59456  1.0000
  C   C748      1.0  0.16161  0.77924  0.63297  1.0000
  H   H734      1.0  0.16870  0.77569  0.61862  1.0000
  H   H735      1.0  0.27317  0.82383  0.83866  1.0000
  H   H736      1.0  0.11824  0.97492  0.76808  1.0000
  H   H737      1.0  0.01328  0.79799  0.65085  1.0000
  N   N59       1.0  0.99512  0.79751  0.63119  1.0000
  H   H738      1.0  0.18404  0.74470  0.63135  1.0000
  Fe  Fe111     1.0  0.09379  0.98187  0.63521  1.0000
  C   C749      1.0  0.17418  0.74542  0.64488  1.0000
  Fe  Fe112     1.0  0.99375  0.88368  0.56235  1.0000
  Fe  Fe113     1.0  0.11718  0.98202  0.85076  1.0000
  C   C750      1.0  0.31990  0.83399  0.83067  1.0000
  H   H739      1.0  0.00568  0.76878  0.59769  1.0000
  H   H740      1.0  0.11680  0.73488  0.58472  1.0000
  S   S236      1.0  0.99452  0.91212  0.54267  1.0000
  S   S237      1.0  0.08556  0.98168  0.85950  1.0000
  H   H741      1.0  0.02904  0.73428  0.65186  1.0000
  H   H742      1.0  0.26015  0.90491  0.97738  1.0000
  H   H743      1.0  0.32298  0.79040  0.85983  1.0000
  Fe  Fe114     1.0  0.37823  0.11640  0.22765  1.0000
  S   S238      1.0  0.35124  0.10378  0.23493  1.0000
  S   S239      1.0  0.40130  0.10893  0.24576  1.0000
  Fe  Fe115     1.0  0.36831  0.14077  0.19013  1.0000
  H   H744      1.0  0.33462  0.17048  0.16757  1.0000
  S   S240      1.0  0.37828  0.15891  0.16169  1.0000
  H   H745      1.0  0.36144  0.00191  0.39129  1.0000
  Fe  Fe116     1.0  0.35713  0.10126  0.20370  1.0000
  S   S241      1.0  0.35719  0.07389  0.19343  1.0000
  S   S242      1.0  0.36371  0.14703  0.22001  1.0000
  S   S243      1.0  0.38547  0.11132  0.19732  1.0000
  Fe  Fe117     1.0  0.39446  0.02636  0.06831  1.0000
  S   S244      1.0  0.42220  0.01738  0.08042  1.0000
  S   S245      1.0  0.39141  0.00466  0.05036  1.0000
  Fe  Fe118     1.0  0.38095  0.05862  0.09252  1.0000
  S   S246      1.0  0.40721  0.05110  0.10621  1.0000
  S   S247      1.0  0.36093  0.08386  0.10364  1.0000
  Fe  Fe119     1.0  0.42333  0.04898  0.07661  1.0000
  S   S248      1.0  0.44950  0.06386  0.06446  1.0000
  Fe  Fe120     1.0  0.40315  0.02076  0.10878  1.0000
  N   N60       1.0  0.55181  0.08991  0.00452  1.0000
  S   S249      1.0  0.39711  0.05788  0.06230  1.0000
  S   S250      1.0  0.37551  0.02844  0.09725  1.0000
  H   H746      1.0  0.37052  0.05068  0.13237  1.0000
  Fe  Fe121     1.0  0.39657  0.01186  0.31209  1.0000
  S   S251      1.0  0.36612  0.02765  0.31582  1.0000
  S   S252      1.0  0.41980  0.02386  0.28991  1.0000
  Fe  Fe122     1.0  0.36692  0.01946  0.34743  1.0000
  S   S253      1.0  0.35282  0.03990  0.36866  1.0000
  H   H747      1.0  0.37093  0.22591  0.12916  1.0000
  S   S254      1.0  0.39812  0.00567  0.34357  1.0000
  H   H748      1.0  0.39837  0.07653  0.31881  1.0000
  H   H749      1.0  0.32999  0.17814  0.36019  1.0000
  Fe  Fe123     1.0  0.36447  0.13607  0.44062  1.0000
  S   S255      1.0  0.35101  0.11038  0.44257  1.0000
  S   S256      1.0  0.35336  0.16255  0.42061  1.0000
  Fe  Fe124     1.0  0.38092  0.09372  0.44275  1.0000
  S   S257      1.0  0.39370  0.07134  0.42309  1.0000
  C   C751      1.0  0.38692  0.00710  0.41142  1.0000
  S   S258      1.0  0.39500  0.11970  0.43925  1.0000
  C   C752      1.0  0.42532  0.21428  0.13630  1.0000
  H   H750      1.0  0.34320  0.02425  0.26230  1.0000
  S   S259      1.0  0.61035  0.09266  0.00292  1.0000
  Fe  Fe125     1.0  0.35861  0.99868  0.31703  1.0000
  H   H751      1.0  0.61533  0.11729  0.07780  1.0000
  H   H752      1.0  0.52017  0.08886  0.04651  1.0000
  H   H753      1.0  0.44695  0.20579  0.11249  1.0000
  Fe  Fe126     1.0  0.52983  0.16534  0.08705  1.0000
  S   S260      1.0  0.52616  0.18552  0.05966  1.0000
  S   S261      1.0  0.55618  0.16883  0.09786  1.0000
  Fe  Fe127     1.0  0.49539  0.14655  0.08521  1.0000
  S   S262      1.0  0.48987  0.16596  0.05757  1.0000
  S   S263      1.0  0.47332  0.12718  0.10016  1.0000
  Fe  Fe128     1.0  0.52220  0.16012  0.04886  1.0000
  Fe  Fe129     1.0  0.49462  0.18914  0.07138  1.0000
  S   S264      1.0  0.52772  0.13917  0.07558  1.0000
  S   S265      1.0  0.49820  0.17047  0.09968  1.0000
  H   H754      1.0  0.37679  0.08000  0.26123  1.0000
  C   C753      1.0  0.44092  0.21674  0.12137  1.0000
  H   H755      1.0  0.41756  0.20143  0.06967  1.0000
  H   H756      1.0  0.45307  0.19454  0.06934  1.0000
  C   C754      1.0  0.55656  0.19038  0.10582  1.0000
  C   C755      1.0  0.53949  0.20179  0.11328  1.0000
  H   H757      1.0  0.58869  0.21705  0.11097  1.0000
  H   H758      1.0  0.56163  0.15817  0.04827  1.0000
  C   C756      1.0  0.57431  0.19597  0.10516  1.0000
  S   S266      1.0  0.47933  0.21959  0.07088  1.0000
  H   H759      1.0  0.58762  0.18716  0.09962  1.0000
  C   C757      1.0  0.59060  0.11111  0.00733  1.0000
  C   C758      1.0  0.58626  0.12679  0.99299  1.0000
  C   C759      1.0  0.56994  0.14096  0.99674  1.0000
  C   C760      1.0  0.55809  0.13966  0.01488  1.0000
  C   C761      1.0  0.56263  0.12412  0.02929  1.0000
  C   C762      1.0  0.57877  0.10980  0.02547  1.0000
  H   H760      1.0  0.39061  0.10804  0.06271  1.0000
  H   H761      1.0  0.55345  0.12285  0.04322  1.0000
  H   H762      1.0  0.58210  0.09765  0.03659  1.0000
  H   H763      1.0  0.37911  0.11742  0.10008  1.0000
  H   H764      1.0  0.39971  0.09110  0.08221  1.0000
  H   H765      1.0  0.41614  0.09837  0.06103  1.0000
  C   C763      1.0  0.60249  0.14418  0.02893  1.0000
  S   S267      1.0  0.37737  0.08902  0.47508  1.0000
  C   C764      1.0  0.38391  0.09816  0.29867  1.0000
  C   C765      1.0  0.40330  0.01179  0.41557  1.0000
  S   S268      1.0  0.40342  0.00102  0.13739  1.0000
  H   H766      1.0  0.40179  0.02286  0.42413  1.0000
  C   C766      1.0  0.62481  0.22879  0.18638  1.0000
  H   H767      1.0  0.33199  0.06393  0.31992  1.0000
  C   C767      1.0  0.36450  0.04909  0.38318  1.0000
  C   C768      1.0  0.38457  0.04755  0.38016  1.0000
  C   C769      1.0  0.39321  0.05485  0.39222  1.0000
  C   C770      1.0  0.38195  0.06369  0.40747  1.0000
  C   C771      1.0  0.36185  0.06540  0.41034  1.0000
  C   C772      1.0  0.35321  0.05822  0.39821  1.0000
  H   H768      1.0  0.39348  0.04065  0.36862  1.0000
  H   H769      1.0  0.40877  0.05347  0.38983  1.0000
  H   H770      1.0  0.35298  0.07199  0.42211  1.0000
  C   C773      1.0  0.61187  0.12480  0.06398  1.0000
  C   C774      1.0  0.37809  0.99967  0.03430  1.0000
  C   C775      1.0  0.36290  0.01296  0.02726  1.0000
  C   C776      1.0  0.36644  0.10574  0.29223  1.0000
  H   H771      1.0  0.36860  0.06404  0.33524  1.0000
  C   C777      1.0  0.45586  0.08161  0.07440  1.0000
  C   C778      1.0  0.44482  0.08797  0.09097  1.0000
  C   C779      1.0  0.45012  0.10232  0.09824  1.0000
  C   C780      1.0  0.46671  0.11018  0.08940  1.0000
  C   C781      1.0  0.47763  0.10407  0.07266  1.0000
  C   C782      1.0  0.47219  0.08988  0.06519  1.0000
  H   H772      1.0  0.43210  0.08197  0.09807  1.0000
  H   H773      1.0  0.44105  0.10773  0.11048  1.0000
  H   H774      1.0  0.49037  0.11009  0.06566  1.0000
  H   H775      1.0  0.48074  0.08514  0.05229  1.0000
  S   S269      1.0  0.34023  0.13038  0.19447  1.0000
  N   N61       1.0  0.33801  0.14773  0.36891  1.0000
  H   H776      1.0  0.54933  0.06939  0.03042  1.0000
  C   C783      1.0  0.55786  0.22421  0.11925  1.0000
  H   H777      1.0  0.50645  0.12080  0.02927  1.0000
  C   C784      1.0  0.34987  0.09822  0.30162  1.0000
  C   C785      1.0  0.37445  0.18386  0.16123  1.0000
  C   C786      1.0  0.37510  0.19640  0.14355  1.0000
  H   H778      1.0  0.35930  0.02714  0.03105  1.0000
  C   C787      1.0  0.36650  0.21140  0.17749  1.0000
  C   C788      1.0  0.37026  0.19141  0.17820  1.0000
  H   H779      1.0  0.37833  0.19070  0.13034  1.0000
  H   H780      1.0  0.41904  0.20137  0.13918  1.0000
  H   H781      1.0  0.36993  0.18189  0.19188  1.0000
  C   C789      1.0  0.54017  0.21845  0.12011  1.0000
  C   C790      1.0  0.51894  0.11191  0.02222  1.0000
  C   C791      1.0  0.35946  0.08108  0.12864  1.0000
  C   C792      1.0  0.35286  0.09703  0.13790  1.0000
  C   C793      1.0  0.35230  0.09498  0.15775  1.0000
  C   C794      1.0  0.35811  0.07693  0.16848  1.0000
  C   C795      1.0  0.36477  0.06101  0.15919  1.0000
  C   C796      1.0  0.36542  0.06308  0.13936  1.0000
  H   H782      1.0  0.34812  0.11097  0.12973  1.0000
  H   H783      1.0  0.34702  0.10732  0.16477  1.0000
  H   H784      1.0  0.52578  0.19749  0.11423  1.0000
  C   C797      1.0  0.40592  0.08500  0.25742  1.0000
  C   C798      1.0  0.42448  0.07727  0.26130  1.0000
  C   C799      1.0  0.42851  0.05852  0.27133  1.0000
  C   C800      1.0  0.41382  0.04765  0.27830  1.0000
  C   C801      1.0  0.39508  0.05551  0.27481  1.0000
  C   C802      1.0  0.39123  0.07402  0.26395  1.0000
  H   H785      1.0  0.43586  0.08575  0.25639  1.0000
  H   H786      1.0  0.44304  0.05250  0.27391  1.0000
  H   H787      1.0  0.38368  0.04717  0.27993  1.0000
  H   H788      1.0  0.34087  0.01842  0.00964  1.0000
  S   S270      1.0  0.53713  0.15703  0.01865  1.0000
  H   H789      1.0  0.37549  0.13548  0.39309  1.0000
  N   N62       1.0  0.33764  0.01217  0.17303  1.0000
  C   C803      1.0  0.35349  0.14960  0.37612  1.0000
  C   C804      1.0  0.65643  0.19642  0.10640  1.0000
  C   C805      1.0  0.36364  0.13378  0.38683  1.0000
  C   C806      1.0  0.65016  0.21522  0.11030  1.0000
  C   C807      1.0  0.33257  0.99439  0.17890  1.0000
  H   H790      1.0  0.33521  0.98445  0.16894  1.0000
  C   C808      1.0  0.52675  0.09410  0.03193  1.0000
  C   C809      1.0  0.32539  0.18473  0.16409  1.0000
  H   H791      1.0  0.57857  0.07050  0.00563  1.0000
  H   H792      1.0  0.39693  0.10363  0.29120  1.0000
  C   C810      1.0  0.36782  0.07592  0.32331  1.0000
  H   H793      1.0  0.62624  0.12433  0.01620  1.0000
  N   N63       1.0  0.59184  0.14959  0.04558  1.0000
  C   C811      1.0  0.33257  0.13021  0.37166  1.0000
  H   H794      1.0  0.56642  0.15294  0.98551  1.0000
  H   H795      1.0  0.36292  0.01804  0.15337  1.0000
  H   H796      1.0  0.35779  0.16347  0.37413  1.0000
  C   C812      1.0  0.35684  0.98955  0.01000  1.0000
  C   C813      1.0  0.37097  0.21639  0.14287  1.0000
  C   C814      1.0  0.62281  0.11917  0.04707  1.0000
  N   N64       1.0  0.39536  0.03302  0.24174  1.0000
  C   C815      1.0  0.39218  0.01761  0.25591  1.0000
  C   C816      1.0  0.38023  0.04509  0.23442  1.0000
  C   C817      1.0  0.37340  0.01426  0.26344  1.0000
  C   C818      1.0  0.36125  0.04218  0.24167  1.0000
  C   C819      1.0  0.35784  0.02668  0.25634  1.0000
  C   C820      1.0  0.41511  0.03642  0.23392  1.0000
  H   H797      1.0  0.40415  0.00808  0.26182  1.0000
  H   H798      1.0  0.38273  0.05719  0.22303  1.0000
  H   H799      1.0  0.37087  0.00219  0.27485  1.0000
  H   H800      1.0  0.34932  0.05195  0.23590  1.0000
  H   H801      1.0  0.52687  0.22692  0.12620  1.0000
  H   H802      1.0  0.41562  0.05202  0.23162  1.0000
  H   H803      1.0  0.42516  0.02910  0.24405  1.0000
  H   H804      1.0  0.42033  0.03109  0.22011  1.0000
  H   H805      1.0  0.33639  0.10400  0.29635  1.0000
  C   C821      1.0  0.57478  0.16478  0.04499  1.0000
  S   S271      1.0  0.33474  0.99819  0.30097  1.0000
  S   S272      1.0  0.35614  0.99200  0.34921  1.0000
  H   H806      1.0  0.43440  0.00624  0.41104  1.0000
  C   C822      1.0  0.42159  0.00253  0.40814  1.0000
  H   H807      1.0  0.33231  0.16371  0.34197  1.0000
  C   C823      1.0  0.38470  0.08299  0.31414  1.0000
  C   C824      1.0  0.32760  0.16435  0.35750  1.0000
  H   H808      1.0  0.34735  0.00751  0.14394  1.0000
  C   C825      1.0  0.54326  0.08318  0.02277  1.0000
  H   H809      1.0  0.38580  0.98759  0.11150  1.0000
  C   C826      1.0  0.33317  0.07594  0.32673  1.0000
  C   C827      1.0  0.56900  0.07817  0.99515  1.0000
  C   C828      1.0  0.54398  0.10717  0.99475  1.0000
  S   S273      1.0  0.34254  0.98368  0.99539  1.0000
  C   C829      1.0  0.61813  0.12891  0.02942  1.0000
  H   H810      1.0  0.52179  0.13251  0.99601  1.0000
  H   H811      1.0  0.63490  0.22066  0.11417  1.0000
  C   C830      1.0  0.32899  0.16317  0.41974  1.0000
  C   C831      1.0  0.45467  0.22383  0.06985  1.0000
  H   H812      1.0  0.33799  0.10021  0.38470  1.0000
  H   H813      1.0  0.58757  0.14419  0.07619  1.0000
  H   H814      1.0  0.57507  0.17410  0.03064  1.0000
  C   C832      1.0  0.34753  0.01776  0.15335  1.0000
  H   H815      1.0  0.59867  0.15135  0.01516  1.0000
  N   N65       1.0  0.43615  0.10600  0.14869  1.0000
  C   C833      1.0  0.44087  0.08727  0.14600  1.0000
  C   C834      1.0  0.41734  0.11524  0.15048  1.0000
  C   C835      1.0  0.42667  0.07763  0.14404  1.0000
  C   C836      1.0  0.40276  0.10597  0.14874  1.0000
  C   C837      1.0  0.40755  0.08712  0.14531  1.0000
  C   C838      1.0  0.45123  0.11621  0.15002  1.0000
  H   H816      1.0  0.45577  0.07991  0.14462  1.0000
  H   H817      1.0  0.41350  0.12990  0.15319  1.0000
  H   H818      1.0  0.43050  0.06297  0.14129  1.0000
  H   H819      1.0  0.38784  0.11333  0.15021  1.0000
  H   H820      1.0  0.39647  0.07981  0.14370  1.0000
  H   H821      1.0  0.44866  0.13128  0.14226  1.0000
  H   H822      1.0  0.45152  0.11622  0.16529  1.0000
  H   H823      1.0  0.46573  0.10956  0.14305  1.0000
  N   N66       1.0  0.40487  0.11945  0.07941  1.0000
  C   C839      1.0  0.39129  0.12486  0.09454  1.0000
  C   C840      1.0  0.42005  0.12901  0.07212  1.0000
  C   C841      1.0  0.39289  0.14002  0.10303  1.0000
  C   C842      1.0  0.42218  0.14414  0.08034  1.0000
  C   C843      1.0  0.40847  0.14968  0.09585  1.0000
  C   C844      1.0  0.40276  0.10355  0.07084  1.0000
  H   H824      1.0  0.43091  0.12464  0.06021  1.0000
  H   H825      1.0  0.38208  0.14433  0.11501  1.0000
  H   H826      1.0  0.43450  0.15138  0.07481  1.0000
  H   H827      1.0  0.40989  0.16150  0.10224  1.0000
  Fe  Fe130     1.0  0.33703  0.13406  0.22514  1.0000
  H   H828      1.0  0.36978  0.04710  0.16726  1.0000
  H   H829      1.0  0.57367  0.17408  0.05575  1.0000
  C   C845      1.0  0.52748  0.11844  0.00347  1.0000
  H   H830      1.0  0.64594  0.18742  0.10725  1.0000
  H   H831      1.0  0.36576  0.10371  0.39846  1.0000
  C   C846      1.0  0.34245  0.11406  0.38230  1.0000
  H   H832      1.0  0.34058  0.03223  0.14687  1.0000
  C   C847      1.0  0.44510  0.20897  0.06957  1.0000
  H   H833      1.0  0.43061  0.14106  0.47162  1.0000
  H   H834      1.0  0.33766  0.05948  0.40070  1.0000
  C   C848      1.0  0.35804  0.11595  0.38996  1.0000
  C   C849      1.0  0.59625  0.14006  0.06297  1.0000
  C   C850      1.0  0.36648  0.22394  0.15986  1.0000
  C   C851      1.0  0.42506  0.21286  0.06974  1.0000
  C   C852      1.0  0.35247  0.00796  0.01509  1.0000
  Fe  Fe131     1.0  0.34864  0.10844  0.47431  1.0000
  H   H835      1.0  0.33348  0.07040  0.34223  1.0000
  H   H836      1.0  0.33781  0.14015  0.26455  1.0000
  H   H837      1.0  0.32890  0.18414  0.39377  1.0000
  H   H838      1.0  0.36322  0.21715  0.19068  1.0000
  C   C853      1.0  0.57496  0.21290  0.11164  1.0000
  H   H839      1.0  0.33528  0.14105  0.29918  1.0000
  H   H840      1.0  0.63478  0.10716  0.04760  1.0000
  H   H841      1.0  0.51859  0.23217  0.06219  1.0000
  H   H842      1.0  0.37275  0.01467  0.41688  1.0000
  H   H843      1.0  0.36591  0.11708  0.27974  1.0000
  N   N67       1.0  0.35064  0.08378  0.31721  1.0000
  N   N68       1.0  0.38874  0.99350  0.40026  1.0000
  C   C854      1.0  0.33410  0.02470  0.18566  1.0000
  C   C855      1.0  0.42330  0.98858  0.39689  1.0000
  Fe  Fe132     1.0  0.38910  0.11640  0.47176  1.0000
  H   H844      1.0  0.32973  0.18215  0.45462  1.0000
  H   H845      1.0  0.33800  0.03884  0.18105  1.0000
  C   C856      1.0  0.41747  0.22887  0.14717  1.0000
  H   H846      1.0  0.51242  0.22433  0.08766  1.0000
  H   H847      1.0  0.56472  0.06753  0.98858  1.0000
  H   H848      1.0  0.35188  0.99975  0.07152  1.0000
  C   C857      1.0  0.32973  0.98512  0.28486  1.0000
  C   C858      1.0  0.40662  0.98414  0.39316  1.0000
  H   H849      1.0  0.40514  0.22703  0.15853  1.0000
  S   S274      1.0  0.35988  0.13537  0.47222  1.0000
  H   H850      1.0  0.53619  0.22969  0.07715  1.0000
  C   C859      1.0  0.38863  0.98361  0.14114  1.0000
  H   H851      1.0  0.65400  0.21235  0.06177  1.0000
  H   H852      1.0  0.57791  0.08721  0.98385  1.0000
  H   H853      1.0  0.59532  0.12787  0.97895  1.0000
  C   C860      1.0  0.37129  0.98866  0.39652  1.0000
  C   C861      1.0  0.41467  0.23152  0.07047  1.0000
  H   H854      1.0  0.55079  0.11260  0.98033  1.0000
  H   H855      1.0  0.33312  0.19222  0.15055  1.0000
  H   H856      1.0  0.32681  0.99598  0.05564  1.0000
  S   S275      1.0  0.38925  0.98337  0.31139  1.0000
  C   C862      1.0  0.35322  0.98438  0.07847  1.0000
  H   H857      1.0  0.64053  0.20785  0.16882  1.0000
  C   C863      1.0  0.63937  0.22210  0.17200  1.0000
  H   H858      1.0  0.61453  0.21978  0.19449  1.0000
  C   C864      1.0  0.32531  0.01951  0.20473  1.0000
  H   H859      1.0  0.34406  0.98325  0.09291  1.0000
  Fe  Fe133     1.0  0.48993  0.18510  0.56536  1.0000
  S   S276      1.0  0.47507  0.17177  0.59397  1.0000
  N   N69       1.0  0.57878  0.07406  0.84724  1.0000
  Fe  Fe134     1.0  0.47019  0.16390  0.54348  1.0000
  S   S277      1.0  0.45459  0.14920  0.57089  1.0000
  S   S278      1.0  0.46614  0.15943  0.51426  1.0000
  Fe  Fe135     1.0  0.44870  0.17783  0.58033  1.0000
  S   S279      1.0  0.41844  0.19074  0.59281  1.0000
  Fe  Fe136     1.0  0.48266  0.14464  0.58152  1.0000
  S   S280      1.0  0.49278  0.11670  0.60029  1.0000
  S   S281      1.0  0.46278  0.19300  0.55234  1.0000
  S   S282      1.0  0.49910  0.15747  0.55340  1.0000
  H   H860      1.0  0.58504  0.11289  0.81262  1.0000
  H   H861      1.0  0.37617  0.22509  0.57786  1.0000
  C   C865      1.0  0.65516  0.01042  0.78121  1.0000
  H   H862      1.0  0.45451  0.15749  0.47905  1.0000
  Fe  Fe137     1.0  0.63596  0.10767  0.75030  1.0000
  H   H863      1.0  0.61332  0.99616  0.79177  1.0000
  C   C866      1.0  0.37264  0.09944  0.54065  1.0000
  C   C867      1.0  0.64791  0.17943  0.66797  1.0000
  C   C868      1.0  0.33037  0.12521  0.51871  1.0000
  C   C869      1.0  0.48179  0.10024  0.56214  1.0000
  C   C870      1.0  0.61267  0.03640  0.89780  1.0000
  S   S283      1.0  0.62619  0.10404  0.94539  1.0000
  H   H864      1.0  0.55125  0.07406  0.86518  1.0000
  C   C871      1.0  0.33500  0.21899  0.56580  1.0000
  S   S284      1.0  0.63747  0.10647  0.71929  1.0000
  S   S285      1.0  0.56280  0.04576  0.81199  1.0000
  Fe  Fe138     1.0  0.58333  0.01564  0.63523  1.0000
  S   S286      1.0  0.61526  0.00518  0.63257  1.0000
  Fe  Fe139     1.0  0.58720  0.04415  0.59806  1.0000
  S   S287      1.0  0.61947  0.03570  0.59263  1.0000
  S   S288      1.0  0.57513  0.06806  0.57598  1.0000
  Fe  Fe140     1.0  0.61374  0.00536  0.60166  1.0000
  Fe  Fe141     1.0  0.61748  0.03654  0.62402  1.0000
  H   H865      1.0  0.63967  0.03673  0.79051  1.0000
  S   S289      1.0  0.58153  0.01387  0.60513  1.0000
  S   S290      1.0  0.58545  0.04682  0.62864  1.0000
  Fe  Fe142     1.0  0.63216  0.09738  0.97564  1.0000
  H   H866      1.0  0.62155  0.07347  0.78405  1.0000
  H   H867      1.0  0.57686  0.03428  0.68599  1.0000
  C   C872      1.0  0.64309  0.02831  0.77912  1.0000
  H   H868      1.0  0.55940  0.09539  0.83208  1.0000
  H   H869      1.0  0.59968  0.00294  0.56480  1.0000
  H   H870      1.0  0.50837  0.22846  0.61245  1.0000
  C   C873      1.0  0.56336  0.06391  0.85849  1.0000
  H   H871      1.0  0.32925  0.09736  0.56997  1.0000
  Fe  Fe143     1.0  0.61208  0.98893  0.83392  1.0000
  H   H872      1.0  0.52484  0.06972  0.55756  1.0000
  H   H873      1.0  0.55834  0.99734  0.72597  1.0000
  C   C874      1.0  0.61716  0.00031  0.68090  1.0000
  C   C875      1.0  0.59564  0.09360  0.77909  1.0000
  C   C876      1.0  0.57548  0.09645  0.78197  1.0000
  C   C877      1.0  0.56566  0.08145  0.79155  1.0000
  C   C878      1.0  0.57589  0.06361  0.79876  1.0000
  C   C879      1.0  0.59610  0.06061  0.79579  1.0000
  C   C880      1.0  0.60601  0.07558  0.78582  1.0000
  H   H874      1.0  0.56740  0.11039  0.77695  1.0000
  H   H875      1.0  0.55005  0.08383  0.79376  1.0000
  H   H876      1.0  0.60402  0.04681  0.80123  1.0000
  C   C881      1.0  0.63128  0.03606  0.88694  1.0000
  C   C882      1.0  0.63974  0.05386  0.90846  1.0000
  H   H877      1.0  0.61918  0.10035  0.81596  1.0000
  C   C883      1.0  0.60762  0.04582  0.91376  1.0000
  C   C884      1.0  0.62101  0.05455  0.91904  1.0000
  H   H878      1.0  0.59329  0.04617  0.92226  1.0000
  H   H879      1.0  0.61693  0.06150  0.93150  1.0000
  C   C885      1.0  0.60786  0.09312  0.82505  1.0000
  S   S291      1.0  0.59512  0.02541  0.89217  1.0000
  S   S292      1.0  0.64672  0.15056  0.91815  1.0000
  C   C886      1.0  0.59280  0.18070  0.65301  1.0000
  Fe  Fe144     1.0  0.57827  0.02080  0.83047  1.0000
  H   H880      1.0  0.56846  0.05265  0.87026  1.0000
  S   S293      1.0  0.60716  0.11348  0.76937  1.0000
  H   H881      1.0  0.60734  0.16660  0.61847  1.0000
  C   C887      1.0  0.61972  0.20031  0.68191  1.0000
  C   C888      1.0  0.63349  0.19580  0.66599  1.0000
  C   C889      1.0  0.64414  0.11399  0.89099  1.0000
  H   H882      1.0  0.63167  0.16135  0.62354  1.0000
  C   C890      1.0  0.63471  0.17184  0.70176  1.0000
  C   C891      1.0  0.62056  0.18848  0.69985  1.0000
  H   H883      1.0  0.63311  0.20489  0.65217  1.0000
  C   C892      1.0  0.54884  0.11498  0.61617  1.0000
  H   H884      1.0  0.63500  0.16254  0.71556  1.0000
  H   H885      1.0  0.60997  0.19197  0.71224  1.0000
  C   C893      1.0  0.51583  0.10350  0.59350  1.0000
  C   C894      1.0  0.52760  0.10942  0.57616  1.0000
  C   C895      1.0  0.54577  0.09834  0.57088  1.0000
  C   C896      1.0  0.55228  0.08141  0.58297  1.0000
  C   C897      1.0  0.54057  0.07548  0.60033  1.0000
  C   C898      1.0  0.52232  0.08649  0.60553  1.0000
  H   H886      1.0  0.52269  0.12239  0.56675  1.0000
  H   H887      1.0  0.55482  0.10293  0.55743  1.0000
  H   H888      1.0  0.54548  0.06234  0.60965  1.0000
  H   H889      1.0  0.51318  0.08179  0.61890  1.0000
  C   C899      1.0  0.44799  0.14839  0.50969  1.0000
  C   C900      1.0  0.43647  0.13787  0.52445  1.0000
  C   C901      1.0  0.42324  0.12823  0.52016  1.0000
  H   H890      1.0  0.58759  0.99747  0.53714  1.0000
  H   H891      1.0  0.53274  0.14026  0.60129  1.0000
  C   C902      1.0  0.63994  0.02412  0.74783  1.0000
  H   H892      1.0  0.43787  0.13697  0.53919  1.0000
  H   H893      1.0  0.41478  0.11986  0.53173  1.0000
  H   H894      1.0  0.59159  0.12319  0.57495  1.0000
  H   H895      1.0  0.38598  0.21651  0.60902  1.0000
  H   H896      1.0  0.63545  0.02878  0.87470  1.0000
  H   H897      1.0  0.49501  0.07664  0.58144  1.0000
  H   H898      1.0  0.58615  0.19201  0.64275  1.0000
  H   H899      1.0  0.62731  0.07068  0.83973  1.0000
  C   C903      1.0  0.55386  0.18842  0.59116  1.0000
  C   C904      1.0  0.53730  0.18923  0.58325  1.0000
  C   C905      1.0  0.57973  0.12099  0.58676  1.0000
  H   H900      1.0  0.56207  0.17464  0.59631  1.0000
  C   C906      1.0  0.54909  0.22309  0.58568  1.0000
  C   C907      1.0  0.41704  0.20963  0.60508  1.0000
  C   C908      1.0  0.43370  0.21433  0.60856  1.0000
  C   C909      1.0  0.62015  0.98321  0.78609  1.0000
  H   H901      1.0  0.44766  0.20587  0.60430  1.0000
  C   C910      1.0  0.63966  0.07255  0.66245  1.0000
  H   H902      1.0  0.48909  0.12193  0.50554  1.0000
  C   C911      1.0  0.64473  0.04470  0.89229  1.0000
  C   C912      1.0  0.57422  0.09027  0.83424  1.0000
  C   C913      1.0  0.65659  0.99546  0.73437  1.0000
  H   H903      1.0  0.60630  0.99145  0.76128  1.0000
  H   H904      1.0  0.34798  0.05254  0.52781  1.0000
  S   S294      1.0  0.60765  0.02004  0.83663  1.0000
  C   C914      1.0  0.39897  0.22044  0.61106  1.0000
  H   H905      1.0  0.36988  0.05835  0.51274  1.0000
  N   N70       1.0  0.60905  0.16828  0.64692  1.0000
  C   C915      1.0  0.37168  0.08680  0.52885  1.0000
  C   C916      1.0  0.49638  0.08498  0.56702  1.0000
  S   S295      1.0  0.50651  0.20895  0.56496  1.0000
  H   H906      1.0  0.38340  0.08449  0.51690  1.0000
  C   C917      1.0  0.59759  0.06708  0.84929  1.0000
  N   N71       1.0  0.58189  0.10580  0.60150  1.0000
  H   H907      1.0  0.51461  0.11318  0.50130  1.0000
  C   C918      1.0  0.56663  0.10249  0.61590  1.0000
  N   N72       1.0  0.65171  0.00656  0.75002  1.0000
  N   N73       1.0  0.58050  0.00626  0.70295  1.0000
  H   H908      1.0  0.64672  0.11392  0.90554  1.0000
  C   C919      1.0  0.60041  0.09250  0.60133  1.0000
  H   H909      1.0  0.63040  0.14409  0.65511  1.0000
  H   H910      1.0  0.56806  0.08997  0.62712  1.0000
  H   H911      1.0  0.57232  0.18962  0.67734  1.0000
  H   H912      1.0  0.53661  0.11211  0.62736  1.0000
  H   H913      1.0  0.65530  0.14732  0.87512  1.0000
  H   H914      1.0  0.60099  0.08129  0.59274  1.0000
  H   H915      1.0  0.61276  0.10012  0.59507  1.0000
  H   H916      1.0  0.60253  0.08526  0.61608  1.0000
  S   S296      1.0  0.56438  0.00371  0.66190  1.0000
  S   S297      1.0  0.65735  0.06415  0.91489  1.0000
  C   C920      1.0  0.61241  0.07646  0.83822  1.0000
  S   S298      1.0  0.56478  0.01287  0.86126  1.0000
  C   C921      1.0  0.65265  0.05484  0.69086  1.0000
  C   C922      1.0  0.55987  0.20535  0.59240  1.0000
  S   S299      1.0  0.61450  0.22929  0.62266  1.0000
  C   C923      1.0  0.59243  0.98887  0.70615  1.0000
  C   C924      1.0  0.42088  0.12930  0.50111  1.0000
  Fe  Fe145     1.0  0.59476  0.01037  0.86740  1.0000
  C   C925      1.0  0.64630  0.03789  0.66750  1.0000
  C   C926      1.0  0.59313  0.16461  0.68573  1.0000
  H   H917      1.0  0.63134  0.99782  0.67211  1.0000
  H   H918      1.0  0.53283  0.17616  0.58234  1.0000
  H   H919      1.0  0.35793  0.11295  0.56488  1.0000
  H   H920      1.0  0.55034  0.01032  0.70411  1.0000
  N   N74       1.0  0.35611  0.07777  0.53214  1.0000
  C   C927      1.0  0.35521  0.06463  0.51960  1.0000
  H   H921      1.0  0.50508  0.13389  0.51291  1.0000
  S   S300      1.0  0.60119  0.22044  0.67982  1.0000
  S   S301      1.0  0.65702  0.12804  0.74448  1.0000
  Fe  Fe146     1.0  0.58678  0.22905  0.61279  1.0000
  S   S302      1.0  0.65682  0.07294  0.96999  1.0000
  H   H922      1.0  0.63183  0.12572  0.88800  1.0000
  H   H923      1.0  0.32809  0.07531  0.54848  1.0000
  H   H924      1.0  0.33427  0.17209  0.48866  1.0000
  H   H925      1.0  0.34499  0.12251  0.51103  1.0000
  C   C928      1.0  0.53288  0.22388  0.57731  1.0000
  C   C929      1.0  0.34091  0.08159  0.54658  1.0000
  S   S303      1.0  0.58370  0.99056  0.82505  1.0000
  H   H926      1.0  0.46906  0.10378  0.57274  1.0000
  H   H927      1.0  0.35034  0.17475  0.58895  1.0000
  H   H928      1.0  0.60127  0.05410  0.85940  1.0000
  C   C930      1.0  0.51312  0.08113  0.55362  1.0000
  N   N75       1.0  0.50042  0.10736  0.53062  1.0000
  C   C931      1.0  0.51498  0.09263  0.53540  1.0000
  C   C932      1.0  0.48406  0.11134  0.54376  1.0000
  C   C933      1.0  0.34955  0.22836  0.56736  1.0000
  C   C934      1.0  0.61721  0.17045  0.62640  1.0000
  H   H929      1.0  0.64610  0.08567  0.68404  1.0000
  H   H930      1.0  0.56043  0.14580  0.57487  1.0000
  H   H931      1.0  0.38487  0.10682  0.53769  1.0000
  C   C935      1.0  0.43210  0.14015  0.48635  1.0000
  H   H932      1.0  0.55785  0.05687  0.84902  1.0000
  C   C936      1.0  0.56214  0.13380  0.58660  1.0000
  S   S304      1.0  0.58132  0.20378  0.60164  1.0000
  C   C937      1.0  0.34150  0.09400  0.55880  1.0000
  C   C938      1.0  0.60949  0.15176  0.67936  1.0000
  C   C939      1.0  0.35000  0.18984  0.58290  1.0000
  C   C940      1.0  0.58654  0.02074  0.68898  1.0000
  C   C941      1.0  0.58864  0.10020  0.82318  1.0000
  C   C942      1.0  0.50253  0.11961  0.51165  1.0000
  C   C943      1.0  0.54664  0.13077  0.60146  1.0000
  C   C944      1.0  0.65268  0.03763  0.68471  1.0000
  S   S305      1.0  0.40448  0.11596  0.49674  1.0000
  C   C945      1.0  0.44570  0.14944  0.49063  1.0000
  H   H933      1.0  0.64734  0.02464  0.66245  1.0000
  H   H934      1.0  0.61883  0.18563  0.62055  1.0000
  C   C946      1.0  0.52685  0.20700  0.57605  1.0000
  C   C947      1.0  0.58471  0.17921  0.67250  1.0000
  C   C948      1.0  0.61736  0.15385  0.65979  1.0000
  Fe  Fe147     1.0  0.64748  0.12392  0.94056  1.0000
  C   C949      1.0  0.35755  0.10287  0.55585  1.0000
  H   H935      1.0  0.58731  0.16357  0.70095  1.0000
  S   S306      1.0  0.63261  0.05654  0.63388  1.0000
  H   H936      1.0  0.52822  0.08979  0.52523  1.0000
  C   C950      1.0  0.56077  0.00931  0.71380  1.0000
  H   H937      1.0  0.63492  0.08616  0.65374  1.0000
  C   C951      1.0  0.59836  0.98657  0.54350  1.0000
  C   C952      1.0  0.60496  0.01803  0.67781  1.0000
  N   N76       1.0  0.33513  0.20008  0.57389  1.0000
  H   H938      1.0  0.62631  0.04928  0.76029  1.0000
  H   H939      1.0  0.47277  0.12331  0.54011  1.0000
  H   H940      1.0  0.55782  0.02280  0.71975  1.0000
  C   C953      1.0  0.43225  0.22998  0.61774  1.0000
  H   H941      1.0  0.61645  0.14065  0.68959  1.0000
  C   C954      1.0  0.63963  0.05536  0.65632  1.0000
  H   H942      1.0  0.63982  0.10012  0.89095  1.0000
  S   S307      1.0  0.65089  0.11973  0.97140  1.0000
  C   C955      1.0  0.64602  0.07232  0.67965  1.0000
  Fe  Fe148     1.0  0.65224  0.08139  0.93919  1.0000
  C   C956      1.0  0.64836  0.16728  0.68578  1.0000
  C   C957      1.0  0.36499  0.19867  0.58443  1.0000
  H   H943      1.0  0.33771  0.13998  0.53836  1.0000
  C   C958      1.0  0.32629  0.13488  0.53439  1.0000
  H   H944      1.0  0.34696  0.07249  0.50812  1.0000
  H   H945      1.0  0.60953  0.02947  0.66652  1.0000
  C   C959      1.0  0.60519  0.98970  0.55922  1.0000
  C   C960      1.0  0.36466  0.21808  0.57669  1.0000
  H   H946      1.0  0.37684  0.19056  0.59156  1.0000
  H   H947      1.0  0.64366  0.99633  0.72791  1.0000
  C   C961      1.0  0.63548  0.03527  0.76229  1.0000
  C   C962      1.0  0.61086  0.98561  0.69510  1.0000
  H   H948      1.0  0.63419  0.02976  0.73467  1.0000
  H   H949      1.0  0.46742  0.22847  0.56440  1.0000
  S   S308      1.0  0.56860  0.23271  0.64131  1.0000
  S   S309      1.0  0.65776  0.08090  0.75587  1.0000
  Fe  Fe149     1.0  0.64124  0.38603  0.45772  1.0000
  Fe  Fe150     1.0  0.62917  0.42813  0.45951  1.0000
  S   S310      1.0  0.62177  0.45747  0.44193  1.0000
  H   H950      1.0  0.46157  0.47578  0.04603  1.0000
  H   H951      1.0  0.58222  0.35411  0.11814  1.0000
  Fe  Fe151     1.0  0.36636  0.26655  0.12985  1.0000
  S   S311      1.0  0.35019  0.26951  0.10570  1.0000
  S   S312      1.0  0.36020  0.24890  0.15944  1.0000
  Fe  Fe152     1.0  0.39802  0.28736  0.10462  1.0000
  S   S313      1.0  0.38507  0.29135  0.07828  1.0000
  S   S314      1.0  0.42729  0.29447  0.10314  1.0000
  Fe  Fe153     1.0  0.35695  0.29960  0.09766  1.0000
  S   S315      1.0  0.33975  0.32821  0.08614  1.0000
  Fe  Fe154     1.0  0.37963  0.26120  0.08856  1.0000
  H   H952      1.0  0.36431  0.41052  0.99552  1.0000
  S   S316      1.0  0.37046  0.29741  0.12358  1.0000
  S   S317      1.0  0.39510  0.25655  0.11313  1.0000
  Fe  Fe155     1.0  0.62491  0.26376  0.11917  1.0000
  H   H953      1.0  0.63165  0.37990  0.14272  1.0000
  Fe  Fe156     1.0  0.59546  0.29885  0.10766  1.0000
  S   S318      1.0  0.57371  0.29128  0.13374  1.0000
  S   S319      1.0  0.58904  0.32720  0.08818  1.0000
  Fe  Fe157     1.0  0.59851  0.28473  0.14993  1.0000
  S   S320      1.0  0.59605  0.29549  0.17815  1.0000
  Fe  Fe158     1.0  0.58242  0.26111  0.12713  1.0000
  S   S321      1.0  0.61961  0.29421  0.12412  1.0000
  S   S322      1.0  0.60288  0.26938  0.09984  1.0000
  Fe  Fe159     1.0  0.45791  0.38798  0.08168  1.0000
  S   S323      1.0  0.46205  0.37450  0.05571  1.0000
  S   S324      1.0  0.43243  0.38049  0.10389  1.0000
  Fe  Fe160     1.0  0.49274  0.40857  0.06617  1.0000
  S   S325      1.0  0.49874  0.39673  0.03857  1.0000
  S   S326      1.0  0.51714  0.42231  0.07046  1.0000
  Fe  Fe161     1.0  0.46644  0.40347  0.03940  1.0000
  S   S327      1.0  0.44972  0.41844  0.01531  1.0000
  Fe  Fe162     1.0  0.49344  0.36891  0.05763  1.0000
  S   S328      1.0  0.51101  0.33929  0.05672  1.0000
  S   S329      1.0  0.46079  0.41767  0.06545  1.0000
  S   S330      1.0  0.48896  0.38007  0.08502  1.0000
  H   H954      1.0  0.36300  0.35109  0.04141  1.0000
  S   S331      1.0  0.60807  0.45376  0.12911  1.0000
  H   H955      1.0  0.64270  0.44928  0.29202  1.0000
  Fe  Fe163     1.0  0.62895  0.39366  0.25084  1.0000
  C   C963      1.0  0.42158  0.41864  0.99457  1.0000
  S   S332      1.0  0.60499  0.40511  0.27328  1.0000
  C   C964      1.0  0.40922  0.41028  0.98733  1.0000
  C   C965      1.0  0.56791  0.36152  0.11578  1.0000
  H   H956      1.0  0.55113  0.43457  0.07444  1.0000
  S   S333      1.0  0.62750  0.39640  0.21976  1.0000
  C   C966      1.0  0.36081  0.38053  0.02654  1.0000
  S   S334      1.0  0.60803  0.45857  0.35840  1.0000
  C   C967      1.0  0.38650  0.34452  0.07736  1.0000
  S   S335      1.0  0.60510  0.25358  0.14616  1.0000
  H   H957      1.0  0.61087  0.42836  0.39078  1.0000
  N   N77       1.0  0.65395  0.39092  0.15031  1.0000
  C   C968      1.0  0.64416  0.44092  0.17636  1.0000
  C   C969      1.0  0.62242  0.40414  0.31984  1.0000
  C   C970      1.0  0.63137  0.46338  0.14997  1.0000
  C   C971      1.0  0.62096  0.44990  0.14791  1.0000
  C   C972      1.0  0.62167  0.43229  0.16040  1.0000
  C   C973      1.0  0.63331  0.42779  0.17448  1.0000
  Fe  Fe164     1.0  0.64664  0.36726  0.22083  1.0000
  C   C974      1.0  0.35338  0.36441  0.03724  1.0000
  H   H958      1.0  0.61363  0.42183  0.15883  1.0000
  H   H959      1.0  0.63461  0.41373  0.18314  1.0000
  C   C975      1.0  0.60248  0.43015  0.27178  1.0000
  C   C976      1.0  0.61124  0.44144  0.25544  1.0000
  C   C977      1.0  0.60976  0.46124  0.25475  1.0000
  C   C978      1.0  0.59975  0.46984  0.27049  1.0000
  C   C979      1.0  0.59084  0.45861  0.28676  1.0000
  C   C980      1.0  0.59198  0.43887  0.28728  1.0000
  H   H960      1.0  0.61901  0.43495  0.24322  1.0000
  H   H961      1.0  0.61660  0.46985  0.24207  1.0000
  H   H962      1.0  0.39984  0.41913  0.97779  1.0000
  H   H963      1.0  0.58493  0.43028  0.29983  1.0000
  C   C981      1.0  0.65212  0.23416  0.16129  1.0000
  C   C982      1.0  0.43413  0.40735  0.00676  1.0000
  C   C983      1.0  0.43408  0.38759  0.01171  1.0000
  C   C984      1.0  0.42171  0.37924  0.00452  1.0000
  C   C985      1.0  0.52685  0.47620  0.08939  1.0000
  H   H964      1.0  0.47754  0.29126  0.06907  1.0000
  H   H965      1.0  0.51868  0.43718  0.01220  1.0000
  H   H966      1.0  0.44397  0.37862  0.02064  1.0000
  H   H967      1.0  0.42205  0.36389  0.00820  1.0000
  H   H968      1.0  0.65151  0.46904  0.16550  1.0000
  C   C986      1.0  0.48773  0.44422  0.01749  1.0000
  C   C987      1.0  0.61005  0.31092  0.18318  1.0000
  C   C988      1.0  0.62748  0.31447  0.17138  1.0000
  C   C989      1.0  0.63883  0.32558  0.17659  1.0000
  C   C990      1.0  0.63275  0.33381  0.19336  1.0000
  C   C991      1.0  0.61515  0.33056  0.20498  1.0000
  C   C992      1.0  0.60402  0.31902  0.20001  1.0000
  H   H969      1.0  0.63242  0.30835  0.15843  1.0000
  H   H970      1.0  0.61655  0.45188  0.32030  1.0000
  H   H971      1.0  0.61025  0.33665  0.21796  1.0000
  H   H972      1.0  0.59063  0.31633  0.20933  1.0000
  C   C993      1.0  0.56785  0.33046  0.07860  1.0000
  C   C994      1.0  0.56011  0.31467  0.07745  1.0000
  C   C995      1.0  0.54311  0.31754  0.06987  1.0000
  C   C996      1.0  0.53324  0.33615  0.06437  1.0000
  C   C997      1.0  0.54092  0.35197  0.06560  1.0000
  C   C998      1.0  0.55842  0.34910  0.07233  1.0000
  H   H973      1.0  0.56746  0.30025  0.08201  1.0000
  H   H974      1.0  0.53761  0.30534  0.06824  1.0000
  H   H975      1.0  0.53350  0.36640  0.06117  1.0000
  H   H976      1.0  0.56448  0.36136  0.07298  1.0000
  C   C999      1.0  0.61508  0.42177  0.32602  1.0000
  C   C1000     1.0  0.42832  0.31822  0.10439  1.0000
  C   C1001     1.0  0.41212  0.33065  0.11198  1.0000
  C   C1002     1.0  0.41349  0.34969  0.11235  1.0000
  C   C1003     1.0  0.43099  0.35631  0.10498  1.0000
  C   C1004     1.0  0.44721  0.34371  0.09778  1.0000
  C   C1005     1.0  0.44588  0.32474  0.09754  1.0000
  H   H977      1.0  0.39857  0.32564  0.11755  1.0000
  H   H978      1.0  0.40094  0.35934  0.11810  1.0000
  H   H979      1.0  0.46089  0.34852  0.09249  1.0000
  H   H980      1.0  0.45844  0.31516  0.09180  1.0000
  N   N78       1.0  0.65052  0.25230  0.16495  1.0000
  H   H981      1.0  0.42311  0.39480  0.05039  1.0000
  H   H982      1.0  0.55441  0.45877  0.43258  1.0000
  C   C1006     1.0  0.37584  0.36143  0.08316  1.0000
  H   H983      1.0  0.44610  0.26111  0.12544  1.0000
  H   H984      1.0  0.49453  0.47881  0.04844  1.0000
  H   H985      1.0  0.45160  0.25401  0.07041  1.0000
  H   H986      1.0  0.41657  0.26069  0.07094  1.0000
  C   C1007     1.0  0.64064  0.37728  0.15403  1.0000
  H   H987      1.0  0.55599  0.33566  0.12326  1.0000
  H   H988      1.0  0.61625  0.39161  0.32733  1.0000
  H   H989      1.0  0.55691  0.46348  0.08417  1.0000
  C   C1008     1.0  0.52808  0.46025  0.03144  1.0000
  C   C1009     1.0  0.61943  0.45730  0.41835  1.0000
  C   C1010     1.0  0.53159  0.37948  0.10825  1.0000
  C   C1011     1.0  0.55293  0.35111  0.11869  1.0000
  C   C1012     1.0  0.61319  0.45820  0.38113  1.0000
  C   C1013     1.0  0.61342  0.44116  0.39462  1.0000
  C   C1014     1.0  0.61649  0.44071  0.41322  1.0000
  H   H990      1.0  0.39899  0.40787  0.05384  1.0000
  C   C1015     1.0  0.49274  0.46906  0.03969  1.0000
  C   C1016     1.0  0.56937  0.45925  0.42475  1.0000
  C   C1017     1.0  0.64306  0.45884  0.16418  1.0000
  C   C1018     1.0  0.44431  0.24246  0.07019  1.0000
  C   C1019     1.0  0.62320  0.24736  0.18988  1.0000
  C   C1020     1.0  0.35697  0.41385  0.00983  1.0000
  C   C1021     1.0  0.58678  0.46684  0.18444  1.0000
  N   N79       1.0  0.50851  0.45829  0.03032  1.0000
  H   H991      1.0  0.63294  0.37858  0.29443  1.0000
  N   N80       1.0  0.34870  0.39730  0.02125  1.0000
  H   H992      1.0  0.37560  0.39128  0.08259  1.0000
  H   H993      1.0  0.52195  0.33555  0.12818  1.0000
  H   H994      1.0  0.41347  0.33126  0.06218  1.0000
  H   H995      1.0  0.51757  0.38668  0.10489  1.0000
  C   C1022     1.0  0.50620  0.44593  0.01939  1.0000
  C   C1023     1.0  0.40932  0.39048  0.99216  1.0000
  H   H996      1.0  0.37633  0.37951  0.02233  1.0000
  C   C1024     1.0  0.52233  0.26211  0.08969  1.0000
  C   C1025     1.0  0.49014  0.28315  0.07495  1.0000
  C   C1026     1.0  0.51547  0.28098  0.09282  1.0000
  C   C1027     1.0  0.49947  0.29167  0.08508  1.0000
  H   H997      1.0  0.38070  0.33131  0.08198  1.0000
  H   H998      1.0  0.51962  0.34481  0.10346  1.0000
  H   H999      1.0  0.45718  0.45353  0.02593  1.0000
  H   H1000     1.0  0.58835  0.46384  0.22140  1.0000
  H   H1001     1.0  0.52280  0.28737  0.10084  1.0000
  H   H1002     1.0  0.65566  0.27521  0.14209  1.0000
  C   C1028     1.0  0.44862  0.23354  0.11771  1.0000
  H   H1003     1.0  0.42661  0.36145  0.05235  1.0000
  C   C1029     1.0  0.41224  0.36165  0.06081  1.0000
  H   H1004     1.0  0.58925  0.47292  0.16885  1.0000
  H   H1005     1.0  0.64886  0.36237  0.15484  1.0000
  H   H1006     1.0  0.60080  0.45828  0.18785  1.0000
  H   H1007     1.0  0.48588  0.43435  0.00887  1.0000
  H   H1008     1.0  0.57401  0.44751  0.41614  1.0000
  C   C1030     1.0  0.42439  0.24625  0.07059  1.0000
  C   C1031     1.0  0.40935  0.39622  0.06079  1.0000
  H   H1009     1.0  0.57612  0.45710  0.18713  1.0000
  C   C1032     1.0  0.64885  0.24904  0.06556  1.0000
  N   N81       1.0  0.57028  0.47803  0.41241  1.0000
  H   H1010     1.0  0.49445  0.30658  0.08679  1.0000
  H   H1011     1.0  0.41221  0.40053  0.07363  1.0000
  H   H1012     1.0  0.48988  0.25755  0.06447  1.0000
  H   H1013     1.0  0.61620  0.42764  0.42368  1.0000
  H   H1014     1.0  0.57920  0.45629  0.43542  1.0000
  H   H1015     1.0  0.65043  0.37348  0.31032  1.0000
  C   C1033     1.0  0.61962  0.47422  0.40475  1.0000
  H   H1016     1.0  0.56196  0.46992  0.38906  1.0000
  N   N82       1.0  0.57974  0.48196  0.19617  1.0000
  C   C1034     1.0  0.63719  0.43658  0.30012  1.0000
  N   N83       1.0  0.63701  0.40274  0.30436  1.0000
  H   H1017     1.0  0.42236  0.25956  0.16650  1.0000
  C   C1035     1.0  0.52055  0.23410  0.07646  1.0000
  H   H1018     1.0  0.50532  0.35726  0.12233  1.0000
  C   C1036     1.0  0.54621  0.39033  0.10524  1.0000
  H   H1019     1.0  0.53528  0.46705  0.01730  1.0000
  C   C1037     1.0  0.38374  0.37826  0.07765  1.0000
  N   N84       1.0  0.42462  0.24564  0.14292  1.0000
  C   C1038     1.0  0.51972  0.34888  0.11739  1.0000
  C   C1039     1.0  0.56448  0.38126  0.10901  1.0000
  C   C1040     1.0  0.47405  0.46748  0.03833  1.0000
  C   C1041     1.0  0.41553  0.26120  0.15375  1.0000
  H   H1020     1.0  0.57604  0.38946  0.10639  1.0000
  N   N85       1.0  0.51339  0.25401  0.07932  1.0000
  C   C1042     1.0  0.50458  0.45709  0.08417  1.0000
  S   S336      1.0  0.64794  0.34771  0.19899  1.0000
  C   C1043     1.0  0.49725  0.26413  0.07231  1.0000
  C   C1044     1.0  0.54231  0.46179  0.08426  1.0000
  C   C1045     1.0  0.52010  0.44286  0.07872  1.0000
  C   C1046     1.0  0.32910  0.39850  0.02627  1.0000
  H   H1021     1.0  0.41694  0.27548  0.14465  1.0000
  H   H1022     1.0  0.48999  0.45539  0.08429  1.0000
  S   S337      1.0  0.64647  0.36380  0.43888  1.0000
  C   C1047     1.0  0.53895  0.44534  0.07882  1.0000
  H   H1023     1.0  0.64249  0.40825  0.12610  1.0000
  C   C1048     1.0  0.64438  0.41869  0.29452  1.0000
  H   H1024     1.0  0.63473  0.27345  0.18166  1.0000
  H   H1025     1.0  0.39976  0.26122  0.15846  1.0000
  H   H1026     1.0  0.63093  0.47700  0.14026  1.0000
  H   H1027     1.0  0.63082  0.37836  0.16803  1.0000
  H   H1028     1.0  0.53500  0.25410  0.09546  1.0000
  H   H1029     1.0  0.42155  0.43392  0.99055  1.0000
  H   H1030     1.0  0.36171  0.36131  0.09217  1.0000
  H   H1031     1.0  0.54337  0.40562  0.09973  1.0000
  S   S338      1.0  0.64541  0.36324  0.25301  1.0000
  H   H1032     1.0  0.60347  0.42298  0.33826  1.0000
  N   N86       1.0  0.40162  0.37826  0.06642  1.0000
  N   N87       1.0  0.53500  0.36015  0.11508  1.0000
  S   S339      1.0  0.55754  0.24574  0.12764  1.0000
  C   C1049     1.0  0.40484  0.34454  0.06619  1.0000
  C   C1050     1.0  0.47158  0.45503  0.02708  1.0000
  H   H1033     1.0  0.34576  0.42692  0.00750  1.0000
  H   H1034     1.0  0.53670  0.44587  0.03588  1.0000
  C   C1051     1.0  0.50798  0.47373  0.08928  1.0000
  H   H1035     1.0  0.52802  0.46912  0.04229  1.0000
  S   S340      1.0  0.61202  0.40457  0.46374  1.0000
  C   C1052     1.0  0.62251  0.43805  0.31602  1.0000
  H   H1036     1.0  0.58279  0.46519  0.29884  1.0000
  S   S341      1.0  0.39408  0.37910  0.98352  1.0000
  H   H1037     1.0  0.46067  0.23563  0.10608  1.0000
  H   H1038     1.0  0.36773  0.41724  0.01697  1.0000
  H   H1039     1.0  0.65252  0.32770  0.16760  1.0000
  C   C1053     1.0  0.64461  0.38398  0.29847  1.0000
  H   H1040     1.0  0.64528  0.40155  0.41303  1.0000
  Fe  Fe165     1.0  0.65500  0.40793  0.21478  1.0000
  C   C1054     1.0  0.58147  0.47797  0.21513  1.0000
  S   S342      1.0  0.38942  0.23644  0.07264  1.0000
  H   H1041     1.0  0.61158  0.25304  0.20058  1.0000
  H   H1042     1.0  0.65626  0.43316  0.40272  1.0000
  C   C1055     1.0  0.44030  0.24791  0.12871  1.0000
  H   H1043     1.0  0.32759  0.35308  0.05078  1.0000
  H   H1044     1.0  0.63852  0.24110  0.07630  1.0000
  H   H1045     1.0  0.65065  0.26098  0.07212  1.0000
  H   H1046     1.0  0.64249  0.25520  0.05242  1.0000
  C   C1056     1.0  0.33344  0.36551  0.04245  1.0000
  C   C1057     1.0  0.65304  0.40610  0.13540  1.0000
  H   H1047     1.0  0.65571  0.41774  0.28211  1.0000
  S   S343      1.0  0.65499  0.40744  0.24579  1.0000
  C   C1058     1.0  0.61652  0.47467  0.38616  1.0000
  S   S344      1.0  0.65655  0.25107  0.11207  1.0000
  C   C1059     1.0  0.56544  0.48136  0.39456  1.0000
  H   H1048     1.0  0.65646  0.38472  0.28586  1.0000
  C   C1060     1.0  0.65597  0.40407  0.40014  1.0000
  C   C1061     1.0  0.63628  0.25895  0.17900  1.0000
  S   S345      1.0  0.65800  0.41001  0.45119  1.0000
  Fe  Fe166     1.0  0.61684  0.39881  0.49427  1.0000
  S   S346      1.0  0.63169  0.42401  0.49062  1.0000
  S   S347      1.0  0.59683  0.39096  0.52222  1.0000
  C   C1062     1.0  0.61630  0.40243  0.55835  1.0000
  C   C1063     1.0  0.44313  0.25120  0.56967  1.0000
  C   C1064     1.0  0.46977  0.27581  0.55860  1.0000
  H   H1049     1.0  0.35136  0.47745  0.65029  1.0000
  Fe  Fe167     1.0  0.38283  0.27960  0.63337  1.0000
  S   S348      1.0  0.37025  0.28426  0.60665  1.0000
  S   S349      1.0  0.41281  0.26202  0.63250  1.0000
  Fe  Fe168     1.0  0.36263  0.31496  0.61088  1.0000
  S   S350      1.0  0.37062  0.33982  0.58839  1.0000
  S   S351      1.0  0.37729  0.31066  0.63613  1.0000
  Fe  Fe169     1.0  0.56605  0.26413  0.62997  1.0000
  S   S352      1.0  0.58289  0.26067  0.60071  1.0000
  S   S353      1.0  0.53566  0.28002  0.63290  1.0000
  C   C1065     1.0  0.42048  0.46288  0.89348  1.0000
  Fe  Fe170     1.0  0.60860  0.26156  0.61372  1.0000
  S   S354      1.0  0.63254  0.27849  0.59826  1.0000
  H   H1050     1.0  0.63064  0.24199  0.65399  1.0000
  S   S355      1.0  0.59112  0.26741  0.64212  1.0000
  H   H1051     1.0  0.51737  0.24946  0.63092  1.0000
  Fe  Fe171     1.0  0.49907  0.37898  0.59403  1.0000
  S   S356      1.0  0.50154  0.36602  0.56801  1.0000
  S   S357      1.0  0.52426  0.37007  0.60954  1.0000
  Fe  Fe172     1.0  0.45998  0.40334  0.58916  1.0000
  S   S358      1.0  0.45958  0.39263  0.56230  1.0000
  S   S359      1.0  0.43335  0.42253  0.60176  1.0000
  Fe  Fe173     1.0  0.47041  0.36365  0.57859  1.0000
  S   S360      1.0  0.46057  0.33558  0.58054  1.0000
  Fe  Fe174     1.0  0.49081  0.39605  0.55448  1.0000
  S   S361      1.0  0.50604  0.40855  0.52549  1.0000
  S   S362      1.0  0.46877  0.37412  0.60599  1.0000
  S   S363      1.0  0.49025  0.40937  0.57987  1.0000
  S   S364      1.0  0.37150  0.38684  0.93498  1.0000
  C   C1066     1.0  0.53305  0.30499  0.62659  1.0000
  C   C1067     1.0  0.51686  0.31506  0.61879  1.0000
  C   C1068     1.0  0.51425  0.33504  0.61361  1.0000
  C   C1069     1.0  0.52766  0.34508  0.61645  1.0000
  C   C1070     1.0  0.54392  0.33505  0.62429  1.0000
  C   C1071     1.0  0.54668  0.31491  0.62928  1.0000
  H   H1052     1.0  0.50635  0.30746  0.61656  1.0000
  H   H1053     1.0  0.50171  0.34263  0.60756  1.0000
  H   H1054     1.0  0.55429  0.34283  0.62651  1.0000
  H   H1055     1.0  0.55913  0.30714  0.63548  1.0000
  H   H1056     1.0  0.35106  0.35599  0.64476  1.0000
  C   C1072     1.0  0.40314  0.47464  0.78985  1.0000
  C   C1073     1.0  0.36791  0.39972  0.67363  1.0000
  C   C1074     1.0  0.43021  0.44180  0.54762  1.0000
  C   C1075     1.0  0.44081  0.47198  0.54723  1.0000
  Fe  Fe175     1.0  0.34872  0.30576  0.65355  1.0000
  C   C1076     1.0  0.39560  0.33900  0.58593  1.0000
  C   C1077     1.0  0.40384  0.35537  0.57766  1.0000
  C   C1078     1.0  0.42376  0.35464  0.57634  1.0000
  C   C1079     1.0  0.43547  0.33744  0.58297  1.0000
  C   C1080     1.0  0.42717  0.32115  0.59125  1.0000
  C   C1081     1.0  0.40731  0.32198  0.59282  1.0000
  H   H1057     1.0  0.39482  0.36861  0.57238  1.0000
  H   H1058     1.0  0.43008  0.36725  0.56984  1.0000
  H   H1059     1.0  0.43606  0.30789  0.59660  1.0000
  H   H1060     1.0  0.40106  0.30936  0.59929  1.0000
  Fe  Fe176     1.0  0.37027  0.42527  0.75190  1.0000
  C   C1082     1.0  0.41732  0.46052  0.59960  1.0000
  C   C1083     1.0  0.43446  0.44707  0.59755  1.0000
  C   C1084     1.0  0.45221  0.45334  0.59258  1.0000
  C   C1085     1.0  0.39759  0.23633  0.61980  1.0000
  H   H1061     1.0  0.44450  0.29041  0.63079  1.0000
  H   H1062     1.0  0.40354  0.45572  0.60349  1.0000
  H   H1063     1.0  0.46549  0.44307  0.59125  1.0000
  C   C1086     1.0  0.54951  0.34748  0.56495  1.0000
  H   H1064     1.0  0.46185  0.29603  0.64216  1.0000
  H   H1065     1.0  0.39077  0.34062  0.69294  1.0000
  C   C1087     1.0  0.39159  0.45427  0.77326  1.0000
  H   H1066     1.0  0.38030  0.35656  0.61938  1.0000
  H   H1067     1.0  0.46661  0.47776  0.58621  1.0000
  N   N88       1.0  0.37114  0.38794  0.65866  1.0000
  Fe  Fe177     1.0  0.33996  0.38535  0.94514  1.0000
  C   C1088     1.0  0.39992  0.45649  0.78837  1.0000
  H   H1068     1.0  0.39758  0.39736  0.64467  1.0000
  Fe  Fe178     1.0  0.36126  0.41855  0.92649  1.0000
  H   H1069     1.0  0.40405  0.44408  0.79892  1.0000
  H   H1070     1.0  0.49417  0.44844  0.53413  1.0000
  C   C1089     1.0  0.57166  0.39698  0.52273  1.0000
  C   C1090     1.0  0.55921  0.39393  0.54038  1.0000
  C   C1091     1.0  0.53912  0.39754  0.54126  1.0000
  C   C1092     1.0  0.53128  0.40442  0.52449  1.0000
  C   C1093     1.0  0.54369  0.40789  0.50685  1.0000
  C   C1094     1.0  0.56386  0.40412  0.50595  1.0000
  H   H1071     1.0  0.56508  0.38873  0.55347  1.0000
  H   H1072     1.0  0.52970  0.39509  0.55498  1.0000
  H   H1073     1.0  0.53772  0.41321  0.49383  1.0000
  H   H1074     1.0  0.57333  0.40651  0.49227  1.0000
  S   S365      1.0  0.38799  0.43116  0.77192  1.0000
  H   H1075     1.0  0.54756  0.35308  0.54983  1.0000
  C   C1095     1.0  0.40334  0.44934  0.67054  1.0000
  S   S366      1.0  0.35631  0.39901  0.76251  1.0000
  H   H1076     1.0  0.40367  0.37744  0.61934  1.0000
  H   H1077     1.0  0.37978  0.46887  0.74808  1.0000
  H   H1078     1.0  0.54582  0.35971  0.57292  1.0000
  S   S367      1.0  0.37408  0.43103  0.89618  1.0000
  H   H1079     1.0  0.44349  0.46545  0.62959  1.0000
  C   C1096     1.0  0.63711  0.29476  0.62827  1.0000
  H   H1080     1.0  0.48004  0.28562  0.55435  1.0000
  C   C1097     1.0  0.63809  0.24690  0.66352  1.0000
  C   C1098     1.0  0.43219  0.44140  0.64769  1.0000
  S   S368      1.0  0.33421  0.32166  0.67832  1.0000
  C   C1099     1.0  0.39082  0.37713  0.63035  1.0000
  C   C1100     1.0  0.64324  0.29258  0.60905  1.0000
  S   S369      1.0  0.34322  0.44549  0.74569  1.0000
  H   H1081     1.0  0.61580  0.41240  0.56828  1.0000
  C   C1101     1.0  0.37418  0.45584  0.88960  1.0000
  H   H1082     1.0  0.63120  0.38611  0.58997  1.0000
  H   H1083     1.0  0.32540  0.38851  0.89756  1.0000
  N   N89       1.0  0.63229  0.38616  0.56026  1.0000
  N   N90       1.0  0.34683  0.44307  0.81076  1.0000
  H   H1084     1.0  0.39186  0.44501  0.68200  1.0000
  H   H1085     1.0  0.35553  0.48066  0.70779  1.0000
  H   H1086     1.0  0.35797  0.46312  0.91647  1.0000
  H   H1087     1.0  0.36463  0.47746  0.83470  1.0000
  C   C1102     1.0  0.34394  0.35794  0.70991  1.0000
  C   C1103     1.0  0.64727  0.30431  0.63686  1.0000
  C   C1104     1.0  0.35310  0.47683  0.67975  1.0000
  H   H1088     1.0  0.36513  0.41526  0.66739  1.0000
  H   H1089     1.0  0.34522  0.37644  0.66948  1.0000
  C   C1105     1.0  0.49849  0.24141  0.61574  1.0000
  H   H1090     1.0  0.61797  0.41091  0.54355  1.0000
  C   C1106     1.0  0.35529  0.47376  0.80953  1.0000
  H   H1091     1.0  0.63648  0.38305  0.53095  1.0000
  C   C1107     1.0  0.34056  0.42977  0.80162  1.0000
  H   H1092     1.0  0.32825  0.34677  0.85541  1.0000
  C   C1108     1.0  0.41767  0.43555  0.66253  1.0000
  H   H1093     1.0  0.41630  0.45096  0.54470  1.0000
  H   H1094     1.0  0.35322  0.41920  0.79644  1.0000
  S   S370      1.0  0.64446  0.37793  0.48858  1.0000
  H   H1095     1.0  0.39245  0.47945  0.66959  1.0000
  H   H1096     1.0  0.46263  0.30416  0.61670  1.0000
  H   H1097     1.0  0.49472  0.27883  0.63850  1.0000
  H   H1098     1.0  0.35012  0.42256  0.83625  1.0000
  S   S371      1.0  0.37909  0.41878  0.72187  1.0000
  Fe  Fe179     1.0  0.35067  0.43683  0.71662  1.0000
  H   H1099     1.0  0.58155  0.35621  0.54151  1.0000
  C   C1109     1.0  0.34613  0.33454  0.68915  1.0000
  H   H1100     1.0  0.37501  0.32246  0.67701  1.0000
  H   H1101     1.0  0.62487  0.28865  0.63668  1.0000
  H   H1102     1.0  0.38063  0.39648  0.68094  1.0000
  C   C1110     1.0  0.47606  0.25616  0.55861  1.0000
  H   H1103     1.0  0.52502  0.23771  0.57169  1.0000
  H   H1104     1.0  0.44008  0.45691  0.86763  1.0000
  H   H1105     1.0  0.40106  0.47345  0.91748  1.0000
  H   H1106     1.0  0.40712  0.26890  0.57327  1.0000
  C   C1111     1.0  0.50349  0.25313  0.62621  1.0000
  C   C1112     1.0  0.38729  0.38835  0.64473  1.0000
  C   C1113     1.0  0.41791  0.48022  0.59653  1.0000
  H   H1107     1.0  0.47679  0.23728  0.60145  1.0000
  H   H1108     1.0  0.42590  0.47845  0.55168  1.0000
  Fe  Fe180     1.0  0.34231  0.28028  0.62657  1.0000
  S   S372      1.0  0.32969  0.41666  0.93522  1.0000
  H   H1109     1.0  0.64131  0.23467  0.67523  1.0000
  S   S373      1.0  0.36430  0.42533  0.95457  1.0000
  C   C1114     1.0  0.36123  0.36523  0.64449  1.0000
  N   N91       1.0  0.56938  0.33774  0.56607  1.0000
  C   C1115     1.0  0.57291  0.32282  0.58072  1.0000
  C   C1116     1.0  0.58435  0.34435  0.55311  1.0000
  C   C1117     1.0  0.59185  0.31407  0.58268  1.0000
  C   C1118     1.0  0.60348  0.33588  0.55457  1.0000
  C   C1119     1.0  0.60722  0.32064  0.56949  1.0000
  H   H1110     1.0  0.56104  0.31758  0.59096  1.0000
  H   H1111     1.0  0.59458  0.30228  0.59438  1.0000
  H   H1112     1.0  0.61524  0.34117  0.54417  1.0000
  H   H1113     1.0  0.62196  0.31385  0.57087  1.0000
  Fe  Fe181     1.0  0.33377  0.42007  0.96421  1.0000
  C   C1120     1.0  0.47458  0.47447  0.54011  1.0000
  H   H1114     1.0  0.49127  0.25047  0.55433  1.0000
  C   C1121     1.0  0.41425  0.24126  0.62296  1.0000
  C   C1122     1.0  0.36627  0.33234  0.68609  1.0000
  H   H1115     1.0  0.41222  0.29279  0.56864  1.0000
  Fe  Fe182     1.0  0.59560  0.23524  0.65036  1.0000
  C   C1123     1.0  0.37771  0.36544  0.63033  1.0000
  H   H1116     1.0  0.41742  0.44836  0.89792  1.0000
  C   C1124     1.0  0.41667  0.27785  0.57604  1.0000
  N   N92       1.0  0.41798  0.47447  0.64894  1.0000
  H   H1117     1.0  0.36106  0.44449  0.85208  1.0000
  H   H1118     1.0  0.65515  0.24449  0.62714  1.0000
  H   H1119     1.0  0.38356  0.24456  0.62438  1.0000
  N   N93       1.0  0.44546  0.45327  0.54452  1.0000
  H   H1120     1.0  0.33523  0.36769  0.71915  1.0000
  H   H1121     1.0  0.43407  0.43093  0.53801  1.0000
  H   H1122     1.0  0.39067  0.45314  0.86143  1.0000
  C   C1125     1.0  0.63796  0.37923  0.57768  1.0000
  N   N94       1.0  0.43706  0.27050  0.56938  1.0000
  S   S374      1.0  0.33326  0.31188  0.62831  1.0000
  C   C1126     1.0  0.65306  0.36360  0.57977  1.0000
  Fe  Fe183     1.0  0.36213  0.39463  0.73166  1.0000
  C   C1127     1.0  0.38367  0.46293  0.87126  1.0000
  H   H1123     1.0  0.62770  0.25867  0.66978  1.0000
  C   C1128     1.0  0.45009  0.28277  0.56406  1.0000
  H   H1124     1.0  0.46813  0.42998  0.53800  1.0000
  C   C1129     1.0  0.35806  0.37676  0.65852  1.0000
  H   H1125     1.0  0.44534  0.29809  0.56393  1.0000
  Fe  Fe184     1.0  0.37216  0.39349  0.96384  1.0000
  H   H1126     1.0  0.55359  0.23623  0.58640  1.0000
  N   N95       1.0  0.47301  0.27438  0.62466  1.0000
  C   C1130     1.0  0.46804  0.26306  0.61421  1.0000
  C   C1131     1.0  0.49057  0.26973  0.63047  1.0000
  C   C1132     1.0  0.48072  0.24641  0.60958  1.0000
  C   C1133     1.0  0.38459  0.48258  0.86575  1.0000
  H   H1127     1.0  0.65283  0.42311  0.55269  1.0000
  C   C1134     1.0  0.45986  0.29211  0.62874  1.0000
  H   H1128     1.0  0.45409  0.26676  0.60965  1.0000
  S   S375      1.0  0.37605  0.36805  0.71822  1.0000
  Fe  Fe185     1.0  0.32946  0.41907  0.75532  1.0000
  H   H1129     1.0  0.53904  0.33759  0.57139  1.0000
  C   C1135     1.0  0.45281  0.47299  0.58984  1.0000
  C   C1136     1.0  0.37518  0.34266  0.69515  1.0000
  H   H1130     1.0  0.42806  0.43420  0.56273  1.0000
  H   H1131     1.0  0.43286  0.24140  0.57415  1.0000
  C   C1137     1.0  0.38627  0.47040  0.75972  1.0000
  C   C1138     1.0  0.36409  0.35550  0.70710  1.0000
  C   C1139     1.0  0.41130  0.47697  0.90449  1.0000
  C   C1140     1.0  0.40370  0.46883  0.66347  1.0000
  H   H1132     1.0  0.35534  0.39669  0.68503  1.0000
  H   H1133     1.0  0.64276  0.30539  0.65189  1.0000
  C   C1141     1.0  0.35759  0.44933  0.83774  1.0000
  S   S376      1.0  0.34962  0.45287  0.68649  1.0000
  S   S377      1.0  0.35547  0.27384  0.65346  1.0000
  H   H1134     1.0  0.44322  0.43082  0.64106  1.0000
  H   H1135     1.0  0.33359  0.43740  0.78914  1.0000
  C   C1142     1.0  0.46267  0.24377  0.56421  1.0000
  H   H1136     1.0  0.41419  0.27770  0.59174  1.0000
  C   C1143     1.0  0.46437  0.44487  0.53991  1.0000
  C   C1144     1.0  0.43219  0.46104  0.64114  1.0000
  C   C1145     1.0  0.64103  0.37758  0.54473  1.0000
  C   C1146     1.0  0.35130  0.43702  0.82877  1.0000
  C   C1147     1.0  0.36538  0.46849  0.90234  1.0000
  C   C1148     1.0  0.47920  0.45531  0.53764  1.0000
  C   C1149     1.0  0.34900  0.46108  0.80102  1.0000
  H   H1137     1.0  0.33578  0.36548  0.87499  1.0000
  C   C1150     1.0  0.35956  0.46782  0.82802  1.0000
  S   S378      1.0  0.33396  0.41256  0.72543  1.0000
  C   C1151     1.0  0.33503  0.34735  0.70113  1.0000
  C   C1152     1.0  0.43307  0.46772  0.87642  1.0000
  H   H1138     1.0  0.41748  0.42038  0.66778  1.0000
  H   H1139     1.0  0.60238  0.39712  0.56138  1.0000
  S   S379      1.0  0.32805  0.36191  0.93712  1.0000
  H   H1140     1.0  0.40989  0.47609  0.80134  1.0000
  H   H1141     1.0  0.34905  0.24350  0.56142  1.0000
  H   H1142     1.0  0.32970  0.42202  0.81176  1.0000
  H   H1143     1.0  0.34630  0.46558  0.78641  1.0000
  C   C1153     1.0  0.45527  0.48293  0.54483  1.0000
  N   N96       1.0  0.65588  0.25365  0.65313  1.0000
  C   C1154     1.0  0.65636  0.36208  0.54624  1.0000
  H   H1144     1.0  0.48595  0.48266  0.53869  1.0000
  S   S380      1.0  0.34163  0.38857  0.97490  1.0000
  H   H1145     1.0  0.65718  0.42152  0.51811  1.0000
  H   H1146     1.0  0.65784  0.35850  0.59351  1.0000
  H   H1147     1.0  0.44503  0.23327  0.62086  1.0000
  Fe  Fe186     1.0  0.50720  0.68968  0.35921  1.0000
  S   S381      1.0  0.50752  0.67903  0.39054  1.0000
  C   C1155     1.0  0.64936  0.53473  0.00357  1.0000
  Fe  Fe187     1.0  0.52545  0.65037  0.34884  1.0000
  S   S382      1.0  0.52665  0.63692  0.37946  1.0000
  S   S383      1.0  0.54000  0.63342  0.32507  1.0000
  Fe  Fe188     1.0  0.49678  0.65388  0.38587  1.0000
  S   S384      1.0  0.47460  0.64193  0.40978  1.0000
  Fe  Fe189     1.0  0.53716  0.66336  0.38108  1.0000
  S   S385      1.0  0.56174  0.65876  0.39702  1.0000
  S   S386      1.0  0.49439  0.66541  0.35495  1.0000
  S   S387      1.0  0.53797  0.67600  0.35006  1.0000
  N   N97       1.0  0.61632  0.56226  0.99951  1.0000
  N   N98       1.0  0.32896  0.67897  0.35712  1.0000
  S   S388      1.0  0.63026  0.70544  0.36908  1.0000
  H   H1148     1.0  0.64851  0.66231  0.33209  1.0000
  H   H1149     1.0  0.55640  0.52805  0.19328  1.0000
  H   H1150     1.0  0.61659  0.48780  0.37581  1.0000
  Fe  Fe190     1.0  0.62123  0.63120  0.99982  1.0000
  S   S389      1.0  0.60027  0.62082  0.02613  1.0000
  C   C1156     1.0  0.64957  0.68326  0.25654  1.0000
  Fe  Fe191     1.0  0.62019  0.52259  0.31534  1.0000
  S   S390      1.0  0.59450  0.53387  0.30084  1.0000
  H   H1151     1.0  0.47599  0.59797  0.43634  1.0000
  H   H1152     1.0  0.46606  0.69494  0.37465  1.0000
  C   C1157     1.0  0.61993  0.67493  0.25233  1.0000
  H   H1153     1.0  0.38250  0.71731  0.37958  1.0000
  Fe  Fe192     1.0  0.57747  0.52536  0.33012  1.0000
  S   S391      1.0  0.55166  0.54241  0.34643  1.0000
  S   S392      1.0  0.60312  0.51638  0.34495  1.0000
  Fe  Fe193     1.0  0.59591  0.51946  0.08720  1.0000
  S   S393      1.0  0.56561  0.53294  0.09841  1.0000
  S   S394      1.0  0.61678  0.53255  0.06241  1.0000
  S   S395      1.0  0.60729  0.66204  0.24238  1.0000
  Fe  Fe194     1.0  0.65249  0.65539  0.98181  1.0000
  C   C1158     1.0  0.60938  0.68866  0.26354  1.0000
  Fe  Fe195     1.0  0.55837  0.50323  0.10185  1.0000
  H   H1154     1.0  0.57880  0.52207  0.41324  1.0000
  Fe  Fe196     1.0  0.57480  0.52334  0.12731  1.0000
  S   S396      1.0  0.56526  0.54177  0.15073  1.0000
  H   H1155     1.0  0.60827  0.69617  0.20769  1.0000
  S   S397      1.0  0.60549  0.51147  0.11595  1.0000
  S   S398      1.0  0.61876  0.61060  0.22760  1.0000
  Fe  Fe197     1.0  0.61303  0.61348  0.19764  1.0000
  S   S399      1.0  0.58895  0.59940  0.19385  1.0000
  H   H1156     1.0  0.58088  0.62370  0.30461  1.0000
  Fe  Fe198     1.0  0.36584  0.65008  0.43597  1.0000
  S   S400      1.0  0.35636  0.62264  0.43526  1.0000
  S   S401      1.0  0.38469  0.66323  0.40937  1.0000
  H   H1157     1.0  0.40479  0.59653  0.41069  1.0000
  H   H1158     1.0  0.57575  0.48886  0.24177  1.0000
  C   C1159     1.0  0.63863  0.55804  0.27493  1.0000
  N   N99       1.0  0.43622  0.70435  0.38517  1.0000
  H   H1159     1.0  0.57169  0.65195  0.32863  1.0000
  S   S402      1.0  0.33600  0.66531  0.44666  1.0000
  C   C1160     1.0  0.60097  0.59589  0.08473  1.0000
  Fe  Fe199     1.0  0.64980  0.60592  0.21368  1.0000
  N   N100      1.0  0.63460  0.53224  0.24157  1.0000
  H   H1160     1.0  0.46103  0.71387  0.38849  1.0000
  S   S403      1.0  0.61984  0.66250  0.98602  1.0000
  C   C1161     1.0  0.59042  0.64960  0.34892  1.0000
  H   H1161     1.0  0.62359  0.55713  0.28016  1.0000
  C   C1162     1.0  0.57373  0.55770  0.16139  1.0000
  C   C1163     1.0  0.56011  0.56738  0.17457  1.0000
  C   C1164     1.0  0.56530  0.57996  0.18404  1.0000
  C   C1165     1.0  0.58425  0.58333  0.18057  1.0000
  C   C1166     1.0  0.59818  0.57372  0.16731  1.0000
  C   C1167     1.0  0.59292  0.56085  0.15773  1.0000
  H   H1162     1.0  0.54527  0.56522  0.17750  1.0000
  H   H1163     1.0  0.55440  0.58726  0.19416  1.0000
  H   H1164     1.0  0.61290  0.57617  0.16449  1.0000
  H   H1165     1.0  0.60368  0.55329  0.14777  1.0000
  H   H1166     1.0  0.42586  0.69952  0.41534  1.0000
  C   C1168     1.0  0.65064  0.55224  0.99127  1.0000
  C   C1169     1.0  0.59901  0.57694  0.99744  1.0000
  C   C1170     1.0  0.57005  0.58247  0.10999  1.0000
  H   H1167     1.0  0.57901  0.48973  0.43325  1.0000
  Fe  Fe200     1.0  0.60426  0.48718  0.33849  1.0000
  H   H1168     1.0  0.32984  0.62091  0.37627  1.0000
  C   C1171     1.0  0.63567  0.67031  0.34037  1.0000
  H   H1169     1.0  0.61952  0.71584  0.22572  1.0000
  S   S404      1.0  0.57725  0.49553  0.32571  1.0000
  H   H1170     1.0  0.56122  0.50220  0.36888  1.0000
  H   H1171     1.0  0.65711  0.55923  0.20273  1.0000
  C   C1172     1.0  0.63904  0.69726  0.26744  1.0000
  C   C1173     1.0  0.64158  0.61943  0.26713  1.0000
  H   H1172     1.0  0.56961  0.52843  0.38091  1.0000
  H   H1173     1.0  0.62152  0.55036  0.09411  1.0000
  H   H1174     1.0  0.44863  0.59471  0.46374  1.0000
  C   C1174     1.0  0.60487  0.59624  0.03593  1.0000
  C   C1175     1.0  0.62348  0.58547  0.03289  1.0000
  C   C1176     1.0  0.62696  0.56601  0.04134  1.0000
  C   C1177     1.0  0.61185  0.55716  0.05274  1.0000
  C   C1178     1.0  0.59320  0.56788  0.05568  1.0000
  C   C1179     1.0  0.58973  0.58738  0.04725  1.0000
  H   H1175     1.0  0.63524  0.59217  0.02417  1.0000
  H   H1176     1.0  0.64142  0.55776  0.03895  1.0000
  H   H1177     1.0  0.58142  0.56113  0.06427  1.0000
  H   H1178     1.0  0.57526  0.59564  0.04953  1.0000
  C   C1180     1.0  0.40257  0.70813  0.39936  1.0000
  H   H1179     1.0  0.33073  0.68376  0.32655  1.0000
  H   H1180     1.0  0.62976  0.56629  0.10561  1.0000
  H   H1181     1.0  0.61287  0.60120  0.07456  1.0000
  Fe  Fe201     1.0  0.64017  0.73058  0.29833  1.0000
  H   H1182     1.0  0.39541  0.59598  0.43570  1.0000
  H   H1183     1.0  0.61135  0.64997  0.36589  1.0000
  N   N101      1.0  0.64880  0.71088  0.21126  1.0000
  H   H1184     1.0  0.61056  0.71073  0.27914  1.0000
  H   H1185     1.0  0.59376  0.69102  0.26605  1.0000
  C   C1181     1.0  0.54234  0.60814  0.33085  1.0000
  C   C1182     1.0  0.55283  0.59685  0.31722  1.0000
  C   C1183     1.0  0.55608  0.57668  0.32194  1.0000
  C   C1184     1.0  0.54823  0.56766  0.34011  1.0000
  C   C1185     1.0  0.53713  0.57892  0.35348  1.0000
  C   C1186     1.0  0.53432  0.59908  0.34892  1.0000
  H   H1186     1.0  0.55842  0.60370  0.30294  1.0000
  H   H1187     1.0  0.56421  0.56814  0.31135  1.0000
  H   H1188     1.0  0.53078  0.57204  0.36746  1.0000
  H   H1189     1.0  0.52573  0.60754  0.35935  1.0000
  C   C1187     1.0  0.44979  0.64897  0.40914  1.0000
  C   C1188     1.0  0.43671  0.64638  0.42639  1.0000
  C   C1189     1.0  0.41678  0.65072  0.42651  1.0000
  C   C1190     1.0  0.40973  0.65771  0.40936  1.0000
  C   C1191     1.0  0.42279  0.66047  0.39204  1.0000
  C   C1192     1.0  0.44283  0.65610  0.39192  1.0000
  H   H1190     1.0  0.44203  0.64097  0.43976  1.0000
  H   H1191     1.0  0.40692  0.64886  0.43994  1.0000
  H   H1192     1.0  0.41742  0.66588  0.37870  1.0000
  H   H1193     1.0  0.45285  0.65794  0.37851  1.0000
  C   C1193     1.0  0.57936  0.67347  0.38962  1.0000
  C   C1194     1.0  0.59508  0.66909  0.39923  1.0000
  C   C1195     1.0  0.61028  0.67939  0.39303  1.0000
  C   C1196     1.0  0.60991  0.69422  0.37718  1.0000
  C   C1197     1.0  0.59398  0.69900  0.36772  1.0000
  C   C1198     1.0  0.57867  0.68859  0.37394  1.0000
  H   H1194     1.0  0.59564  0.65746  0.41139  1.0000
  H   H1195     1.0  0.62250  0.67568  0.40044  1.0000
  H   H1196     1.0  0.59346  0.71061  0.35566  1.0000
  H   H1197     1.0  0.56649  0.69205  0.36653  1.0000
  C   C1199     1.0  0.65554  0.72259  0.22187  1.0000
  C   C1200     1.0  0.47390  0.72009  0.32733  1.0000
  H   H1198     1.0  0.60411  0.53366  0.24983  1.0000
  H   H1199     1.0  0.55298  0.60978  0.10040  1.0000
  C   C1201     1.0  0.63387  0.56589  0.98935  1.0000
  H   H1200     1.0  0.64843  0.66173  0.24034  1.0000
  H   H1201     1.0  0.48429  0.70762  0.32368  1.0000
  H   H1202     1.0  0.58662  0.57385  0.00901  1.0000
  H   H1203     1.0  0.59043  0.59317  0.32648  1.0000
  S   S405      1.0  0.65169  0.71210  0.27490  1.0000
  H   H1204     1.0  0.63442  0.62785  0.25506  1.0000
  C   C1202     1.0  0.65568  0.69093  0.18709  1.0000
  H   H1205     1.0  0.63510  0.57949  0.97983  1.0000
  H   H1206     1.0  0.59487  0.57791  0.98331  1.0000
  H   H1207     1.0  0.45649  0.72004  0.30647  1.0000
  C   C1203     1.0  0.41212  0.71409  0.36494  1.0000
  H   H1208     1.0  0.63356  0.57533  0.24781  1.0000
  C   C1204     1.0  0.39759  0.71346  0.38113  1.0000
  H   H1209     1.0  0.39138  0.70725  0.41202  1.0000
  C   C1205     1.0  0.40488  0.60310  0.42321  1.0000
  S   S406      1.0  0.61190  0.64549  0.19238  1.0000
  C   C1206     1.0  0.63898  0.51712  0.25783  1.0000
  H   H1210     1.0  0.58068  0.62178  0.07743  1.0000
  S   S407      1.0  0.61318  0.72698  0.31976  1.0000
  C   C1207     1.0  0.62269  0.56555  0.09365  1.0000
  S   S408      1.0  0.58810  0.49072  0.08819  1.0000
  H   H1211     1.0  0.36410  0.69478  0.37075  1.0000
  Fe  Fe202     1.0  0.32711  0.63710  0.44797  1.0000
  Fe  Fe203     1.0  0.59693  0.50305  0.29782  1.0000
  C   C1208     1.0  0.64010  0.67216  0.24900  1.0000
  H   H1212     1.0  0.60460  0.63539  0.27693  1.0000
  Fe  Fe204     1.0  0.62109  0.64189  0.22093  1.0000
  S   S409      1.0  0.37346  0.64015  0.46535  1.0000
  H   H1213     1.0  0.43686  0.60568  0.39720  1.0000
  C   C1209     1.0  0.61579  0.53917  0.23945  1.0000
  N   N102      1.0  0.62742  0.61209  0.28327  1.0000
  C   C1210     1.0  0.61134  0.55361  0.22400  1.0000
  C   C1211     1.0  0.62629  0.56073  0.21063  1.0000
  C   C1212     1.0  0.63631  0.68903  0.19055  1.0000
  H   H1214     1.0  0.63923  0.50282  0.25434  1.0000
  S   S410      1.0  0.64584  0.53716  0.30997  1.0000
  H   H1215     1.0  0.39869  0.61865  0.42021  1.0000
  H   H1216     1.0  0.59643  0.55944  0.22243  1.0000
  H   H1217     1.0  0.62303  0.57203  0.19871  1.0000
  C   C1213     1.0  0.64934  0.53895  0.22833  1.0000
  H   H1218     1.0  0.63021  0.51765  0.02363  1.0000
  H   H1219     1.0  0.44259  0.71011  0.35463  1.0000
  H   H1220     1.0  0.64403  0.72781  0.23347  1.0000
  C   C1214     1.0  0.56721  0.60085  0.09905  1.0000
  C   C1215     1.0  0.60089  0.59859  0.31448  1.0000
  H   H1221     1.0  0.62198  0.48706  0.40865  1.0000
  C   C1216     1.0  0.61973  0.58845  0.31116  1.0000
  C   C1217     1.0  0.42209  0.70372  0.40114  1.0000
  H   H1222     1.0  0.59047  0.55675  0.11638  1.0000
  H   H1223     1.0  0.65395  0.68212  0.01831  1.0000
  Fe  Fe205     1.0  0.64366  0.63863  0.18081  1.0000
  C   C1218     1.0  0.60902  0.62223  0.28653  1.0000
  H   H1224     1.0  0.58159  0.64157  0.36065  1.0000
  H   H1225     1.0  0.63201  0.56999  0.07974  1.0000
  C   C1219     1.0  0.58274  0.60765  0.08631  1.0000
  N   N103      1.0  0.42452  0.60075  0.42695  1.0000
  C   C1220     1.0  0.42765  0.59795  0.44541  1.0000
  C   C1221     1.0  0.43947  0.60258  0.41184  1.0000
  C   C1222     1.0  0.44624  0.59660  0.44912  1.0000
  C   C1223     1.0  0.45826  0.60106  0.41504  1.0000
  C   C1224     1.0  0.46160  0.59822  0.43380  1.0000
  H   H1226     1.0  0.64763  0.58770  0.29318  1.0000
  H   H1227     1.0  0.41570  0.59699  0.45738  1.0000
  C   C1225     1.0  0.45657  0.70045  0.38727  1.0000
  S   S411      1.0  0.65274  0.63700  0.20899  1.0000
  H   H1228     1.0  0.47001  0.60311  0.40305  1.0000
  H   H1229     1.0  0.40850  0.71850  0.35064  1.0000
  C   C1226     1.0  0.61487  0.54494  0.01129  1.0000
  C   C1227     1.0  0.64424  0.56869  0.25671  1.0000
  Fe  Fe206     1.0  0.36149  0.61398  0.46567  1.0000
  H   H1230     1.0  0.63559  0.68598  0.33566  1.0000
  H   H1231     1.0  0.49590  0.48476  0.09328  1.0000
  H   H1232     1.0  0.55813  0.57700  0.12006  1.0000
  C   C1228     1.0  0.59552  0.61568  0.30219  1.0000
  C   C1229     1.0  0.35129  0.68870  0.37198  1.0000
  S   S412      1.0  0.49615  0.72152  0.35339  1.0000
  N   N104      1.0  0.60352  0.57773  0.09525  1.0000
  S   S413      1.0  0.64416  0.60690  0.18408  1.0000
  C   C1230     1.0  0.58841  0.57105  0.10789  1.0000
  C   C1231     1.0  0.63137  0.53099  0.01360  1.0000
  C   C1232     1.0  0.61886  0.69983  0.27101  1.0000
  N   N105      1.0  0.61793  0.66537  0.33739  1.0000
  C   C1233     1.0  0.60723  0.65450  0.35183  1.0000
  C   C1234     1.0  0.61245  0.67139  0.31981  1.0000
  C   C1235     1.0  0.59581  0.66659  0.31635  1.0000
  C   C1236     1.0  0.58477  0.65559  0.33102  1.0000
  H   H1233     1.0  0.53538  0.73096  0.34199  1.0000
  C   C1237     1.0  0.57488  0.51074  0.40795  1.0000
  H   H1234     1.0  0.59135  0.67156  0.30246  1.0000
  H   H1235     1.0  0.32576  0.66045  0.33929  1.0000
  H   H1236     1.0  0.45918  0.68933  0.40009  1.0000
  H   H1237     1.0  0.62093  0.68006  0.30844  1.0000
  C   C1238     1.0  0.56510  0.49953  0.38302  1.0000
  C   C1239     1.0  0.34524  0.68649  0.35556  1.0000
  Fe  Fe207     1.0  0.63114  0.72660  0.34158  1.0000
  S   S414      1.0  0.56466  0.49504  0.13192  1.0000
  C   C1240     1.0  0.56543  0.51021  0.21885  1.0000
  S   S415      1.0  0.62400  0.49243  0.31021  1.0000
  C   C1241     1.0  0.43145  0.70949  0.36726  1.0000
  H   H1238     1.0  0.35355  0.69102  0.34160  1.0000
  H   H1239     1.0  0.60105  0.54207  0.01961  1.0000
  C   C1242     1.0  0.56350  0.51404  0.19958  1.0000
  H   H1240     1.0  0.63146  0.68050  0.18246  1.0000
  C   C1243     1.0  0.64540  0.55340  0.21276  1.0000
  C   C1244     1.0  0.63297  0.59561  0.29557  1.0000
  S   S416      1.0  0.59799  0.49472  0.26926  1.0000
  H   H1241     1.0  0.34529  0.68466  0.40284  1.0000
  H   H1242     1.0  0.62406  0.57501  0.32049  1.0000
  C   C1245     1.0  0.62976  0.70909  0.21472  1.0000
  C   C1246     1.0  0.57070  0.49964  0.18839  1.0000
  H   H1243     1.0  0.60172  0.59119  0.99856  1.0000
  H   H1244     1.0  0.55988  0.52124  0.22770  1.0000
  C   C1247     1.0  0.34064  0.68309  0.39003  1.0000
  H   H1245     1.0  0.32993  0.62369  0.40986  1.0000
  H   H1246     1.0  0.56898  0.50276  0.17345  1.0000
  Fe  Fe208     1.0  0.59475  0.48404  0.11804  1.0000
  H   H1247     1.0  0.65221  0.60750  0.26140  1.0000
  C   C1248     1.0  0.45822  0.72715  0.31757  1.0000
  S   S417      1.0  0.65348  0.62497  0.99754  1.0000
  H   H1248     1.0  0.64937  0.62886  0.27176  1.0000
  S   S418      1.0  0.53046  0.49783  0.09512  1.0000
  S   S419      1.0  0.65335  0.65812  0.15330  1.0000
  C   C1249     1.0  0.56983  0.51429  0.38980  1.0000
  C   C1250     1.0  0.57490  0.49244  0.41920  1.0000
  C   C1251     1.0  0.62327  0.69805  0.20452  1.0000
  H   H1249     1.0  0.62785  0.51911  0.27079  1.0000
  C   C1252     1.0  0.65243  0.54919  0.28654  1.0000
  H   H1250     1.0  0.63712  0.66701  0.35577  1.0000
  C   C1253     1.0  0.47635  0.72950  0.34141  1.0000
  C   C1254     1.0  0.57438  0.49204  0.22673  1.0000
  H   H1251     1.0  0.65303  0.51748  0.26169  1.0000
  H   H1252     1.0  0.55898  0.72895  0.34726  1.0000
  Fe  Fe209     1.0  0.34284  0.65273  0.47607  1.0000
  Fe  Fe210     1.0  0.40642  0.52575  0.80145  1.0000
  S   S420      1.0  0.37843  0.53983  0.81733  1.0000
  Fe  Fe211     1.0  0.43065  0.54308  0.82214  1.0000
  S   S421      1.0  0.40425  0.55800  0.83906  1.0000
  S   S422      1.0  0.46030  0.54802  0.82417  1.0000
  Fe  Fe212     1.0  0.39320  0.53038  0.84300  1.0000
  S   S423      1.0  0.37852  0.51950  0.87284  1.0000
  Fe  Fe213     1.0  0.39250  0.56578  0.81165  1.0000
  S   S424      1.0  0.38065  0.59656  0.80035  1.0000
  S   S425      1.0  0.42053  0.51454  0.82766  1.0000
  S   S426      1.0  0.41961  0.55255  0.79426  1.0000
  Fe  Fe214     1.0  0.37110  0.55360  0.58558  1.0000
  S   S427      1.0  0.40133  0.55842  0.57393  1.0000
  S   S428      1.0  0.34876  0.55968  0.56639  1.0000
  Fe  Fe215     1.0  0.37798  0.54446  0.62691  1.0000
  S   S429      1.0  0.40868  0.54927  0.61818  1.0000
  S   S430      1.0  0.36713  0.53733  0.65883  1.0000
  Fe  Fe216     1.0  0.39692  0.57489  0.59785  1.0000
  S   S431      1.0  0.40587  0.60379  0.58813  1.0000
  Fe  Fe217     1.0  0.41002  0.53229  0.59519  1.0000
  S   S432      1.0  0.43710  0.51093  0.58781  1.0000
  S   S433      1.0  0.36608  0.57168  0.60849  1.0000
  S   S434      1.0  0.37999  0.52586  0.60504  1.0000
  Fe  Fe218     1.0  0.36428  0.65878  0.67004  1.0000
  S   S435      1.0  0.38750  0.66360  0.64449  1.0000
  H   H1253     1.0  0.43140  0.49806  0.63266  1.0000
  H   H1254     1.0  0.35202  0.67808  0.62116  1.0000
  S   S436      1.0  0.36944  0.65292  0.70039  1.0000
  H   H1255     1.0  0.64371  0.71804  0.77303  1.0000
  Fe  Fe219     1.0  0.62199  0.65159  0.95846  1.0000
  H   H1256     1.0  0.38513  0.67142  0.75995  1.0000
  S   S437      1.0  0.60643  0.66567  0.93320  1.0000
  Fe  Fe220     1.0  0.52311  0.63776  0.89213  1.0000
  S   S438      1.0  0.52853  0.61636  0.87219  1.0000
  S   S439      1.0  0.53708  0.63151  0.91871  1.0000
  Fe  Fe221     1.0  0.49615  0.66662  0.86806  1.0000
  S   S440      1.0  0.49999  0.64813  0.84591  1.0000
  S   S441      1.0  0.47931  0.69672  0.86458  1.0000
  Fe  Fe222     1.0  0.49666  0.62395  0.87096  1.0000
  S   S442      1.0  0.47376  0.60524  0.87447  1.0000
  Fe  Fe223     1.0  0.53121  0.64230  0.84901  1.0000
  S   S443      1.0  0.55525  0.64140  0.82355  1.0000
  S   S444      1.0  0.49090  0.64322  0.89317  1.0000
  S   S445      1.0  0.52769  0.66299  0.86899  1.0000
  H   H1257     1.0  0.40906  0.52450  0.73532  1.0000
  C   C1255     1.0  0.52171  0.69108  0.91042  1.0000
  Fe  Fe224     1.0  0.60801  0.72273  0.82112  1.0000
  S   S446      1.0  0.61654  0.69631  0.80755  1.0000
  S   S447      1.0  0.59366  0.72345  0.85161  1.0000
  H   H1258     1.0  0.35101  0.67705  0.77582  1.0000
  H   H1259     1.0  0.40063  0.69973  0.79889  1.0000
  S   S448      1.0  0.39998  0.71001  0.83501  1.0000
  C   C1256     1.0  0.57129  0.65778  0.81878  1.0000
  C   C1257     1.0  0.56813  0.67311  0.82875  1.0000
  C   C1258     1.0  0.58166  0.68547  0.82498  1.0000
  C   C1259     1.0  0.59854  0.68228  0.81145  1.0000
  C   C1260     1.0  0.60165  0.66701  0.80147  1.0000
  C   C1261     1.0  0.58801  0.65491  0.80502  1.0000
  H   H1260     1.0  0.55541  0.67543  0.83941  1.0000
  H   H1261     1.0  0.57918  0.69723  0.83275  1.0000
  H   H1262     1.0  0.61468  0.66447  0.79100  1.0000
  H   H1263     1.0  0.59057  0.64309  0.79725  1.0000
  C   C1262     1.0  0.42156  0.70608  0.84417  1.0000
  C   C1263     1.0  0.52431  0.72733  0.82605  1.0000
  C   C1264     1.0  0.44760  0.71855  0.85110  1.0000
  C   C1265     1.0  0.45687  0.69988  0.85730  1.0000
  C   C1266     1.0  0.44832  0.68423  0.85724  1.0000
  C   C1267     1.0  0.43048  0.68738  0.85098  1.0000
  C   C1268     1.0  0.35611  0.48717  0.69283  1.0000
  H   H1264     1.0  0.49609  0.69048  0.89976  1.0000
  H   H1265     1.0  0.45528  0.66978  0.86230  1.0000
  H   H1266     1.0  0.42365  0.67537  0.85129  1.0000
  C   C1269     1.0  0.58669  0.65662  0.92954  1.0000
  C   C1270     1.0  0.57858  0.66422  0.91287  1.0000
  C   C1271     1.0  0.56338  0.65673  0.90924  1.0000
  C   C1272     1.0  0.55596  0.64178  0.92245  1.0000
  C   C1273     1.0  0.56388  0.63447  0.93921  1.0000
  C   C1274     1.0  0.57920  0.64176  0.94270  1.0000
  H   H1267     1.0  0.58432  0.67568  0.90255  1.0000
  H   H1268     1.0  0.55757  0.66235  0.89617  1.0000
  H   H1269     1.0  0.55817  0.62301  0.94956  1.0000
  H   H1270     1.0  0.58509  0.63594  0.95569  1.0000
  C   C1275     1.0  0.37964  0.69985  0.72365  1.0000
  H   H1271     1.0  0.40906  0.70322  0.72214  1.0000
  H   H1272     1.0  0.38350  0.68946  0.71410  1.0000
  C   C1276     1.0  0.35725  0.56584  0.54158  1.0000
  C   C1277     1.0  0.37689  0.56175  0.53382  1.0000
  C   C1278     1.0  0.38343  0.56774  0.51418  1.0000
  C   C1279     1.0  0.37038  0.57798  0.50220  1.0000
  C   C1280     1.0  0.35066  0.58160  0.50984  1.0000
  C   C1281     1.0  0.34411  0.57541  0.52944  1.0000
  H   H1273     1.0  0.38704  0.55366  0.54282  1.0000
  H   H1274     1.0  0.39865  0.56456  0.50832  1.0000
  N   N106      1.0  0.33708  0.61319  0.55339  1.0000
  H   H1275     1.0  0.63642  0.70735  0.93386  1.0000
  C   C1282     1.0  0.34021  0.62076  0.53424  1.0000
  C   C1283     1.0  0.36166  0.58419  0.75634  1.0000
  C   C1284     1.0  0.40166  0.61920  0.60484  1.0000
  C   C1285     1.0  0.40894  0.63638  0.59931  1.0000
  C   C1286     1.0  0.40492  0.64964  0.61181  1.0000
  C   C1287     1.0  0.39352  0.64586  0.62990  1.0000
  C   C1288     1.0  0.38658  0.62846  0.63565  1.0000
  C   C1289     1.0  0.39058  0.61514  0.62309  1.0000
  H   H1276     1.0  0.41762  0.63950  0.58524  1.0000
  H   H1277     1.0  0.41047  0.66296  0.60732  1.0000
  H   H1278     1.0  0.37837  0.62511  0.64981  1.0000
  H   H1279     1.0  0.38509  0.60179  0.62748  1.0000
  H   H1280     1.0  0.40463  0.49049  0.59783  1.0000
  Fe  Fe225     1.0  0.65350  0.61764  0.96899  1.0000
  S   S449      1.0  0.37898  0.58617  0.47780  1.0000
  H   H1281     1.0  0.41602  0.53037  0.87507  1.0000
  H   H1282     1.0  0.35735  0.48790  0.80162  1.0000
  C   C1290     1.0  0.37065  0.69774  0.80334  1.0000
  H   H1283     1.0  0.62039  0.67029  0.84723  1.0000
  S   S450      1.0  0.65439  0.64734  0.95295  1.0000
  C   C1291     1.0  0.46400  0.56373  0.83842  1.0000
  C   C1292     1.0  0.48191  0.56987  0.83498  1.0000
  C   C1293     1.0  0.48519  0.58267  0.84574  1.0000
  C   C1294     1.0  0.47069  0.58915  0.86034  1.0000
  C   C1295     1.0  0.45287  0.58286  0.86387  1.0000
  C   C1296     1.0  0.44947  0.57038  0.85289  1.0000
  H   H1284     1.0  0.49329  0.56476  0.82389  1.0000
  H   H1285     1.0  0.49902  0.58728  0.84293  1.0000
  H   H1286     1.0  0.44158  0.58773  0.87516  1.0000
  H   H1287     1.0  0.43567  0.56577  0.85581  1.0000
  C   C1297     1.0  0.37152  0.59873  0.77917  1.0000
  C   C1298     1.0  0.36770  0.61678  0.76760  1.0000
  C   C1299     1.0  0.36112  0.61849  0.75027  1.0000
  C   C1300     1.0  0.35821  0.60215  0.74458  1.0000
  C   C1301     1.0  0.55159  0.73003  0.89677  1.0000
  C   C1302     1.0  0.36837  0.58248  0.77355  1.0000
  H   H1288     1.0  0.36998  0.62940  0.77196  1.0000
  H   H1289     1.0  0.35829  0.63243  0.74137  1.0000
  H   H1290     1.0  0.37098  0.56858  0.78256  1.0000
  C   C1303     1.0  0.36113  0.51429  0.66694  1.0000
  C   C1304     1.0  0.36002  0.50596  0.68642  1.0000
  H   H1291     1.0  0.52734  0.69645  0.83096  1.0000
  H   H1292     1.0  0.38386  0.54917  0.68503  1.0000
  C   C1305     1.0  0.35543  0.71953  0.74333  1.0000
  H   H1293     1.0  0.38573  0.68999  0.67549  1.0000
  H   H1294     1.0  0.43866  0.52282  0.86039  1.0000
  C   C1306     1.0  0.35232  0.60580  0.56282  1.0000
  C   C1307     1.0  0.43011  0.52039  0.87514  1.0000
  C   C1308     1.0  0.36185  0.68190  0.78114  1.0000
  C   C1309     1.0  0.35668  0.65618  0.59300  1.0000
  C   C1310     1.0  0.38899  0.55082  0.69752  1.0000
  H   H1295     1.0  0.34746  0.65432  0.63188  1.0000
  C   C1311     1.0  0.35657  0.69144  0.79683  1.0000
  H   H1296     1.0  0.42190  0.69468  0.76810  1.0000
  H   H1297     1.0  0.42311  0.66921  0.77732  1.0000
  C   C1312     1.0  0.37602  0.49519  0.87860  1.0000
  H   H1298     1.0  0.37497  0.70528  0.65602  1.0000
  C   C1313     1.0  0.41511  0.68198  0.76904  1.0000
  H   H1299     1.0  0.49701  0.69689  0.82022  1.0000
  H   H1300     1.0  0.36241  0.51392  0.69653  1.0000
  H   H1301     1.0  0.62516  0.66884  0.87077  1.0000
  H   H1302     1.0  0.53764  0.72727  0.83081  1.0000
  N   N107      1.0  0.38165  0.71984  0.67590  1.0000
  C   C1314     1.0  0.50737  0.69854  0.89924  1.0000
  C   C1315     1.0  0.38119  0.67883  0.77214  1.0000
  Fe  Fe226     1.0  0.34763  0.63357  0.70541  1.0000
  C   C1316     1.0  0.43022  0.72162  0.84420  1.0000
  H   H1303     1.0  0.35924  0.57154  0.75211  1.0000
  H   H1304     1.0  0.38929  0.61336  0.52580  1.0000
  H   H1305     1.0  0.42261  0.54742  0.74850  1.0000
  H   H1306     1.0  0.46820  0.71339  0.81003  1.0000
  H   H1307     1.0  0.35802  0.51043  0.63919  1.0000
  S   S451      1.0  0.62135  0.62103  0.97258  1.0000
  N   N108      1.0  0.42689  0.50049  0.88133  1.0000
  C   C1317     1.0  0.35604  0.65283  0.57484  1.0000
  H   H1308     1.0  0.43802  0.52413  0.88504  1.0000
  C   C1318     1.0  0.52229  0.72656  0.88670  1.0000
  Fe  Fe227     1.0  0.34362  0.67609  0.70518  1.0000
  C   C1319     1.0  0.36018  0.70604  0.73092  1.0000
  C   C1320     1.0  0.35382  0.48535  0.66043  1.0000
  H   H1309     1.0  0.38603  0.50073  0.75021  1.0000
  H   H1310     1.0  0.49640  0.72237  0.87870  1.0000
  C   C1321     1.0  0.38985  0.48845  0.76097  1.0000
  H   H1311     1.0  0.32888  0.58449  0.70721  1.0000
  C   C1322     1.0  0.40866  0.55718  0.74671  1.0000
  C   C1323     1.0  0.65494  0.71963  0.78019  1.0000
  H   H1312     1.0  0.36907  0.64643  0.56611  1.0000
  C   C1324     1.0  0.64809  0.69737  0.92719  1.0000
  C   C1325     1.0  0.39409  0.70765  0.72826  1.0000
  H   H1313     1.0  0.39335  0.58526  0.72081  1.0000
  H   H1314     1.0  0.63196  0.69392  0.90664  1.0000
  S   S452      1.0  0.33569  0.66505  0.50317  1.0000
  H   H1315     1.0  0.36683  0.70507  0.81563  1.0000
  C   C1326     1.0  0.39461  0.57099  0.71765  1.0000
  C   C1327     1.0  0.33051  0.57370  0.68139  1.0000
  C   C1328     1.0  0.38789  0.56910  0.70150  1.0000
  N   N109      1.0  0.40229  0.55510  0.72946  1.0000
  C   C1329     1.0  0.39663  0.53468  0.70976  1.0000
  C   C1330     1.0  0.50758  0.71642  0.88736  1.0000
  H   H1316     1.0  0.32875  0.56620  0.65464  1.0000
  S   S453      1.0  0.34498  0.63714  0.67449  1.0000
  N   N110      1.0  0.34044  0.66439  0.60407  1.0000
  N   N111      1.0  0.53651  0.71899  0.89745  1.0000
  S   S454      1.0  0.34017  0.68369  0.67414  1.0000
  C   C1331     1.0  0.35902  0.62109  0.52410  1.0000
  C   C1332     1.0  0.38586  0.70381  0.66530  1.0000
  H   H1317     1.0  0.52168  0.67713  0.91968  1.0000
  H   H1318     1.0  0.36144  0.62683  0.50886  1.0000
  S   S455      1.0  0.35111  0.60368  0.72244  1.0000
  H   H1319     1.0  0.39221  0.48788  0.85173  1.0000
  H   H1320     1.0  0.40647  0.49964  0.63121  1.0000
  C   C1333     1.0  0.64553  0.68969  0.91198  1.0000
  H   H1321     1.0  0.45152  0.49765  0.54741  1.0000
  H   H1322     1.0  0.41055  0.57211  0.74631  1.0000
  N   N112      1.0  0.61170  0.64631  0.86779  1.0000
  C   C1334     1.0  0.61060  0.63728  0.88651  1.0000
  C   C1335     1.0  0.60103  0.64208  0.85620  1.0000
  C   C1336     1.0  0.59791  0.62428  0.89426  1.0000
  C   C1337     1.0  0.58789  0.62948  0.86357  1.0000
  C   C1338     1.0  0.58620  0.62070  0.88280  1.0000
  C   C1339     1.0  0.62493  0.66005  0.85996  1.0000
  H   H1323     1.0  0.61913  0.64050  0.89575  1.0000
  H   H1324     1.0  0.59658  0.61766  0.90929  1.0000
  H   H1325     1.0  0.57900  0.62667  0.85444  1.0000
  H   H1326     1.0  0.57568  0.61130  0.88888  1.0000
  H   H1327     1.0  0.38163  0.58177  0.69232  1.0000
  H   H1328     1.0  0.63977  0.65226  0.85556  1.0000
  H   H1329     1.0  0.34162  0.69395  0.80392  1.0000
  H   H1330     1.0  0.41284  0.50377  0.65257  1.0000
  H   H1331     1.0  0.41653  0.67966  0.75408  1.0000
  H   H1332     1.0  0.39776  0.55326  0.75952  1.0000
  S   S456      1.0  0.34122  0.69849  0.72392  1.0000
  H   H1333     1.0  0.37029  0.65226  0.59817  1.0000
  H   H1334     1.0  0.40674  0.50689  0.90633  1.0000
  H   H1335     1.0  0.45404  0.73070  0.85133  1.0000
  C   C1340     1.0  0.38980  0.69465  0.79384  1.0000
  N   N113      1.0  0.44094  0.62224  0.83125  1.0000
  C   C1341     1.0  0.45324  0.61225  0.81808  1.0000
  C   C1342     1.0  0.42168  0.62125  0.83525  1.0000
  C   C1343     1.0  0.44639  0.60067  0.80877  1.0000
  C   C1344     1.0  0.41433  0.60988  0.82610  1.0000
  C   C1345     1.0  0.42682  0.59953  0.81281  1.0000
  C   C1346     1.0  0.44817  0.63462  0.84069  1.0000
  H   H1336     1.0  0.46857  0.61270  0.81516  1.0000
  H   H1337     1.0  0.41194  0.62913  0.84571  1.0000
  H   H1338     1.0  0.45631  0.59206  0.79899  1.0000
  H   H1339     1.0  0.39909  0.60889  0.82936  1.0000
  H   H1340     1.0  0.42135  0.59045  0.80584  1.0000
  H   H1341     1.0  0.44421  0.64991  0.83417  1.0000
  H   H1342     1.0  0.44216  0.63259  0.85632  1.0000
  H   H1343     1.0  0.46414  0.63101  0.83954  1.0000
  H   H1344     1.0  0.39731  0.52037  0.70694  1.0000
  H   H1345     1.0  0.34041  0.58879  0.50060  1.0000
  N   N114      1.0  0.39482  0.68547  0.77835  1.0000
  H   H1346     1.0  0.60248  0.64860  0.84119  1.0000
  C   C1347     1.0  0.40323  0.53710  0.72578  1.0000
  C   C1348     1.0  0.53616  0.70167  0.90949  1.0000
  S   S457      1.0  0.40424  0.51328  0.77576  1.0000
  H   H1347     1.0  0.63871  0.70228  0.85135  1.0000
  H   H1348     1.0  0.38336  0.59980  0.56059  1.0000
  H   H1349     1.0  0.54712  0.69586  0.91843  1.0000
  C   C1349     1.0  0.35783  0.50398  0.65405  1.0000
  H   H1350     1.0  0.34041  0.72443  0.74900  1.0000
  C   C1350     1.0  0.37130  0.60599  0.55313  1.0000
  C   C1351     1.0  0.37463  0.61359  0.53361  1.0000
  H   H1351     1.0  0.35960  0.49789  0.90679  1.0000
  S   S458      1.0  0.40780  0.73169  0.74494  1.0000
  C   C1352     1.0  0.41720  0.49496  0.64100  1.0000
  C   C1353     1.0  0.43625  0.48669  0.87059  1.0000
  C   C1354     1.0  0.51862  0.71006  0.82606  1.0000
  H   H1352     1.0  0.34190  0.56163  0.68459  1.0000
  C   C1355     1.0  0.38928  0.72141  0.74044  1.0000
  C   C1356     1.0  0.50144  0.71041  0.81981  1.0000
  H   H1353     1.0  0.40018  0.70310  0.65572  1.0000
  H   H1354     1.0  0.34986  0.59910  0.57777  1.0000
  H   H1355     1.0  0.32885  0.57820  0.53523  1.0000
  C   C1357     1.0  0.34187  0.66798  0.62288  1.0000
  H   H1356     1.0  0.44601  0.49034  0.85729  1.0000
  C   C1358     1.0  0.41459  0.49584  0.89812  1.0000
  C   C1359     1.0  0.36988  0.72708  0.74819  1.0000
  C   C1360     1.0  0.43568  0.48647  0.59171  1.0000
  C   C1361     1.0  0.65284  0.70124  0.85477  1.0000
  H   H1357     1.0  0.56502  0.72048  0.90063  1.0000
  H   H1358     1.0  0.32821  0.62635  0.52659  1.0000
  C   C1362     1.0  0.36627  0.48815  0.89682  1.0000
  C   C1363     1.0  0.47243  0.72778  0.80681  1.0000
  C   C1364     1.0  0.36292  0.72668  0.68334  1.0000
  H   H1359     1.0  0.41135  0.72112  0.67410  1.0000
  N   N115      1.0  0.49018  0.72751  0.81377  1.0000
  C   C1365     1.0  0.39839  0.49064  0.77595  1.0000
  C   C1366     1.0  0.65571  0.71353  0.86602  1.0000
  S   S459      1.0  0.63638  0.73111  0.87402  1.0000
  H   H1360     1.0  0.35121  0.72043  0.68136  1.0000
  C   C1367     1.0  0.39646  0.72696  0.67943  1.0000
  H   H1361     1.0  0.32766  0.67418  0.63077  1.0000
  C   C1368     1.0  0.33858  0.65789  0.56804  1.0000
  H   H1362     1.0  0.33797  0.65568  0.55382  1.0000
  S   S460      1.0  0.33131  0.62586  0.47840  1.0000
  Fe  Fe228     1.0  0.60832  0.75902  0.31798  1.0000
  S   S461      1.0  0.57814  0.77615  0.31894  1.0000
  S   S462      1.0  0.62410  0.75821  0.34173  1.0000
  Fe  Fe229     1.0  0.53261  0.85532  0.37477  1.0000
  S   S463      1.0  0.51946  0.83776  0.40153  1.0000
  S   S464      1.0  0.56393  0.84627  0.36273  1.0000
  Fe  Fe230     1.0  0.49581  0.88543  0.37355  1.0000
  S   S465      1.0  0.48005  0.87021  0.40083  1.0000
  S   S466      1.0  0.48486  0.91154  0.35287  1.0000
  Fe  Fe231     1.0  0.50847  0.86621  0.41156  1.0000
  S   S467      1.0  0.51439  0.86801  0.44091  1.0000
  Fe  Fe232     1.0  0.49287  0.84338  0.38799  1.0000
  S   S468      1.0  0.48130  0.81879  0.38165  1.0000
  S   S469      1.0  0.52294  0.88344  0.38508  1.0000
  S   S470      1.0  0.50725  0.85903  0.36034  1.0000
  Fe  Fe233     1.0  0.40036  0.77050  0.32598  1.0000
  H   H1363     1.0  0.51882  0.86744  0.30210  1.0000
  Fe  Fe234     1.0  0.36585  0.80294  0.32455  1.0000
  S   S471      1.0  0.35660  0.79615  0.35646  1.0000
  S   S472      1.0  0.34415  0.82675  0.31130  1.0000
  Fe  Fe235     1.0  0.38801  0.79359  0.35794  1.0000
  S   S473      1.0  0.39582  0.80970  0.37832  1.0000
  Fe  Fe236     1.0  0.36287  0.76521  0.35269  1.0000
  S   S474      1.0  0.39689  0.80219  0.32613  1.0000
  S   S475      1.0  0.37030  0.77221  0.32076  1.0000
  S   S476      1.0  0.42484  0.75158  0.31031  1.0000
  S   S477      1.0  0.34816  0.92396  0.20842  1.0000
  C   C1369     1.0  0.35604  0.95404  0.06720  1.0000
  H   H1364     1.0  0.35776  0.96740  0.27900  1.0000
  Fe  Fe237     1.0  0.33901  0.89501  0.21479  1.0000
  S   S478      1.0  0.36046  0.86924  0.22528  1.0000
  S   S479      1.0  0.34513  0.94317  0.15167  1.0000
  C   C1370     1.0  0.54420  0.77290  0.37630  1.0000
  C   C1371     1.0  0.60053  0.87925  0.42648  1.0000
  S   S480      1.0  0.39653  0.95076  0.36293  1.0000
  C   C1372     1.0  0.57887  0.85643  0.43818  1.0000
  C   C1373     1.0  0.52776  0.87278  0.30936  1.0000
  H   H1365     1.0  0.57141  0.84751  0.45021  1.0000
  S   S481      1.0  0.57575  0.91375  0.45503  1.0000
  C   C1374     1.0  0.59176  0.86680  0.44161  1.0000
  H   H1366     1.0  0.56745  0.83803  0.30692  1.0000
  H   H1367     1.0  0.34310  0.84792  0.08167  1.0000
  C   C1375     1.0  0.36843  0.88346  0.27243  1.0000
  C   C1376     1.0  0.52012  0.88934  0.31748  1.0000
  C   C1377     1.0  0.32723  0.97004  0.04556  1.0000
  H   H1368     1.0  0.54333  0.83588  0.30653  1.0000
  H   H1369     1.0  0.52542  0.90864  0.33397  1.0000
  H   H1370     1.0  0.33854  0.86232  0.05895  1.0000
  C   C1378     1.0  0.36273  0.95777  0.14789  1.0000
  C   C1379     1.0  0.38330  0.97357  0.15970  1.0000
  H   H1371     1.0  0.32958  0.88767  0.30808  1.0000
  H   H1372     1.0  0.36284  0.96498  0.11753  1.0000
  H   H1373     1.0  0.43001  0.96008  0.33479  1.0000
  C   C1380     1.0  0.34311  0.90912  0.26270  1.0000
  H   H1374     1.0  0.63893  0.90245  0.44563  1.0000
  H   H1375     1.0  0.32569  0.87043  0.25438  1.0000
  N   N116      1.0  0.54613  0.86330  0.31081  1.0000
  H   H1376     1.0  0.36621  0.95308  0.17743  1.0000
  N   N117      1.0  0.33179  0.90523  0.28028  1.0000
  H   H1377     1.0  0.60322  0.89081  0.39629  1.0000
  C   C1381     1.0  0.34842  0.83677  0.28679  1.0000
  C   C1382     1.0  0.36636  0.83244  0.27517  1.0000
  C   C1383     1.0  0.36968  0.84201  0.25605  1.0000
  C   C1384     1.0  0.35514  0.85599  0.24854  1.0000
  C   C1385     1.0  0.33704  0.85988  0.26006  1.0000
  C   C1386     1.0  0.33368  0.85027  0.27910  1.0000
  H   H1378     1.0  0.37779  0.82200  0.28098  1.0000
  H   H1379     1.0  0.38370  0.83888  0.24716  1.0000
  C   C1387     1.0  0.52442  0.77999  0.38008  1.0000
  H   H1380     1.0  0.34826  0.95117  0.25592  1.0000
  C   C1388     1.0  0.46032  0.92247  0.35620  1.0000
  C   C1389     1.0  0.45415  0.93870  0.34304  1.0000
  C   C1390     1.0  0.43463  0.94759  0.34503  1.0000
  C   C1391     1.0  0.42115  0.94016  0.36015  1.0000
  C   C1392     1.0  0.42731  0.92398  0.37338  1.0000
  C   C1393     1.0  0.44686  0.91516  0.37144  1.0000
  H   H1381     1.0  0.46450  0.94446  0.33123  1.0000
  H   H1382     1.0  0.55891  0.89134  0.33625  1.0000
  H   H1383     1.0  0.41694  0.91834  0.38523  1.0000
  H   H1384     1.0  0.45151  0.90282  0.38180  1.0000
  C   C1394     1.0  0.53089  0.88138  0.44491  1.0000
  H   H1385     1.0  0.45500  0.86855  0.37230  1.0000
  C   C1395     1.0  0.55782  0.90154  0.45204  1.0000
  C   C1396     1.0  0.55252  0.90472  0.43385  1.0000
  C   C1397     1.0  0.53925  0.89468  0.43026  1.0000
  H   H1386     1.0  0.55883  0.91498  0.42239  1.0000
  H   H1387     1.0  0.53535  0.89741  0.41621  1.0000
  C   C1398     1.0  0.45735  0.81683  0.38074  1.0000
  C   C1399     1.0  0.44119  0.82709  0.39105  1.0000
  C   C1400     1.0  0.42248  0.82444  0.39047  1.0000
  C   C1401     1.0  0.41969  0.81180  0.37936  1.0000
  C   C1402     1.0  0.43585  0.80176  0.36885  1.0000
  C   C1403     1.0  0.45456  0.80415  0.36968  1.0000
  H   H1388     1.0  0.44311  0.83668  0.39983  1.0000
  H   H1389     1.0  0.41006  0.83225  0.39866  1.0000
  H   H1390     1.0  0.43393  0.79202  0.36022  1.0000
  H   H1391     1.0  0.46690  0.79613  0.36164  1.0000
  C   C1404     1.0  0.57432  0.79581  0.33083  1.0000
  C   C1405     1.0  0.58990  0.80312  0.33341  1.0000
  C   C1406     1.0  0.58662  0.81858  0.34328  1.0000
  C   C1407     1.0  0.56777  0.82664  0.35081  1.0000
  C   C1408     1.0  0.55217  0.81940  0.34816  1.0000
  C   C1409     1.0  0.55544  0.80419  0.33795  1.0000
  H   H1392     1.0  0.60450  0.79702  0.32758  1.0000
  H   H1393     1.0  0.59874  0.82421  0.34514  1.0000
  H   H1394     1.0  0.53758  0.82547  0.35396  1.0000
  H   H1395     1.0  0.54334  0.79866  0.33590  1.0000
  H   H1396     1.0  0.43665  0.76498  0.34015  1.0000
  H   H1397     1.0  0.41750  0.83449  0.33660  1.0000
  H   H1398     1.0  0.36746  0.94773  0.07548  1.0000
  S   S482      1.0  0.32916  0.89858  0.18652  1.0000
  H   H1399     1.0  0.38902  0.97596  0.17149  1.0000
  H   H1400     1.0  0.55103  0.74736  0.32804  1.0000
  C   C1410     1.0  0.56107  0.84791  0.41661  1.0000
  H   H1401     1.0  0.49649  0.77899  0.37447  1.0000
  H   H1402     1.0  0.44894  0.84164  0.33885  1.0000
  S   S483      1.0  0.33595  0.90285  0.98560  1.0000
  H   H1403     1.0  0.33159  0.94237  0.03719  1.0000
  H   H1404     1.0  0.36364  0.98081  0.40983  1.0000
  C   C1411     1.0  0.55743  0.87012  0.31988  1.0000
  C   C1412     1.0  0.46294  0.74576  0.34592  1.0000
  C   C1413     1.0  0.55016  0.88647  0.32839  1.0000
  C   C1414     1.0  0.44698  0.75248  0.33656  1.0000
  S   S484      1.0  0.63383  0.76299  0.29449  1.0000
  H   H1405     1.0  0.51876  0.79069  0.38932  1.0000
  H   H1406     1.0  0.57198  0.86260  0.32115  1.0000
  C   C1415     1.0  0.32775  0.73631  0.35395  1.0000
  H   H1407     1.0  0.64452  0.89033  0.41497  1.0000
  H   H1408     1.0  0.56822  0.83787  0.40648  1.0000
  N   N118      1.0  0.57501  0.85830  0.42010  1.0000
  H   H1409     1.0  0.32686  0.87094  0.08051  1.0000
  C   C1416     1.0  0.58382  0.87021  0.40509  1.0000
  C   C1417     1.0  0.53138  0.89610  0.32717  1.0000
  C   C1418     1.0  0.33186  0.85767  0.07412  1.0000
  H   H1410     1.0  0.37563  0.96208  0.01333  1.0000
  H   H1411     1.0  0.37469  0.97941  0.38536  1.0000
  C   C1419     1.0  0.35694  0.87979  0.29045  1.0000
  C   C1420     1.0  0.53601  0.87833  0.46318  1.0000
  H   H1412     1.0  0.50949  0.75538  0.35267  1.0000
  C   C1421     1.0  0.65333  0.81006  0.36879  1.0000
  C   C1422     1.0  0.55377  0.84600  0.30216  1.0000
  C   C1423     1.0  0.65665  0.89054  0.42147  1.0000
  H   H1413     1.0  0.64442  0.83837  0.35326  1.0000
  S   S485      1.0  0.34280  0.74356  0.36668  1.0000
  H   H1414     1.0  0.38237  0.87441  0.26904  1.0000
  C   C1424     1.0  0.54639  0.73940  0.34264  1.0000
  S   S486      1.0  0.35972  0.92727  0.00285  1.0000
  C   C1425     1.0  0.44468  0.74329  0.32224  1.0000
  H   H1415     1.0  0.36867  0.97957  0.07996  1.0000
  C   C1426     1.0  0.33589  0.95085  0.04573  1.0000
  H   H1416     1.0  0.36191  0.86786  0.30118  1.0000
  N   N119      1.0  0.43642  0.86406  0.35513  1.0000
  C   C1427     1.0  0.41974  0.87454  0.36337  1.0000
  C   C1428     1.0  0.43575  0.85021  0.34511  1.0000
  C   C1429     1.0  0.40175  0.87072  0.36237  1.0000
  C   C1430     1.0  0.41801  0.84616  0.34367  1.0000
  C   C1431     1.0  0.40094  0.85628  0.35263  1.0000
  C   C1432     1.0  0.45505  0.86785  0.35711  1.0000
  H   H1417     1.0  0.42029  0.88565  0.37112  1.0000
  H   H1418     1.0  0.38856  0.87863  0.36945  1.0000
  H   H1419     1.0  0.38717  0.85250  0.35247  1.0000
  H   H1420     1.0  0.46712  0.85615  0.35315  1.0000
  Fe  Fe238     1.0  0.33177  0.91619  0.01161  1.0000
  H   H1421     1.0  0.34290  0.74597  0.32574  1.0000
  H   H1422     1.0  0.56661  0.75436  0.36070  1.0000
  Fe  Fe239     1.0  0.34210  0.95402  0.98900  1.0000
  H   H1423     1.0  0.55415  0.77816  0.38242  1.0000
  H   H1424     1.0  0.59408  0.86607  0.45609  1.0000
  H   H1425     1.0  0.54936  0.85830  0.41033  1.0000
  C   C1433     1.0  0.59667  0.88091  0.40805  1.0000
  Fe  Fe240     1.0  0.65028  0.76015  0.31865  1.0000
  C   C1434     1.0  0.33855  0.89090  0.29417  1.0000
  H   H1426     1.0  0.46480  0.75312  0.35678  1.0000
  H   H1427     1.0  0.35739  0.92790  0.05651  1.0000
  C   C1435     1.0  0.51933  0.76006  0.35942  1.0000
  S   S487      1.0  0.39332  0.76178  0.35790  1.0000
  H   H1428     1.0  0.55662  0.84991  0.28627  1.0000
  H   H1429     1.0  0.60975  0.88810  0.42921  1.0000
  C   C1436     1.0  0.65283  0.82986  0.36389  1.0000
  H   H1430     1.0  0.64549  0.80304  0.36185  1.0000
  H   H1431     1.0  0.55398  0.83969  0.43007  1.0000
  H   H1432     1.0  0.43745  0.98123  0.39104  1.0000
  C   C1437     1.0  0.35040  0.94275  0.05659  1.0000
  H   H1433     1.0  0.50540  0.89669  0.31672  1.0000
  H   H1434     1.0  0.37010  0.90075  0.24419  1.0000
  H   H1435     1.0  0.45791  0.88171  0.34799  1.0000
  C   C1438     1.0  0.33781  0.96180  0.26289  1.0000
  C   C1439     1.0  0.54946  0.88826  0.46673  1.0000
  H   H1436     1.0  0.58055  0.87178  0.39082  1.0000
  C   C1440     1.0  0.65349  0.89738  0.43882  1.0000
  H   H1437     1.0  0.39427  0.97092  0.03437  1.0000
  C   C1441     1.0  0.37040  0.96062  0.16308  1.0000
  C   C1442     1.0  0.36843  0.96747  0.12932  1.0000
  C   C1443     1.0  0.33091  0.73931  0.33388  1.0000
  C   C1444     1.0  0.34323  0.97106  0.27593  1.0000
  C   C1445     1.0  0.51188  0.77351  0.37165  1.0000
  Fe  Fe241     1.0  0.38757  0.97865  0.34340  1.0000
  Fe  Fe242     1.0  0.33526  0.92854  0.18182  1.0000
  C   C1446     1.0  0.55116  0.75939  0.36405  1.0000
  N   N120      1.0  0.53872  0.75300  0.35598  1.0000
  C   C1447     1.0  0.37197  0.97625  0.01713  1.0000
  H   H1438     1.0  0.33778  0.92052  0.25176  1.0000
  C   C1448     1.0  0.36152  0.89823  0.25846  1.0000
  S   S488      1.0  0.61108  0.93603  0.47255  1.0000
  H   H1439     1.0  0.32764  0.77947  0.34311  1.0000
  H   H1440     1.0  0.52957  0.86817  0.47467  1.0000
  H   H1441     1.0  0.40814  0.97323  0.38446  1.0000
  C   C1449     1.0  0.38255  0.98133  0.02908  1.0000
  C   C1450     1.0  0.38134  0.98033  0.12593  1.0000
  H   H1442     1.0  0.64845  0.97591  0.47367  1.0000
  H   H1443     1.0  0.32982  0.79632  0.30391  1.0000
  N   N121      1.0  0.34756  0.97291  0.06683  1.0000
  C   C1451     1.0  0.33323  0.98092  0.05630  1.0000
  H   H1444     1.0  0.36307  0.88452  0.93958  1.0000
  Fe  Fe243     1.0  0.63391  0.91164  0.48198  1.0000
  H   H1445     1.0  0.56137  0.85794  0.78484  1.0000
  C   C1452     1.0  0.33479  0.89042  0.89280  1.0000
  H   H1446     1.0  0.47282  0.96760  0.82772  1.0000
  S   S489      1.0  0.38811  0.89627  0.96290  1.0000
  H   H1447     1.0  0.36593  0.73771  0.75749  1.0000
  Fe  Fe244     1.0  0.40363  0.74762  0.77006  1.0000
  S   S490      1.0  0.37725  0.74668  0.79288  1.0000
  H   H1448     1.0  0.48679  0.75808  0.80870  1.0000
  Fe  Fe245     1.0  0.42312  0.76757  0.79350  1.0000
  S   S491      1.0  0.39803  0.76711  0.81779  1.0000
  S   S492      1.0  0.44952  0.77658  0.79933  1.0000
  Fe  Fe246     1.0  0.61645  0.74003  0.85236  1.0000
  C   C1453     1.0  0.62128  0.84103  0.76531  1.0000
  Fe  Fe247     1.0  0.38001  0.77670  0.79462  1.0000
  S   S493      1.0  0.35721  0.80352  0.79344  1.0000
  C   C1454     1.0  0.35860  0.74126  0.69438  1.0000
  S   S494      1.0  0.40519  0.77849  0.77019  1.0000
  Fe  Fe248     1.0  0.45900  0.89130  0.86518  1.0000
  S   S495      1.0  0.46643  0.89950  0.83318  1.0000
  S   S496      1.0  0.43426  0.91268  0.87788  1.0000
  Fe  Fe249     1.0  0.49195  0.85719  0.86509  1.0000
  S   S497      1.0  0.50125  0.86288  0.83312  1.0000
  S   S498      1.0  0.51077  0.83418  0.88229  1.0000
  Fe  Fe250     1.0  0.49738  0.89360  0.83717  1.0000
  S   S499      1.0  0.51878  0.91351  0.82200  1.0000
  Fe  Fe251     1.0  0.46940  0.86798  0.83260  1.0000
  S   S500      1.0  0.45372  0.86020  0.81182  1.0000
  S   S501      1.0  0.48976  0.88759  0.86914  1.0000
  S   S502      1.0  0.46028  0.86011  0.86452  1.0000
  H   H1449     1.0  0.63712  0.94801  0.56628  1.0000
  H   H1450     1.0  0.58071  0.95670  0.57658  1.0000
  S   S503      1.0  0.54536  0.75991  0.84509  1.0000
  Fe  Fe252     1.0  0.61300  0.76493  0.81310  1.0000
  S   S504      1.0  0.62731  0.78448  0.78811  1.0000
  S   S505      1.0  0.59922  0.76933  0.84310  1.0000
  H   H1451     1.0  0.46026  0.73754  0.81395  1.0000
  C   C1455     1.0  0.60405  0.90609  0.59902  1.0000
  N   N122      1.0  0.64685  0.90585  0.64639  1.0000
  H   H1452     1.0  0.34678  0.78129  0.83145  1.0000
  H   H1453     1.0  0.34198  0.90479  0.86369  1.0000
  C   C1456     1.0  0.33730  0.88872  0.91176  1.0000
  H   H1454     1.0  0.52224  0.74053  0.87754  1.0000
  Fe  Fe253     1.0  0.57778  0.75230  0.83950  1.0000
  H   H1455     1.0  0.49865  0.95904  0.82277  1.0000
  H   H1456     1.0  0.48463  0.94159  0.90643  1.0000
  Fe  Fe254     1.0  0.61085  0.91088  0.70767  1.0000
  S   S506      1.0  0.59741  0.91526  0.68146  1.0000
  Fe  Fe255     1.0  0.61592  0.89158  0.74853  1.0000
  S   S507      1.0  0.60286  0.87518  0.77698  1.0000
  S   S508      1.0  0.59808  0.91924  0.73639  1.0000
  S   S509      1.0  0.62618  0.88203  0.71987  1.0000
  H   H1457     1.0  0.33606  0.83961  0.80205  1.0000
  S   S510      1.0  0.34634  0.94421  0.96020  1.0000
  Fe  Fe256     1.0  0.60264  0.93885  0.50379  1.0000
  S   S511      1.0  0.58131  0.91874  0.50973  1.0000
  S   S512      1.0  0.59611  0.96642  0.51615  1.0000
  C   C1457     1.0  0.35924  0.91066  0.90193  1.0000
  H   H1458     1.0  0.36896  0.91852  0.90535  1.0000
  Fe  Fe257     1.0  0.60682  0.89622  0.51678  1.0000
  S   S513      1.0  0.60434  0.87454  0.54401  1.0000
  S   S514      1.0  0.62728  0.91659  0.51227  1.0000
  C   C1458     1.0  0.62352  0.86815  0.55700  1.0000
  H   H1459     1.0  0.33786  0.89510  0.94612  1.0000
  H   H1460     1.0  0.35583  0.91001  0.93867  1.0000
  H   H1461     1.0  0.50554  0.96340  0.88451  1.0000
  C   C1459     1.0  0.62342  0.85222  0.57177  1.0000
  H   H1462     1.0  0.58650  0.91923  0.86172  1.0000
  H   H1463     1.0  0.64439  0.89540  0.67647  1.0000
  H   H1464     1.0  0.61153  0.84439  0.57523  1.0000
  C   C1460     1.0  0.60528  0.96952  0.53599  1.0000
  Fe  Fe258     1.0  0.62484  0.93159  0.73306  1.0000
  C   C1461     1.0  0.62630  0.95883  0.55994  1.0000
  C   C1462     1.0  0.61927  0.95560  0.54434  1.0000
  C   C1463     1.0  0.51275  0.74470  0.81986  1.0000
  H   H1465     1.0  0.62483  0.94242  0.53875  1.0000
  C   C1464     1.0  0.58706  0.93950  0.67583  1.0000
  C   C1465     1.0  0.57577  0.94928  0.69022  1.0000
  S   S515      1.0  0.64210  0.90458  0.74692  1.0000
  C   C1466     1.0  0.34288  0.80982  0.81481  1.0000
  C   C1467     1.0  0.35159  0.89700  0.93608  1.0000
  C   C1468     1.0  0.59059  0.94928  0.65692  1.0000
  H   H1466     1.0  0.57278  0.94168  0.70479  1.0000
  Fe  Fe259     1.0  0.65079  0.89749  0.71709  1.0000
  C   C1469     1.0  0.58355  0.96903  0.65258  1.0000
  H   H1467     1.0  0.59909  0.94172  0.64573  1.0000
  H   H1468     1.0  0.64579  0.93764  0.76454  1.0000
  C   C1470     1.0  0.64209  0.96972  0.48845  1.0000
  H   H1469     1.0  0.58671  0.97664  0.63805  1.0000
  C   C1471     1.0  0.49566  0.74453  0.81365  1.0000
  H   H1470     1.0  0.57015  0.80701  0.80723  1.0000
  H   H1471     1.0  0.55410  0.81780  0.83700  1.0000
  C   C1472     1.0  0.62068  0.80965  0.78569  1.0000
  C   C1473     1.0  0.61001  0.81859  0.80095  1.0000
  C   C1474     1.0  0.60497  0.83876  0.79832  1.0000
  C   C1475     1.0  0.61038  0.85002  0.78040  1.0000
  C   C1476     1.0  0.62646  0.82094  0.76797  1.0000
  H   H1472     1.0  0.60582  0.80999  0.81478  1.0000
  H   H1473     1.0  0.59693  0.84564  0.81020  1.0000
  C   C1477     1.0  0.52973  0.92530  0.83484  1.0000
  C   C1478     1.0  0.52901  0.91992  0.85465  1.0000
  C   C1479     1.0  0.53712  0.93009  0.86457  1.0000
  C   C1480     1.0  0.54582  0.94590  0.85488  1.0000
  C   C1481     1.0  0.54693  0.95106  0.83498  1.0000
  C   C1482     1.0  0.53906  0.94069  0.82500  1.0000
  H   H1474     1.0  0.52212  0.90800  0.86243  1.0000
  H   H1475     1.0  0.53630  0.92590  0.87994  1.0000
  H   H1476     1.0  0.55363  0.96317  0.82732  1.0000
  H   H1477     1.0  0.53981  0.94489  0.80964  1.0000
  C   C1483     1.0  0.52043  0.81377  0.87161  1.0000
  C   C1484     1.0  0.53739  0.80189  0.87655  1.0000
  C   C1485     1.0  0.54547  0.78563  0.86798  1.0000
  C   C1486     1.0  0.53625  0.78091  0.85491  1.0000
  C   C1487     1.0  0.51924  0.79272  0.85003  1.0000
  C   C1488     1.0  0.51152  0.80934  0.85812  1.0000
  H   H1478     1.0  0.54432  0.80533  0.88696  1.0000
  H   H1479     1.0  0.55857  0.77653  0.87185  1.0000
  H   H1480     1.0  0.51205  0.78911  0.83994  1.0000
  H   H1481     1.0  0.49842  0.81847  0.85427  1.0000
  C   C1489     1.0  0.44973  0.79981  0.80359  1.0000
  C   C1490     1.0  0.43830  0.81619  0.79505  1.0000
  C   C1491     1.0  0.43981  0.83454  0.79765  1.0000
  C   C1492     1.0  0.45246  0.83672  0.80909  1.0000
  C   C1493     1.0  0.46354  0.82030  0.81806  1.0000
  C   C1494     1.0  0.46232  0.80196  0.81513  1.0000
  H   H1482     1.0  0.42871  0.81477  0.78597  1.0000
  H   H1483     1.0  0.43124  0.84715  0.79060  1.0000
  H   H1484     1.0  0.47335  0.82177  0.82688  1.0000
  H   H1485     1.0  0.47126  0.78941  0.82179  1.0000
  H   H1486     1.0  0.54423  0.87809  0.83862  1.0000
  H   H1487     1.0  0.58766  0.97724  0.71705  1.0000
  H   H1488     1.0  0.36466  0.92242  0.87169  1.0000
  H   H1489     1.0  0.65294  0.94245  0.79511  1.0000
  C   C1495     1.0  0.56792  0.96881  0.68568  1.0000
  N   N123      1.0  0.34916  0.89903  0.91614  1.0000
  C   C1496     1.0  0.40098  0.90122  0.93934  1.0000
  C   C1497     1.0  0.41542  0.88680  0.93220  1.0000
  C   C1498     1.0  0.42581  0.89011  0.91339  1.0000
  C   C1499     1.0  0.42177  0.90790  0.90162  1.0000
  C   C1500     1.0  0.40734  0.92234  0.90874  1.0000
  C   C1501     1.0  0.39696  0.91903  0.92756  1.0000
  H   H1490     1.0  0.41863  0.87301  0.94130  1.0000
  H   H1491     1.0  0.43694  0.87892  0.90806  1.0000
  H   H1492     1.0  0.40428  0.93620  0.89972  1.0000
  H   H1493     1.0  0.38605  0.93031  0.93301  1.0000
  C   C1502     1.0  0.63333  0.96946  0.79566  1.0000
  H   H1494     1.0  0.57334  0.82379  0.78539  1.0000
  H   H1495     1.0  0.65440  0.94606  0.60233  1.0000
  S   S516      1.0  0.61559  0.88900  0.48709  1.0000
  C   C1503     1.0  0.58697  0.94237  0.58297  1.0000
  C   C1504     1.0  0.64267  0.95308  0.78778  1.0000
  Fe  Fe260     1.0  0.36219  0.91669  0.97513  1.0000
  C   C1505     1.0  0.63896  0.84589  0.58169  1.0000
  S   S517      1.0  0.63603  0.92578  0.70317  1.0000
  H   H1496     1.0  0.59617  0.93908  0.77817  1.0000
  C   C1506     1.0  0.55404  0.83246  0.82948  1.0000
  C   C1507     1.0  0.60319  0.92178  0.60777  1.0000
  H   H1497     1.0  0.63902  0.83318  0.59271  1.0000
  H   H1498     1.0  0.55213  0.88485  0.80299  1.0000
  N   N124      1.0  0.40952  0.83869  0.83995  1.0000
  C   C1508     1.0  0.39613  0.84786  0.82864  1.0000
  C   C1509     1.0  0.41421  0.81907  0.84321  1.0000
  C   C1510     1.0  0.38712  0.83732  0.82013  1.0000
  C   C1511     1.0  0.40553  0.80811  0.83490  1.0000
  C   C1512     1.0  0.39189  0.81733  0.82330  1.0000
  C   C1513     1.0  0.41830  0.84981  0.84939  1.0000
  H   H1499     1.0  0.39252  0.86341  0.82596  1.0000
  H   H1500     1.0  0.42501  0.81180  0.85195  1.0000
  H   H1501     1.0  0.37662  0.84453  0.81102  1.0000
  H   H1502     1.0  0.40971  0.79261  0.83717  1.0000
  H   H1503     1.0  0.38514  0.80906  0.81659  1.0000
  H   H1504     1.0  0.43353  0.84297  0.85029  1.0000
  H   H1505     1.0  0.41886  0.86453  0.84102  1.0000
  H   H1506     1.0  0.41009  0.85080  0.86406  1.0000
  N   N125      1.0  0.59422  0.92284  0.80668  1.0000
  C   C1514     1.0  0.58858  0.90680  0.81843  1.0000
  C   C1515     1.0  0.59768  0.93729  0.81429  1.0000
  C   C1516     1.0  0.58563  0.90526  0.83840  1.0000
  C   C1517     1.0  0.59522  0.93606  0.83416  1.0000
  C   C1518     1.0  0.58899  0.92001  0.84627  1.0000
  C   C1519     1.0  0.59766  0.92395  0.78583  1.0000
  H   H1507     1.0  0.58635  0.89513  0.81233  1.0000
  H   H1508     1.0  0.60227  0.94993  0.80502  1.0000
  H   H1509     1.0  0.58076  0.89275  0.84772  1.0000
  H   H1510     1.0  0.42338  0.73609  0.83916  1.0000
  C   C1520     1.0  0.37359  0.74865  0.69800  1.0000
  H   H1511     1.0  0.61245  0.91630  0.78103  1.0000
  H   H1512     1.0  0.57138  0.94386  0.55332  1.0000
  H   H1513     1.0  0.58714  0.91714  0.78153  1.0000
  S   S518      1.0  0.63182  0.73726  0.82271  1.0000
  H   H1514     1.0  0.59699  0.89672  0.57552  1.0000
  H   H1515     1.0  0.61072  0.89179  0.60507  1.0000
  C   C1521     1.0  0.62538  0.96411  0.76101  1.0000
  H   H1516     1.0  0.62568  0.84952  0.75152  1.0000
  N   N126      1.0  0.55853  0.83629  0.80989  1.0000
  C   C1522     1.0  0.47287  0.93603  0.88355  1.0000
  C   C1523     1.0  0.59625  0.90895  0.58230  1.0000
  C   C1524     1.0  0.54855  0.86634  0.83057  1.0000
  S   S519      1.0  0.60187  0.97881  0.86528  1.0000
  C   C1525     1.0  0.55288  0.87013  0.81058  1.0000
  C   C1526     1.0  0.54915  0.84739  0.84012  1.0000
  H   H1517     1.0  0.63230  0.92836  0.66186  1.0000
  H   H1518     1.0  0.54538  0.84430  0.85566  1.0000
  C   C1527     1.0  0.55785  0.85485  0.80039  1.0000
  H   H1519     1.0  0.54961  0.81789  0.79558  1.0000
  H   H1520     1.0  0.59271  0.92800  0.54455  1.0000
  H   H1521     1.0  0.55879  0.97620  0.69674  1.0000
  S   S520      1.0  0.62059  0.96167  0.73900  1.0000
  H   H1522     1.0  0.60909  0.91978  0.62079  1.0000
  C   C1528     1.0  0.63852  0.95028  0.77057  1.0000
  N   N127      1.0  0.48483  0.95159  0.85180  1.0000
  H   H1523     1.0  0.63795  0.84988  0.51548  1.0000
  C   C1529     1.0  0.48464  0.95550  0.83113  1.0000
  C   C1530     1.0  0.64367  0.89064  0.66306  1.0000
  H   H1524     1.0  0.50524  0.96978  0.84971  1.0000
  N   N128      1.0  0.58777  0.92689  0.57456  1.0000
  C   C1531     1.0  0.63892  0.87827  0.55281  1.0000
  H   H1525     1.0  0.34377  0.74608  0.70084  1.0000
  C   C1532     1.0  0.35694  0.91285  0.88284  1.0000
  H   H1526     1.0  0.46405  0.93310  0.85797  1.0000
  H   H1527     1.0  0.63485  0.81413  0.75616  1.0000
  H   H1528     1.0  0.37051  0.75939  0.70720  1.0000
  C   C1533     1.0  0.34445  0.90280  0.87832  1.0000
  H   H1529     1.0  0.64743  0.97907  0.52069  1.0000
  C   C1534     1.0  0.49613  0.95690  0.87887  1.0000
  C   C1535     1.0  0.47315  0.93979  0.86375  1.0000
  C   C1536     1.0  0.58042  0.92945  0.55664  1.0000
  H   H1530     1.0  0.59786  0.94760  0.84017  1.0000
  C   C1537     1.0  0.59468  0.94007  0.59967  1.0000
  C   C1538     1.0  0.65464  0.85558  0.57705  1.0000
  H   H1531     1.0  0.64941  0.82562  0.54240  1.0000
  H   H1532     1.0  0.40442  0.74673  0.69381  1.0000
  H   H1533     1.0  0.46367  0.92649  0.89291  1.0000
  C   C1539     1.0  0.56307  0.82048  0.79897  1.0000
  C   C1540     1.0  0.49597  0.96039  0.85913  1.0000
  C   C1541     1.0  0.39266  0.74152  0.69046  1.0000
  C   C1542     1.0  0.61920  0.97586  0.56753  1.0000
  H   H1534     1.0  0.48254  0.94259  0.82630  1.0000
  H   H1535     1.0  0.63915  0.89065  0.54169  1.0000
  H   H1536     1.0  0.59427  0.95247  0.60612  1.0000
  C   C1543     1.0  0.48454  0.94457  0.89112  1.0000
  S   S521      1.0  0.55450  0.95894  0.86841  1.0000
  S   S522      1.0  0.59037  0.75007  0.80878  1.0000
  C   C1544     1.0  0.61632  0.98061  0.76873  1.0000
  H   H1537     1.0  0.57150  0.91842  0.55740  1.0000
  C   C1545     1.0  0.57225  0.97882  0.66698  1.0000
  C   C1546     1.0  0.33341  0.82887  0.81473  1.0000
  C   C1547     1.0  0.33951  0.79604  0.83128  1.0000
  S   S523      1.0  0.63821  0.97271  0.81736  1.0000
  Fe  Fe261     1.0  0.59186  0.91354  0.47925  1.0000
  H   H1538     1.0  0.55556  0.73812  0.88206  1.0000
  H   H1539     1.0  0.51706  0.75821  0.81986  1.0000
  C   C1548     1.0  0.64228  0.93938  0.63231  1.0000
  N   N129      1.0  0.65737  0.96071  0.49971  1.0000
  S   S524      1.0  0.42461  0.73689  0.79056  1.0000
  C   C1549     1.0  0.63982  0.92465  0.64814  1.0000
  Fe  Fe262     1.0  0.39837  0.73731  0.81334  1.0000
  C   C1550     1.0  0.65194  0.84952  0.51907  1.0000
  H   H1540     1.0  0.63178  0.98139  0.49497  1.0000
  H   H1541     1.0  0.65002  0.75041  0.77289  1.0000
  H   H1542     1.0  0.62013  0.97171  0.69755  1.0000
  H   H1543     1.0  0.54637  0.74045  0.90682  1.0000
  H   H1544     1.0  0.62919  0.88688  0.66452  1.0000
  S   S525      1.0  0.62793  0.97925  0.58748  1.0000
  H   H1545     1.0  0.55333  0.88565  0.48081  1.0000
  H   H1546     1.0  0.63356  0.95890  0.48768  1.0000
  C   C1551     1.0  0.65604  0.90116  0.62898  1.0000
  H   H1547     1.0  0.65490  0.87755  0.66188  1.0000
  C   C1552     1.0  0.65446  0.87202  0.56284  1.0000
  H   H1548     1.0  0.63675  0.95430  0.63373  1.0000
  Fe  Fe263     1.0  0.57298  0.98225  0.85640  1.0000
  C   C1553     1.0  0.65202  0.93475  0.61463  1.0000
  C   C1554     1.0  0.32599  0.80120  0.84729  1.0000
  H   H1549     1.0  0.32933  0.87946  0.92302  1.0000
  H   H1550     1.0  0.47422  0.73309  0.79109  1.0000
  H   H1551     1.0  0.32481  0.88279  0.88944  1.0000
  Fe  Fe264     1.0  0.73907  0.12984  0.05494  1.0000
  S   S526      1.0  0.72164  0.15924  0.04922  1.0000
  S   S527      1.0  0.74363  0.10640  0.03704  1.0000
  Fe  Fe265     1.0  0.75601  0.13981  0.08692  1.0000
  S   S528      1.0  0.73979  0.17022  0.08333  1.0000
  S   S529      1.0  0.77804  0.12578  0.10654  1.0000
  Fe  Fe266     1.0  0.71472  0.15724  0.08127  1.0000
  S   S530      1.0  0.68347  0.16645  0.09439  1.0000
  Fe  Fe267     1.0  0.74801  0.16959  0.05174  1.0000
  S   S531      1.0  0.75599  0.19485  0.02990  1.0000
  S   S532      1.0  0.73028  0.12659  0.08706  1.0000
  S   S533      1.0  0.76622  0.14038  0.05522  1.0000
  H   H1552     1.0  0.97042  0.19009  0.33184  1.0000
  H   H1553     1.0  0.85515  0.98998  0.41408  1.0000
  H   H1554     1.0  0.73802  0.14251  0.99907  1.0000
  H   H1555     1.0  0.88209  0.00791  0.28508  1.0000
  C   C1555     1.0  0.89897  0.09875  0.98248  1.0000
  S   S534      1.0  0.90644  0.19882  0.34353  1.0000
  Fe  Fe268     1.0  0.93349  0.03528  0.33307  1.0000
  S   S535      1.0  0.90512  0.04992  0.34739  1.0000
  S   S536      1.0  0.96213  0.04426  0.33290  1.0000
  Fe  Fe269     1.0  0.91330  0.01174  0.31433  1.0000
  S   S537      1.0  0.88369  0.02562  0.32685  1.0000
  Fe  Fe270     1.0  0.89585  0.05289  0.31914  1.0000
  S   S538      1.0  0.88311  0.08259  0.30595  1.0000
  Fe  Fe271     1.0  0.89605  0.02096  0.35384  1.0000
  S   S539      1.0  0.87733  0.01073  0.38190  1.0000
  S   S540      1.0  0.92456  0.03956  0.30424  1.0000
  S   S541      1.0  0.92528  0.00575  0.34181  1.0000
  Fe  Fe272     1.0  0.84315  0.11846  0.21527  1.0000
  S   S542      1.0  0.86945  0.13204  0.20964  1.0000
  S   S543      1.0  0.84216  0.09006  0.23532  1.0000
  Fe  Fe273     1.0  0.82227  0.15044  0.18756  1.0000
  S   S544      1.0  0.84678  0.16697  0.18095  1.0000
  S   S545      1.0  0.79660  0.16239  0.17209  1.0000
  Fe  Fe274     1.0  0.86525  0.13782  0.17898  1.0000
  S   S546      1.0  0.88671  0.12981  0.15327  1.0000
  Fe  Fe275     1.0  0.84839  0.15967  0.21268  1.0000
  S   S547      1.0  0.84705  0.17697  0.23643  1.0000
  S   S548      1.0  0.84069  0.12189  0.18441  1.0000
  S   S549      1.0  0.82202  0.14553  0.21936  1.0000
  Fe  Fe276     1.0  0.84610  0.02553  0.11916  1.0000
  S   S550      1.0  0.87311  0.00774  0.12846  1.0000
  Fe  Fe277     1.0  0.86723  0.05520  0.09108  1.0000
  S   S551      1.0  0.89630  0.04000  0.09796  1.0000
  S   S552      1.0  0.86123  0.08447  0.07264  1.0000
  Fe  Fe278     1.0  0.88594  0.01289  0.09721  1.0000
  Fe  Fe279     1.0  0.88085  0.03622  0.12859  1.0000
  S   S553      1.0  0.88951  0.04135  0.15485  1.0000
  S   S554      1.0  0.85805  0.02858  0.08779  1.0000
  S   S555      1.0  0.85272  0.05350  0.12183  1.0000
  C   C1556     1.0  0.87834  0.19651  0.22758  1.0000
  H   H1556     1.0  0.81045  0.10568  0.00707  1.0000
  C   C1557     1.0  0.97177  0.08991  0.36431  1.0000
  H   H1557     1.0  0.93731  0.06415  0.36310  1.0000
  H   H1558     1.0  0.90288  0.12561  0.00100  1.0000
  C   C1558     1.0  0.85862  0.19706  0.25895  1.0000
  C   C1559     1.0  0.88880  0.10500  0.15366  1.0000
  C   C1560     1.0  0.88499  0.09257  0.17110  1.0000
  C   C1561     1.0  0.88562  0.07299  0.17136  1.0000
  C   C1562     1.0  0.88952  0.06582  0.15416  1.0000
  C   C1563     1.0  0.89327  0.07824  0.13668  1.0000
  C   C1564     1.0  0.89331  0.09771  0.13646  1.0000
  H   H1559     1.0  0.88161  0.09803  0.18444  1.0000
  H   H1560     1.0  0.88269  0.06351  0.18487  1.0000
  H   H1561     1.0  0.89645  0.07276  0.12335  1.0000
  H   H1562     1.0  0.89646  0.10720  0.12294  1.0000
  H   H1563     1.0  0.95510  0.22777  0.36011  1.0000
  C   C1565     1.0  0.91040  0.06558  0.24983  1.0000
  C   C1566     1.0  0.79356  0.99914  0.15801  1.0000
  H   H1564     1.0  0.73978  0.07436  0.98571  1.0000
  H   H1565     1.0  0.84159  0.99717  0.15506  1.0000
  C   C1567     1.0  0.91504  0.03157  0.24776  1.0000
  C   C1568     1.0  0.82049  0.03304  0.18145  1.0000
  H   H1566     1.0  0.87379  0.99212  0.19853  1.0000
  C   C1569     1.0  0.67617  0.18936  0.10099  1.0000
  C   C1570     1.0  0.87328  0.08364  0.28558  1.0000
  C   C1571     1.0  0.87155  0.10085  0.27247  1.0000
  C   C1572     1.0  0.86213  0.10277  0.25697  1.0000
  C   C1573     1.0  0.85466  0.08742  0.25431  1.0000
  C   C1574     1.0  0.85691  0.06995  0.26711  1.0000
  C   C1575     1.0  0.86629  0.06802  0.28274  1.0000
  H   H1567     1.0  0.87706  0.11290  0.27458  1.0000
  H   H1568     1.0  0.86005  0.11642  0.24753  1.0000
  H   H1569     1.0  0.85116  0.05800  0.26510  1.0000
  H   H1570     1.0  0.86761  0.05467  0.29286  1.0000
  C   C1576     1.0  0.86271  0.19082  0.24114  1.0000
  S   S556      1.0  0.87447  0.23179  0.30724  1.0000
  H   H1571     1.0  0.88171  0.19188  0.21380  1.0000
  H   H1572     1.0  0.75198  0.14883  0.01362  1.0000
  C   C1577     1.0  0.96560  0.06144  0.34565  1.0000
  S   S557      1.0  0.90183  0.98943  0.08049  1.0000
  H   H1573     1.0  0.93665  0.12917  0.36191  1.0000
  N   N130      1.0  0.84837  0.01215  0.19210  1.0000
  C   C1578     1.0  0.95836  0.19733  0.37100  1.0000
  C   C1579     1.0  0.95102  0.18058  0.37247  1.0000
  C   C1580     1.0  0.93470  0.18129  0.36450  1.0000
  C   C1581     1.0  0.92593  0.19864  0.35464  1.0000
  N   N131      1.0  0.76769  0.12941  0.99485  1.0000
  C   C1582     1.0  0.90354  0.13052  0.98530  1.0000
  H   H1574     1.0  0.92895  0.16834  0.36590  1.0000
  H   H1575     1.0  0.92561  0.02853  0.25719  1.0000
  H   H1576     1.0  0.75196  0.21204  0.99138  1.0000
  C   C1583     1.0  0.95412  0.08315  0.36882  1.0000
  C   C1584     1.0  0.85257  0.08731  0.01127  1.0000
  C   C1585     1.0  0.85117  0.10422  0.01833  1.0000
  C   C1586     1.0  0.85392  0.10321  0.03719  1.0000
  C   C1587     1.0  0.85820  0.08534  0.04897  1.0000
  C   C1588     1.0  0.85960  0.06849  0.04186  1.0000
  C   C1589     1.0  0.85668  0.06949  0.02311  1.0000
  H   H1577     1.0  0.84790  0.11803  0.00933  1.0000
  H   H1578     1.0  0.85276  0.11630  0.04266  1.0000
  H   H1579     1.0  0.86306  0.05466  0.05075  1.0000
  H   H1580     1.0  0.85783  0.05637  0.01769  1.0000
  C   C1590     1.0  0.79115  0.15169  0.15438  1.0000
  C   C1591     1.0  0.77748  0.16212  0.14302  1.0000
  C   C1592     1.0  0.77308  0.15431  0.12852  1.0000
  C   C1593     1.0  0.78223  0.13588  0.12530  1.0000
  C   C1594     1.0  0.79578  0.12537  0.13677  1.0000
  C   C1595     1.0  0.80025  0.13322  0.15119  1.0000
  H   H1581     1.0  0.77030  0.17638  0.14540  1.0000
  H   H1582     1.0  0.76263  0.16259  0.11982  1.0000
  H   H1583     1.0  0.80305  0.11116  0.13438  1.0000
  H   H1584     1.0  0.81067  0.12494  0.15988  1.0000
  H   H1585     1.0  0.90093  0.07954  0.24578  1.0000
  C   C1596     1.0  0.68964  0.20103  0.10002  1.0000
  H   H1586     1.0  0.88437  0.06817  0.22726  1.0000
  H   H1587     1.0  0.70485  0.19573  0.09598  1.0000
  C   C1597     1.0  0.76881  0.18875  0.00788  1.0000
  C   C1598     1.0  0.78410  0.17310  0.00709  1.0000
  C   C1599     1.0  0.76689  0.11987  0.98070  1.0000
  H   H1588     1.0  0.89373  0.00818  0.22426  1.0000
  H   H1589     1.0  0.93250  0.14767  0.34124  1.0000
  C   C1600     1.0  0.98640  0.08226  0.35046  1.0000
  H   H1590     1.0  0.78840  0.16476  0.02023  1.0000
  C   C1601     1.0  0.66740  0.21786  0.05891  1.0000
  H   H1591     1.0  0.88936  0.13922  0.98257  1.0000
  H   H1592     1.0  0.89447  0.07149  0.97827  1.0000
  C   C1602     1.0  0.73133  0.10299  0.01949  1.0000
  C   C1603     1.0  0.74055  0.08876  0.00856  1.0000
  C   C1604     1.0  0.73225  0.08536  0.99405  1.0000
  H   H1593     1.0  0.84283  0.99072  0.21688  1.0000
  C   C1605     1.0  0.70471  0.11000  0.00140  1.0000
  C   C1606     1.0  0.71334  0.11375  0.01585  1.0000
  H   H1594     1.0  0.75436  0.08031  0.01122  1.0000
  C   C1607     1.0  0.82730  0.99399  0.16044  1.0000
  H   H1595     1.0  0.70604  0.12477  0.02422  1.0000
  H   H1596     1.0  0.80808  0.06202  0.11665  1.0000
  H   H1597     1.0  0.87632  0.04169  0.21566  1.0000
  N   N132      1.0  0.90556  0.04993  0.24282  1.0000
  C   C1608     1.0  0.88667  0.99483  0.27912  1.0000
  H   H1598     1.0  0.80617  0.15675  0.98860  1.0000
  C   C1609     1.0  0.80848  0.02320  0.19623  1.0000
  S   S558      1.0  0.81588  0.01985  0.12946  1.0000
  H   H1599     1.0  0.78172  0.00630  0.15059  1.0000
  H   H1600     1.0  0.92566  0.08078  0.31216  1.0000
  H   H1601     1.0  0.80742  0.00003  0.22051  1.0000
  H   H1602     1.0  0.81434  0.04471  0.17119  1.0000
  H   H1603     1.0  0.91863  0.00182  0.24491  1.0000
  C   C1610     1.0  0.81210  0.00329  0.15077  1.0000
  C   C1611     1.0  0.91118  0.01639  0.24085  1.0000
  C   C1612     1.0  0.94936  0.21482  0.36150  1.0000
  C   C1613     1.0  0.71425  0.09573  0.99041  1.0000
  N   N133      1.0  0.83340  0.13365  0.28500  1.0000
  C   C1614     1.0  0.82319  0.13545  0.27062  1.0000
  C   C1615     1.0  0.83416  0.11761  0.29898  1.0000
  C   C1616     1.0  0.81359  0.12082  0.26980  1.0000
  C   C1617     1.0  0.82472  0.10271  0.29861  1.0000
  C   C1618     1.0  0.81447  0.10432  0.28384  1.0000
  C   C1619     1.0  0.84442  0.14863  0.28458  1.0000
  H   H1604     1.0  0.82295  0.14802  0.25936  1.0000
  H   H1605     1.0  0.84287  0.11578  0.30999  1.0000
  H   H1606     1.0  0.80616  0.12191  0.25794  1.0000
  H   H1607     1.0  0.82607  0.08966  0.30923  1.0000
  H   H1608     1.0  0.80775  0.09256  0.28289  1.0000
  H   H1609     1.0  0.83502  0.16298  0.28286  1.0000
  H   H1610     1.0  0.85053  0.14660  0.29787  1.0000
  H   H1611     1.0  0.85656  0.14852  0.27214  1.0000
  H   H1612     1.0  0.78378  0.13201  0.01544  1.0000
  C   C1620     1.0  0.86939  0.00611  0.18936  1.0000
  C   C1621     1.0  0.95099  0.06910  0.35950  1.0000
  C   C1622     1.0  0.79424  0.16867  0.98922  1.0000
  H   H1613     1.0  0.95880  0.08812  0.30595  1.0000
  C   C1623     1.0  0.98335  0.06804  0.34128  1.0000
  C   C1624     1.0  0.91843  0.11491  0.34005  1.0000
  H   H1614     1.0  0.90113  0.21335  0.22089  1.0000
  C   C1625     1.0  0.88937  0.20868  0.23167  1.0000
  H   H1615     1.0  0.88871  0.09850  0.99582  1.0000
  C   C1626     1.0  0.84054  0.02736  0.17966  1.0000
  C   C1627     1.0  0.68341  0.21976  0.10396  1.0000
  H   H1616     1.0  0.69394  0.22878  0.10288  1.0000
  C   C1628     1.0  0.81661  0.00805  0.20918  1.0000
  C   C1629     1.0  0.76367  0.19987  0.99085  1.0000
  H   H1617     1.0  0.94272  0.08888  0.37956  1.0000
  C   C1630     1.0  0.88506  0.21514  0.24940  1.0000
  S   S559      1.0  0.91835  0.98710  0.29775  1.0000
  C   C1631     1.0  0.88741  0.03871  0.22447  1.0000
  N   N134      1.0  0.93671  0.11895  0.33648  1.0000
  H   H1618     1.0  0.87616  0.01714  0.19271  1.0000
  C   C1632     1.0  0.92868  0.09174  0.31872  1.0000
  C   C1633     1.0  0.89718  0.01999  0.22924  1.0000
  H   H1619     1.0  0.92559  0.06724  0.24371  1.0000
  H   H1620     1.0  0.71580  0.20291  0.04709  1.0000
  C   C1634     1.0  0.78308  0.12441  0.00430  1.0000
  H   H1621     1.0  0.97268  0.18636  0.30749  1.0000
  H   H1622     1.0  0.84649  0.19298  0.26952  1.0000
  C   C1635     1.0  0.79816  0.10947  0.99972  1.0000
  N   N135      1.0  0.98044  0.21230  0.31041  1.0000
  S   S560      1.0  0.84943  0.08778  0.98776  1.0000
  H   H1623     1.0  0.90712  0.12211  0.34995  1.0000
  H   H1624     1.0  0.96567  0.11250  0.32170  1.0000
  H   H1625     1.0  0.84981  0.03496  0.16805  1.0000
  C   C1636     1.0  0.89195  0.05364  0.23124  1.0000
  H   H1626     1.0  0.75495  0.15873  0.98836  1.0000
  C   C1637     1.0  0.95104  0.10977  0.32411  1.0000
  C   C1638     1.0  0.66368  0.22699  0.10883  1.0000
  C   C1639     1.0  0.83671  0.00274  0.20694  1.0000
  S   S561      1.0  0.89760  0.23253  0.25296  1.0000
  H   H1627     1.0  0.89972  0.09781  0.33424  1.0000
  C   C1640     1.0  0.91414  0.10125  0.33123  1.0000
  S   S562      1.0  0.97937  0.19622  0.38012  1.0000
  H   H1628     1.0  0.86620  0.21381  0.27679  1.0000
  H   H1629     1.0  0.95782  0.16706  0.37991  1.0000
  H   H1630     1.0  0.91447  0.14009  0.98022  1.0000
  H   H1631     1.0  0.95635  0.13407  0.34324  1.0000
  N   N136      1.0  0.83874  0.14765  0.12058  1.0000
  C   C1641     1.0  0.82491  0.15433  0.10924  1.0000
  C   C1642     1.0  0.85067  0.13036  0.11923  1.0000
  C   C1643     1.0  0.82304  0.14374  0.09584  1.0000
  C   C1644     1.0  0.84924  0.11941  0.10598  1.0000
  C   C1645     1.0  0.83531  0.12619  0.09423  1.0000
  C   C1646     1.0  0.84039  0.15847  0.13494  1.0000
  H   H1632     1.0  0.81486  0.16762  0.11089  1.0000
  H   H1633     1.0  0.86129  0.12496  0.12855  1.0000
  H   H1634     1.0  0.81171  0.14880  0.08725  1.0000
  H   H1635     1.0  0.85880  0.10571  0.10492  1.0000
  H   H1636     1.0  0.83385  0.11775  0.08405  1.0000
  H   H1637     1.0  0.83528  0.15081  0.14948  1.0000
  H   H1638     1.0  0.85569  0.15983  0.13397  1.0000
  H   H1639     1.0  0.83151  0.17312  0.13330  1.0000
  N   N137      1.0  0.79832  0.07897  0.09176  1.0000
  C   C1647     1.0  0.81141  0.07402  0.07613  1.0000
  C   C1648     1.0  0.77914  0.08461  0.09068  1.0000
  C   C1649     1.0  0.80549  0.07521  0.05865  1.0000
  C   C1650     1.0  0.77269  0.08578  0.07350  1.0000
  C   C1651     1.0  0.78597  0.08114  0.05737  1.0000
  C   C1652     1.0  0.80496  0.07738  0.10990  1.0000
  H   H1640     1.0  0.82653  0.06910  0.07716  1.0000
  H   H1641     1.0  0.76871  0.08850  0.10308  1.0000
  H   H1642     1.0  0.81599  0.07146  0.04625  1.0000
  H   H1643     1.0  0.75746  0.09030  0.07269  1.0000
  H   H1644     1.0  0.78106  0.08209  0.04397  1.0000
  H   H1645     1.0  0.81820  0.08378  0.10736  1.0000
  H   H1646     1.0  0.79394  0.08522  0.12014  1.0000
  H   H1647     1.0  0.79291  0.02709  0.19749  1.0000
  H   H1648     1.0  0.69088  0.11825  0.99861  1.0000
  S   S563      1.0  0.97424  0.10845  0.37587  1.0000
  C   C1653     1.0  0.93324  0.21544  0.35318  1.0000
  C   C1654     1.0  0.86981  0.20894  0.26314  1.0000
  C   C1655     1.0  0.94724  0.09603  0.31506  1.0000
  C   C1656     1.0  0.94072  0.13323  0.34608  1.0000
  C   C1657     1.0  0.87656  0.99117  0.26592  1.0000
  H   H1649     1.0  0.90861  0.06249  0.26575  1.0000
  C   C1658     1.0  0.68480  0.20559  0.05388  1.0000
  C   C1659     1.0  0.88011  0.98607  0.39185  1.0000
  C   C1660     1.0  0.70197  0.23116  0.05257  1.0000
  H   H1650     1.0  0.87524  0.00441  0.17420  1.0000
  H   H1651     1.0  0.86433  0.00161  0.26174  1.0000
  H   H1652     1.0  0.92655  0.22887  0.34555  1.0000
  C   C1661     1.0  0.79741  0.09957  0.98540  1.0000
  H   H1653     1.0  0.68483  0.19077  0.05309  1.0000
  C   C1662     1.0  0.96854  0.19728  0.31703  1.0000
  C   C1663     1.0  0.79024  0.98572  0.17486  1.0000
  H   H1654     1.0  0.85794  0.99641  0.35211  1.0000
  C   C1664     1.0  0.75242  0.14570  0.99914  1.0000
  H   H1655     1.0  0.80914  0.08805  0.98163  1.0000
  C   C1665     1.0  0.70217  0.21233  0.05071  1.0000
  H   H1656     1.0  0.95295  0.20327  0.31710  1.0000
  Fe  Fe280     1.0  0.89875  0.22650  0.32363  1.0000
  H   H1657     1.0  0.96024  0.99281  0.05486  1.0000
  C   C1666     1.0  0.97247  0.23103  0.31175  1.0000
  H   H1658     1.0  0.66308  0.22902  0.14982  1.0000
  H   H1659     1.0  0.94716  0.98381  0.07778  1.0000
  S   S564      1.0  0.67316  0.10179  0.93302  1.0000
  C   C1667     1.0  0.72717  0.09964  0.91986  1.0000
  H   H1660     1.0  0.87160  0.13856  0.85461  1.0000
  Fe  Fe281     1.0  0.87156  0.14704  0.94411  1.0000
  S   S565      1.0  0.87510  0.11616  0.94170  1.0000
  S   S566      1.0  0.89752  0.16080  0.94155  1.0000
  Fe  Fe282     1.0  0.85330  0.12643  0.92228  1.0000
  S   S567      1.0  0.86078  0.11507  0.89464  1.0000
  C   C1668     1.0  0.77347  0.19521  0.97309  1.0000
  S   S568      1.0  0.85147  0.15752  0.92291  1.0000
  Fe  Fe283     1.0  0.74149  0.15958  0.82705  1.0000
  S   S569      1.0  0.74041  0.18595  0.83983  1.0000
  S   S570      1.0  0.71731  0.15925  0.81098  1.0000
  Fe  Fe284     1.0  0.77529  0.13780  0.84634  1.0000
  S   S571      1.0  0.77693  0.16187  0.86041  1.0000
  S   S572      1.0  0.79508  0.10958  0.85195  1.0000
  Fe  Fe285     1.0  0.74476  0.16511  0.86683  1.0000
  S   S573      1.0  0.73181  0.16755  0.89734  1.0000
  Fe  Fe286     1.0  0.77298  0.18063  0.83239  1.0000
  S   S574      1.0  0.79034  0.20491  0.82087  1.0000
  S   S575      1.0  0.74335  0.13938  0.85503  1.0000
  S   S576      1.0  0.77383  0.15606  0.81719  1.0000
  H   H1661     1.0  0.72467  0.05314  0.92629  1.0000
  H   H1662     1.0  0.80841  0.22885  0.88948  1.0000
  H   H1663     1.0  0.85571  0.15661  0.86697  1.0000
  H   H1664     1.0  0.83473  0.19366  0.86744  1.0000
  Fe  Fe287     1.0  0.82808  0.15280  0.94853  1.0000
  Fe  Fe288     1.0  0.84977  0.11492  0.96569  1.0000
  H   H1665     1.0  0.70504  0.07018  0.91700  1.0000
  S   S577      1.0  0.96335  0.14165  0.87145  1.0000
  S   S578      1.0  0.80047  0.17428  0.94959  1.0000
  C   C1669     1.0  0.97154  0.21877  0.81820  1.0000
  S   S579      1.0  0.68472  0.09827  0.71693  1.0000
  N   N138      1.0  0.73029  0.08165  0.91534  1.0000
  H   H1666     1.0  0.67732  0.14244  0.94012  1.0000
  C   C1670     1.0  0.77557  0.17825  0.91264  1.0000
  Fe  Fe289     1.0  0.67918  0.10122  0.74817  1.0000
  S   S580      1.0  0.70430  0.09877  0.76392  1.0000
  H   H1667     1.0  0.81945  0.17327  0.80015  1.0000
  H   H1668     1.0  0.66682  0.17200  0.88427  1.0000
  H   H1669     1.0  0.66083  0.00465  0.79441  1.0000
  H   H1670     1.0  0.68507  0.15279  0.85157  1.0000
  N   N139      1.0  0.72063  0.13092  0.72176  1.0000
  H   H1671     1.0  0.75463  0.12378  0.97329  1.0000
  C   C1671     1.0  0.92085  0.11459  0.95816  1.0000
  C   C1672     1.0  0.67466  0.10143  0.87144  1.0000
  H   H1672     1.0  0.65919  0.04398  0.88404  1.0000
  C   C1673     1.0  0.95379  0.22990  0.81425  1.0000
  H   H1673     1.0  0.78938  0.16852  0.91503  1.0000
  C   C1674     1.0  0.71484  0.15416  0.74258  1.0000
  H   H1674     1.0  0.93419  0.10018  0.93414  1.0000
  H   H1675     1.0  0.86502  0.18413  0.82389  1.0000
  H   H1676     1.0  0.92690  0.13010  0.88557  1.0000
  C   C1675     1.0  0.89027  0.18270  0.88364  1.0000
  H   H1677     1.0  0.92810  0.18027  0.86889  1.0000
  H   H1678     1.0  0.67196  0.08694  0.87727  1.0000
  C   C1676     1.0  0.70498  0.14049  0.71365  1.0000
  H   H1679     1.0  0.83822  0.13567  0.84941  1.0000
  C   C1677     1.0  0.71366  0.14162  0.79887  1.0000
  C   C1678     1.0  0.69626  0.14429  0.79193  1.0000
  C   C1679     1.0  0.69293  0.13109  0.78167  1.0000
  C   C1680     1.0  0.70703  0.11502  0.77815  1.0000
  C   C1681     1.0  0.72430  0.11217  0.78539  1.0000
  C   C1682     1.0  0.72761  0.12535  0.79569  1.0000
  H   H1680     1.0  0.68532  0.15678  0.79436  1.0000
  H   H1681     1.0  0.67956  0.13352  0.77625  1.0000
  H   H1682     1.0  0.73531  0.09978  0.78281  1.0000
  H   H1683     1.0  0.74107  0.12305  0.80093  1.0000
  C   C1683     1.0  0.80856  0.21006  0.83124  1.0000
  H   H1684     1.0  0.76955  0.08485  0.88015  1.0000
  C   C1684     1.0  0.83826  0.21913  0.84627  1.0000
  C   C1685     1.0  0.93398  0.20569  0.87560  1.0000
  H   H1685     1.0  0.71519  0.10406  0.93085  1.0000
  C   C1686     1.0  0.81509  0.19828  0.84743  1.0000
  C   C1687     1.0  0.75769  0.08902  0.89139  1.0000
  H   H1686     1.0  0.74745  0.06224  0.89726  1.0000
  C   C1688     1.0  0.72553  0.13744  0.73617  1.0000
  H   H1687     1.0  0.80882  0.18568  0.85419  1.0000
  C   C1689     1.0  0.70791  0.16361  0.90311  1.0000
  C   C1690     1.0  0.69564  0.16976  0.88957  1.0000
  C   C1691     1.0  0.67648  0.16662  0.89452  1.0000
  H   H1688     1.0  0.70089  0.13520  0.70242  1.0000
  C   C1692     1.0  0.68234  0.15011  0.92604  1.0000
  C   C1693     1.0  0.70114  0.15409  0.92145  1.0000
  H   H1689     1.0  0.70076  0.17736  0.87546  1.0000
  C   C1694     1.0  0.79314  0.20507  0.90102  1.0000
  H   H1690     1.0  0.73697  0.12684  0.91408  1.0000
  H   H1691     1.0  0.71050  0.14954  0.93205  1.0000
  C   C1695     1.0  0.91600  0.15549  0.92218  1.0000
  C   C1696     1.0  0.91388  0.14358  0.91018  1.0000
  C   C1697     1.0  0.92871  0.13923  0.89490  1.0000
  C   C1698     1.0  0.94578  0.14671  0.89151  1.0000
  C   C1699     1.0  0.94802  0.15855  0.90357  1.0000
  C   C1700     1.0  0.93310  0.16295  0.91890  1.0000
  H   H1692     1.0  0.90075  0.13782  0.91248  1.0000
  H   H1693     1.0  0.96116  0.16439  0.90102  1.0000
  H   H1694     1.0  0.93483  0.17214  0.92819  1.0000
  C   C1701     1.0  0.84145  0.11179  0.88525  1.0000
  C   C1702     1.0  0.84514  0.09956  0.87180  1.0000
  C   C1703     1.0  0.83049  0.09826  0.86238  1.0000
  C   C1704     1.0  0.81221  0.10956  0.86600  1.0000
  C   C1705     1.0  0.80830  0.12131  0.87998  1.0000
  C   C1706     1.0  0.82290  0.12238  0.88968  1.0000
  H   H1695     1.0  0.85947  0.09131  0.86838  1.0000
  H   H1696     1.0  0.83358  0.08904  0.85171  1.0000
  H   H1697     1.0  0.79409  0.12958  0.88338  1.0000
  H   H1698     1.0  0.82000  0.13180  0.90013  1.0000
  C   C1707     1.0  0.73943  0.11263  0.91043  1.0000
  C   C1708     1.0  0.65953  0.99976  0.76634  1.0000
  H   H1699     1.0  0.80131  0.19962  0.91263  1.0000
  H   H1700     1.0  0.76926  0.20381  0.96000  1.0000
  C   C1709     1.0  0.84302  0.18012  0.80998  1.0000
  C   C1710     1.0  0.92194  0.19294  0.87538  1.0000
  H   H1701     1.0  0.94916  0.20286  0.86934  1.0000
  H   H1702     1.0  0.76759  0.18213  0.92660  1.0000
  N   N140      1.0  0.90279  0.19629  0.88342  1.0000
  H   H1703     1.0  0.73741  0.12940  0.74321  1.0000
  H   H1704     1.0  0.87982  0.21514  0.89754  1.0000
  H   H1705     1.0  0.75753  0.19546  0.88307  1.0000
  C   C1711     1.0  0.66537  0.13514  0.87022  1.0000
  H   H1706     1.0  0.94128  0.23032  0.82545  1.0000
  C   C1712     1.0  0.77243  0.21917  0.87127  1.0000
  C   C1713     1.0  0.91515  0.08374  0.95522  1.0000
  H   H1707     1.0  0.68118  0.16439  0.71359  1.0000
  H   H1708     1.0  0.71858  0.15905  0.75429  1.0000
  Fe  Fe290     1.0  0.66084  0.08095  0.72412  1.0000
  H   H1709     1.0  0.87834  0.18997  0.87571  1.0000
  C   C1714     1.0  0.98789  0.21819  0.80370  1.0000
  H   H1710     1.0  0.91751  0.07210  0.94721  1.0000
  C   C1715     1.0  0.69877  0.16393  0.73448  1.0000
  H   H1711     1.0  0.92792  0.12690  0.95220  1.0000
  S   S581      1.0  0.85675  0.22432  0.85621  1.0000
  C   C1716     1.0  0.83969  0.14809  0.83833  1.0000
  C   C1717     1.0  0.82922  0.16901  0.81045  1.0000
  C   C1718     1.0  0.90230  0.08334  0.97265  1.0000
  C   C1719     1.0  0.81704  0.22630  0.82263  1.0000
  C   C1720     1.0  0.69380  0.15710  0.71988  1.0000
  H   H1712     1.0  0.97262  0.21087  0.83247  1.0000
  C   C1721     1.0  0.86490  0.15406  0.85301  1.0000
  H   H1713     1.0  0.87672  0.16253  0.84987  1.0000
  C   C1722     1.0  0.82987  0.20281  0.85488  1.0000
  H   H1714     1.0  0.84396  0.19308  0.79934  1.0000
  H   H1715     1.0  0.71080  0.07080  0.93990  1.0000
  C   C1723     1.0  0.75480  0.10723  0.89617  1.0000
  S   S582      1.0  0.84799  0.14510  0.97012  1.0000
  N   N141      1.0  0.77931  0.19566  0.89895  1.0000
  H   H1716     1.0  0.76434  0.11721  0.88865  1.0000
  C   C1724     1.0  0.74517  0.07635  0.90113  1.0000
  C   C1725     1.0  0.89508  0.21234  0.89149  1.0000
  H   H1717     1.0  0.81682  0.14410  0.82534  1.0000
  C   C1726     1.0  0.73155  0.11294  0.71582  1.0000
  C   C1727     1.0  0.90670  0.22541  0.89194  1.0000
  H   H1718     1.0  0.72600  0.10054  0.72570  1.0000
  H   H1719     1.0  0.73019  0.11225  0.70099  1.0000
  H   H1720     1.0  0.74715  0.11147  0.71619  1.0000
  C   C1728     1.0  0.71707  0.06831  0.92503  1.0000
  Fe  Fe291     1.0  0.67518  0.09583  0.96426  1.0000
  C   C1729     1.0  0.69522  0.12266  0.85089  1.0000
  H   H1721     1.0  0.88406  0.17719  0.89871  1.0000
  H   H1722     1.0  0.78092  0.09711  0.96471  1.0000
  C   C1730     1.0  0.68215  0.13831  0.85702  1.0000
  C   C1731     1.0  0.83177  0.23083  0.83008  1.0000
  S   S583      1.0  0.66585  0.14631  0.68749  1.0000
  C   C1732     1.0  0.82757  0.15282  0.82468  1.0000
  H   H1723     1.0  0.70166  0.09183  0.85351  1.0000
  C   C1733     1.0  0.78883  0.17970  0.97220  1.0000
  C   C1734     1.0  0.79707  0.22170  0.88812  1.0000
  H   H1724     1.0  0.89829  0.17013  0.87699  1.0000
  C   C1735     1.0  0.66995  0.15640  0.91261  1.0000
  S   S584      1.0  0.70551  0.09061  0.97116  1.0000
  C   C1736     1.0  0.69153  0.10408  0.85816  1.0000
  H   H1725     1.0  0.70821  0.12499  0.84055  1.0000
  S   S585      1.0  0.82806  0.12246  0.94591  1.0000
  C   C1737     1.0  0.85486  0.17498  0.82395  1.0000
  Fe  Fe292     1.0  0.66095  0.12387  0.71396  1.0000
  C   C1738     1.0  0.76875  0.20269  0.88453  1.0000
  N   N142      1.0  0.85308  0.15909  0.83789  1.0000
  C   C1739     1.0  0.92451  0.09946  0.94789  1.0000
  H   H1726     1.0  0.76697  0.17003  0.90741  1.0000
  H   H1727     1.0  0.69002  0.17657  0.73973  1.0000
  H   H1728     1.0  0.93535  0.23216  0.88414  1.0000
  C   C1740     1.0  0.92628  0.22200  0.88399  1.0000
  N   N143      1.0  0.66167  0.11692  0.87698  1.0000
  C   C1741     1.0  0.78167  0.10474  0.97584  1.0000
  H   H1729     1.0  0.76455  0.22426  0.85940  1.0000
  S   S586      1.0  0.66136  0.05387  0.71236  1.0000
  H   H1730     1.0  0.66876  0.98578  0.76820  1.0000
  C   C1742     1.0  0.78669  0.22871  0.87311  1.0000
  C   C1743     1.0  0.98637  0.22843  0.78525  1.0000
  H   H1731     1.0  0.66806  0.00122  0.72315  1.0000
  N   N144      1.0  0.90820  0.11409  0.97522  1.0000
  H   H1732     1.0  0.65852  0.17594  0.65561  1.0000
  H   H1733     1.0  0.65813  0.02406  0.69302  1.0000
  Fe  Fe293     1.0  0.99121  0.15328  0.86382  1.0000
  Fe  Fe294     1.0  0.75848  0.39523  0.37854  1.0000
  S   S587      1.0  0.77283  0.36424  0.38164  1.0000
  S   S588      1.0  0.75698  0.41024  0.40370  1.0000
  Fe  Fe295     1.0  0.74098  0.39212  0.34355  1.0000
  S   S589      1.0  0.75419  0.36108  0.34465  1.0000
  S   S590      1.0  0.72167  0.40755  0.32169  1.0000
  Fe  Fe296     1.0  0.74495  0.35896  0.37655  1.0000
  S   S591      1.0  0.72966  0.33543  0.39390  1.0000
  Fe  Fe297     1.0  0.78063  0.36978  0.34948  1.0000
  S   S592      1.0  0.81061  0.36083  0.33321  1.0000
  S   S593      1.0  0.72993  0.38939  0.37526  1.0000
  S   S594      1.0  0.76814  0.40142  0.34643  1.0000
  H   H1734     1.0  0.73554  0.38228  0.25519  1.0000
  H   H1735     1.0  0.86644  0.27058  0.24744  1.0000
  Fe  Fe298     1.0  0.82440  0.43775  0.45732  1.0000
  C   C1744     1.0  0.74353  0.37436  0.44499  1.0000
  S   S595      1.0  0.82065  0.44630  0.42620  1.0000
  C   C1745     1.0  0.82479  0.24256  0.26987  1.0000
  C   C1746     1.0  0.72558  0.44357  0.43300  1.0000
  H   H1736     1.0  0.96685  0.42268  0.37490  1.0000
  H   H1737     1.0  0.88820  0.29590  0.34490  1.0000
  H   H1738     1.0  0.81110  0.29932  0.37362  1.0000
  C   C1747     1.0  0.83750  0.32089  0.36597  1.0000
  C   C1748     1.0  0.75424  0.39301  0.27683  1.0000
  S   S596      1.0  0.69519  0.36585  0.26487  1.0000
  C   C1749     1.0  0.76399  0.39726  0.28976  1.0000
  Fe  Fe299     1.0  0.86919  0.26197  0.31300  1.0000
  S   S597      1.0  0.88908  0.27292  0.28634  1.0000
  S   S598      1.0  0.83768  0.27427  0.32195  1.0000
  C   C1750     1.0  0.76199  0.37614  0.44686  1.0000
  S   S599      1.0  0.99026  0.35496  0.34519  1.0000
  Fe  Fe300     1.0  0.91183  0.26438  0.30539  1.0000
  S   S600      1.0  0.93694  0.27732  0.30880  1.0000
  Fe  Fe301     1.0  0.99130  0.38402  0.35153  1.0000
  C   C1751     1.0  0.87046  0.32278  0.35078  1.0000
  S   S601      1.0  0.89131  0.25549  0.33226  1.0000
  H   H1739     1.0  0.72280  0.42981  0.43054  1.0000
  Fe  Fe302     1.0  0.95597  0.38304  0.38311  1.0000
  S   S602      1.0  0.95949  0.39391  0.35142  1.0000
  S   S603      1.0  0.93701  0.40488  0.40027  1.0000
  Fe  Fe303     1.0  0.95797  0.36381  0.34863  1.0000
  S   S604      1.0  0.93678  0.35772  0.33223  1.0000
  S   S605      1.0  0.95205  0.35385  0.38044  1.0000
  C   C1752     1.0  0.66213  0.42175  0.39438  1.0000
  N   N145      1.0  0.75763  0.37487  0.27263  1.0000
  H   H1740     1.0  0.69462  0.41203  0.35487  1.0000
  C   C1753     1.0  0.85902  0.29257  0.35859  1.0000
  C   C1754     1.0  0.66394  0.38943  0.38939  1.0000
  C   C1755     1.0  0.82564  0.29024  0.37387  1.0000
  C   C1756     1.0  0.93611  0.29946  0.31618  1.0000
  C   C1757     1.0  0.91995  0.31415  0.31581  1.0000
  C   C1758     1.0  0.92039  0.33189  0.32075  1.0000
  C   C1759     1.0  0.93680  0.33502  0.32648  1.0000
  C   C1760     1.0  0.95288  0.32026  0.32701  1.0000
  C   C1761     1.0  0.95255  0.30261  0.32185  1.0000
  H   H1741     1.0  0.90739  0.31211  0.31104  1.0000
  H   H1742     1.0  0.90811  0.34343  0.31977  1.0000
  H   H1743     1.0  0.96579  0.32269  0.33079  1.0000
  H   H1744     1.0  0.96523  0.29147  0.32194  1.0000
  H   H1745     1.0  0.74152  0.35733  0.26448  1.0000
  H   H1746     1.0  0.74364  0.40424  0.27053  1.0000
  H   H1747     1.0  0.90457  0.38672  0.38237  1.0000
  S   S606      1.0  0.67437  0.37923  0.21468  1.0000
  C   C1762     1.0  0.77072  0.36068  0.28096  1.0000
  H   H1748     1.0  0.71549  0.23638  0.05028  1.0000
  H   H1749     1.0  0.78518  0.38603  0.30820  1.0000
  C   C1763     1.0  0.89388  0.38864  0.45457  1.0000
  C   C1764     1.0  0.89592  0.40776  0.44754  1.0000
  C   C1765     1.0  0.90969  0.41240  0.43126  1.0000
  C   C1766     1.0  0.92154  0.39797  0.42181  1.0000
  C   C1767     1.0  0.92003  0.37873  0.42911  1.0000
  C   C1768     1.0  0.90626  0.37408  0.44555  1.0000
  H   H1750     1.0  0.88700  0.41901  0.45470  1.0000
  H   H1751     1.0  0.91096  0.42728  0.42583  1.0000
  H   H1752     1.0  0.92924  0.36749  0.42196  1.0000
  H   H1753     1.0  0.90491  0.35922  0.45104  1.0000
  C   C1769     1.0  0.71295  0.39560  0.30710  1.0000
  C   C1770     1.0  0.71687  0.37559  0.30877  1.0000
  C   C1771     1.0  0.71067  0.36667  0.29621  1.0000
  C   C1772     1.0  0.70051  0.37761  0.28180  1.0000
  C   C1773     1.0  0.69636  0.39761  0.28028  1.0000
  C   C1774     1.0  0.70246  0.40653  0.29294  1.0000
  H   H1754     1.0  0.72489  0.36694  0.31957  1.0000
  H   H1755     1.0  0.71405  0.35119  0.29746  1.0000
  H   H1756     1.0  0.68911  0.40624  0.26889  1.0000
  H   H1757     1.0  0.69947  0.42204  0.29141  1.0000
  C   C1775     1.0  0.81740  0.33728  0.32828  1.0000
  C   C1776     1.0  0.80464  0.32424  0.33436  1.0000
  C   C1777     1.0  0.81086  0.30512  0.33155  1.0000
  C   C1778     1.0  0.82996  0.29884  0.32305  1.0000
  C   C1779     1.0  0.84260  0.31198  0.31650  1.0000
  C   C1780     1.0  0.83624  0.33123  0.31894  1.0000
  H   H1758     1.0  0.79009  0.32876  0.34157  1.0000
  H   H1759     1.0  0.80100  0.29500  0.33656  1.0000
  H   H1760     1.0  0.85733  0.30727  0.30985  1.0000
  H   H1761     1.0  0.84615  0.34131  0.31412  1.0000
  C   C1781     1.0  0.70715  0.34324  0.40760  1.0000
  C   C1782     1.0  0.70349  0.36008  0.41545  1.0000
  C   C1783     1.0  0.68515  0.36609  0.42602  1.0000
  H   H1762     1.0  0.82341  0.25407  0.29547  1.0000
  C   C1784     1.0  0.98389  0.24535  0.30604  1.0000
  C   C1785     1.0  0.69250  0.33250  0.41037  1.0000
  H   H1763     1.0  0.71482  0.36834  0.41353  1.0000
  H   H1764     1.0  0.68234  0.37912  0.43192  1.0000
  H   H1765     1.0  0.82315  0.32815  0.37136  1.0000
  H   H1766     1.0  0.69525  0.31946  0.40440  1.0000
  C   C1786     1.0  0.77614  0.41861  0.40941  1.0000
  C   C1787     1.0  0.77540  0.42006  0.42859  1.0000
  C   C1788     1.0  0.78935  0.42792  0.43384  1.0000
  C   C1789     1.0  0.80397  0.43497  0.41985  1.0000
  C   C1790     1.0  0.80486  0.43345  0.40062  1.0000
  C   C1791     1.0  0.79113  0.42507  0.39543  1.0000
  H   H1767     1.0  0.76379  0.41532  0.43945  1.0000
  C   C1792     1.0  0.96672  0.26618  0.37978  1.0000
  H   H1768     1.0  0.81608  0.43895  0.38968  1.0000
  H   H1769     1.0  0.79175  0.42426  0.38056  1.0000
  N   N146      1.0  0.67773  0.39230  0.37338  1.0000
  H   H1770     1.0  0.73788  0.44742  0.42162  1.0000
  H   H1771     1.0  0.86174  0.27726  0.35842  1.0000
  H   H1772     1.0  0.97312  0.31205  0.36325  1.0000
  S   S607      1.0  0.85098  0.43805  0.46906  1.0000
  C   C1793     1.0  0.68699  0.37624  0.36326  1.0000
  C   C1794     1.0  0.84520  0.26401  0.27241  1.0000
  H   H1773     1.0  0.67631  0.36746  0.36262  1.0000
  C   C1795     1.0  0.78507  0.37946  0.46603  1.0000
  H   H1774     1.0  0.78844  0.42914  0.44865  1.0000
  C   C1796     1.0  0.83039  0.25361  0.28067  1.0000
  H   H1775     1.0  0.67659  0.25709  0.14544  1.0000
  C   C1797     1.0  0.97510  0.43048  0.39859  1.0000
  H   H1776     1.0  0.88185  0.33111  0.34460  1.0000
  C   C1798     1.0  0.68429  0.24306  0.05763  1.0000
  H   H1777     1.0  0.75807  0.36871  0.24513  1.0000
  H   H1778     1.0  0.82686  0.28336  0.38889  1.0000
  H   H1779     1.0  0.71467  0.37165  0.46004  1.0000
  H   H1780     1.0  0.96897  0.41925  0.40906  1.0000
  C   C1799     1.0  0.68366  0.40969  0.36749  1.0000
  S   S608      1.0  0.65997  0.43456  0.19304  1.0000
  C   C1800     1.0  0.83421  0.24203  0.25092  1.0000
  S   S609      1.0  0.82476  0.40634  0.46663  1.0000
  H   H1781     1.0  0.96957  0.23523  0.38643  1.0000
  H   H1782     1.0  0.84899  0.34726  0.35776  1.0000
  C   C1801     1.0  0.85449  0.26295  0.25354  1.0000
  C   C1802     1.0  0.72910  0.37303  0.46123  1.0000
  H   H1783     1.0  0.71267  0.45490  0.43122  1.0000
  H   H1784     1.0  0.75322  0.45720  0.44292  1.0000
  C   C1803     1.0  0.74462  0.44938  0.45500  1.0000
  H   H1785     1.0  0.70728  0.42567  0.46549  1.0000
  C   C1804     1.0  0.98432  0.44290  0.40427  1.0000
  N   N147      1.0  0.97576  0.28147  0.37145  1.0000
  H   H1786     1.0  0.95101  0.30301  0.36730  1.0000
  C   C1805     1.0  0.98027  0.44836  0.34565  1.0000
  C   C1806     1.0  0.66672  0.38875  0.16248  1.0000
  N   N148      1.0  0.87441  0.42012  0.40618  1.0000
  C   C1807     1.0  0.88847  0.41255  0.39249  1.0000
  C   C1808     1.0  0.86402  0.40843  0.41998  1.0000
  C   C1809     1.0  0.89285  0.39271  0.39278  1.0000
  C   C1810     1.0  0.86812  0.38852  0.42082  1.0000
  C   C1811     1.0  0.88268  0.38064  0.40715  1.0000
  C   C1812     1.0  0.87002  0.44092  0.40579  1.0000
  H   H1787     1.0  0.89689  0.42175  0.38166  1.0000
  H   H1788     1.0  0.85290  0.41445  0.43080  1.0000
  H   H1789     1.0  0.96223  0.30368  0.38733  1.0000
  H   H1790     1.0  0.86052  0.37929  0.43245  1.0000
  H   H1791     1.0  0.88646  0.36519  0.40800  1.0000
  C   C1813     1.0  0.67591  0.42469  0.37783  1.0000
  H   H1792     1.0  0.86533  0.44421  0.42059  1.0000
  H   H1793     1.0  0.88290  0.44767  0.39923  1.0000
  H   H1794     1.0  0.82660  0.27889  0.36526  1.0000
  N   N149      1.0  0.66732  0.23629  0.06084  1.0000
  C   C1814     1.0  0.74907  0.44715  0.47333  1.0000
  N   N150      1.0  0.76594  0.37668  0.46440  1.0000
  H   H1795     1.0  0.81340  0.23428  0.27619  1.0000
  H   H1796     1.0  0.78485  0.39492  0.46567  1.0000
  H   H1797     1.0  0.85809  0.44750  0.39763  1.0000
  H   H1798     1.0  0.95720  0.23506  0.31726  1.0000
  C   C1815     1.0  0.96496  0.30098  0.37235  1.0000
  C   C1816     1.0  0.67035  0.35553  0.42828  1.0000
  H   H1799     1.0  0.85209  0.26388  0.21347  1.0000
  C   C1817     1.0  0.67412  0.33876  0.42041  1.0000
  H   H1800     1.0  0.79121  0.35324  0.30049  1.0000
  C   C1818     1.0  0.74778  0.37062  0.25865  1.0000
  N   N151      1.0  0.73003  0.44136  0.45227  1.0000
  Fe  Fe304     1.0  0.67155  0.37754  0.24658  1.0000
  N   N152      1.0  0.98185  0.44636  0.36585  1.0000
  C   C1819     1.0  0.67772  0.41790  0.14518  1.0000
  C   C1820     1.0  0.85211  0.33181  0.35834  1.0000
  H   H1801     1.0  0.76083  0.41151  0.29351  1.0000
  C   C1821     1.0  0.77746  0.38292  0.29819  1.0000
  H   H1802     1.0  0.76100  0.45303  0.47540  1.0000
  H   H1803     1.0  0.69379  0.38138  0.34828  1.0000
  H   H1804     1.0  0.77339  0.34629  0.27767  1.0000
  H   H1805     1.0  0.68818  0.40096  0.17038  1.0000
  C   C1822     1.0  0.78085  0.36448  0.29384  1.0000
  H   H1806     1.0  0.69838  0.36685  0.37092  1.0000
  C   C1823     1.0  0.97392  0.43248  0.37921  1.0000
  H   H1807     1.0  0.66777  0.27365  0.16201  1.0000
  Fe  Fe305     1.0  0.89560  0.24198  0.28170  1.0000
  H   H1808     1.0  0.84958  0.27264  0.28073  1.0000
  H   H1809     1.0  0.97976  0.43427  0.34205  1.0000
  H   H1810     1.0  0.68069  0.43843  0.37313  1.0000
  N   N153      1.0  0.84101  0.30158  0.36576  1.0000
  C   C1824     1.0  0.66331  0.26519  0.15308  1.0000
  C   C1825     1.0  0.87401  0.30302  0.35093  1.0000
  H   H1811     1.0  0.66343  0.43233  0.12138  1.0000
  H   H1812     1.0  0.95170  0.26848  0.38669  1.0000
  H   H1813     1.0  0.66722  0.37687  0.17446  1.0000
  S   S610      1.0  0.92048  0.23466  0.29780  1.0000
  H   H1814     1.0  0.97748  0.26018  0.30707  1.0000
  C   C1826     1.0  0.99061  0.45885  0.37135  1.0000
  H   H1815     1.0  0.68634  0.42888  0.14377  1.0000
  H   H1816     1.0  0.65928  0.37562  0.39419  1.0000
  H   H1817     1.0  0.74045  0.37417  0.43099  1.0000
  C   C1827     1.0  0.71912  0.43168  0.46757  1.0000
  N   N154      1.0  0.84906  0.25193  0.24310  1.0000
  H   H1818     1.0  0.77299  0.37748  0.43406  1.0000
  H   H1819     1.0  0.98565  0.44128  0.41920  1.0000
  H   H1820     1.0  0.68426  0.25762  0.05928  1.0000
  Fe  Fe306     1.0  0.98436  0.34650  0.37722  1.0000
  S   S611      1.0  0.98783  0.37463  0.38339  1.0000
  H   H1821     1.0  0.87439  0.25161  0.22161  1.0000
  H   H1822     1.0  0.85774  0.23790  0.21866  1.0000
  C   C1828     1.0  0.67875  0.40222  0.16014  1.0000
  H   H1823     1.0  0.66274  0.33058  0.42204  1.0000
  C   C1829     1.0  0.85871  0.25138  0.22319  1.0000
  S   S612      1.0  0.87540  0.38280  0.47393  1.0000
  H   H1824     1.0  0.96698  0.45862  0.34261  1.0000
  C   C1830     1.0  0.66489  0.41983  0.13262  1.0000
  H   H1825     1.0  0.79639  0.37455  0.45419  1.0000
  C   C1831     1.0  0.97672  0.24736  0.37967  1.0000
  H   H1826     1.0  0.83000  0.23317  0.24269  1.0000
  S   S613      1.0  0.68678  0.39927  0.49368  1.0000
  Fe  Fe307     1.0  0.72016  0.37258  0.62979  1.0000
  S   S614      1.0  0.72883  0.34127  0.62721  1.0000
  S   S615      1.0  0.73341  0.39134  0.64360  1.0000
  Fe  Fe308     1.0  0.69555  0.38046  0.59770  1.0000
  S   S616      1.0  0.70336  0.35022  0.59209  1.0000
  S   S617      1.0  0.67447  0.40258  0.58208  1.0000
  Fe  Fe309     1.0  0.69783  0.34230  0.62413  1.0000
  S   S618      1.0  0.67785  0.32076  0.63866  1.0000
  Fe  Fe310     1.0  0.73324  0.35200  0.59540  1.0000
  S   S619      1.0  0.76130  0.34232  0.57645  1.0000
  S   S620      1.0  0.68870  0.37278  0.62973  1.0000
  S   S621      1.0  0.72583  0.38305  0.59794  1.0000
  S   S622      1.0  0.77692  0.40609  0.50357  1.0000
  C   C1832     1.0  0.82930  0.47349  0.76431  1.0000
  C   C1833     1.0  0.93875  0.34570  0.92386  1.0000
  C   C1834     1.0  0.95505  0.27374  0.82865  1.0000
  H   H1827     1.0  0.83807  0.24343  0.82329  1.0000
  C   C1835     1.0  0.66911  0.31058  0.60688  1.0000
  C   C1836     1.0  0.82545  0.44309  0.79493  1.0000
  H   H1828     1.0  0.96761  0.24715  0.76694  1.0000
  S   S623      1.0  0.95371  0.40899  0.88907  1.0000
  C   C1837     1.0  0.91961  0.33134  0.90916  1.0000
  H   H1829     1.0  0.85951  0.45260  0.56883  1.0000
  Fe  Fe311     1.0  0.90672  0.26259  0.81429  1.0000
  H   H1830     1.0  0.96772  0.46030  0.85592  1.0000
  Fe  Fe312     1.0  0.87188  0.29199  0.82570  1.0000
  S   S624      1.0  0.86738  0.27664  0.85642  1.0000
  S   S625      1.0  0.85046  0.31873  0.81734  1.0000
  Fe  Fe313     1.0  0.89969  0.27356  0.85347  1.0000
  S   S626      1.0  0.91614  0.27380  0.87707  1.0000
  Fe  Fe314     1.0  0.87260  0.24978  0.84360  1.0000
  H   H1831     1.0  0.82477  0.46486  0.67967  1.0000
  S   S627      1.0  0.90367  0.29084  0.82384  1.0000
  S   S628      1.0  0.87524  0.26535  0.81308  1.0000
  Fe  Fe315     1.0  0.81765  0.43010  0.72737  1.0000
  S   S629      1.0  0.84702  0.42024  0.71112  1.0000
  H   H1832     1.0  0.72216  0.37256  0.49170  1.0000
  Fe  Fe316     1.0  0.79989  0.40063  0.71412  1.0000
  S   S630      1.0  0.82839  0.38893  0.69752  1.0000
  S   S631      1.0  0.77503  0.38541  0.71441  1.0000
  Fe  Fe317     1.0  0.84070  0.39056  0.72303  1.0000
  S   S632      1.0  0.86440  0.36732  0.73363  1.0000
  Fe  Fe318     1.0  0.83160  0.41978  0.68754  1.0000
  S   S633      1.0  0.83854  0.43252  0.65626  1.0000
  S   S634      1.0  0.81203  0.40024  0.74074  1.0000
  S   S635      1.0  0.80236  0.43159  0.70275  1.0000
  H   H1833     1.0  0.83820  0.34483  0.71772  1.0000
  C   C1838     1.0  0.87420  0.44527  0.56320  1.0000
  H   H1834     1.0  0.73142  0.44021  0.68418  1.0000
  C   C1839     1.0  0.82302  0.45724  0.76171  1.0000
  H   H1835     1.0  0.68898  0.27770  0.65934  1.0000
  C   C1840     1.0  0.84517  0.47405  0.52481  1.0000
  S   S636      1.0  0.80445  0.44578  0.48385  1.0000
  H   H1836     1.0  0.92400  0.46962  0.59346  1.0000
  C   C1841     1.0  0.85525  0.44823  0.64923  1.0000
  C   C1842     1.0  0.86861  0.44844  0.66063  1.0000
  H   H1837     1.0  0.85862  0.40034  0.75274  1.0000
  C   C1843     1.0  0.92439  0.47411  0.89818  1.0000
  C   C1844     1.0  0.82131  0.44193  0.77707  1.0000
  H   H1838     1.0  0.82697  0.48057  0.55123  1.0000
  H   H1839     1.0  0.86898  0.43858  0.67408  1.0000
  C   C1845     1.0  0.94126  0.47013  0.88483  1.0000
  H   H1840     1.0  0.72355  0.43222  0.65305  1.0000
  C   C1846     1.0  0.72536  0.42745  0.69105  1.0000
  C   C1847     1.0  0.85546  0.33324  0.79474  1.0000
  C   C1848     1.0  0.87259  0.32880  0.78195  1.0000
  C   C1849     1.0  0.87538  0.33969  0.76337  1.0000
  C   C1850     1.0  0.86109  0.35503  0.75751  1.0000
  C   C1851     1.0  0.84422  0.35979  0.77051  1.0000
  C   C1852     1.0  0.84144  0.34895  0.78909  1.0000
  H   H1841     1.0  0.88351  0.31674  0.78622  1.0000
  H   H1842     1.0  0.88852  0.33600  0.75339  1.0000
  H   H1843     1.0  0.83316  0.37160  0.76623  1.0000
  H   H1844     1.0  0.82819  0.35248  0.79899  1.0000
  C   C1853     1.0  0.94513  0.42413  0.86910  1.0000
  C   C1854     1.0  0.92711  0.43611  0.87208  1.0000
  C   C1855     1.0  0.92040  0.44958  0.85688  1.0000
  C   C1856     1.0  0.93160  0.45110  0.83851  1.0000
  C   C1857     1.0  0.94940  0.43868  0.83538  1.0000
  C   C1858     1.0  0.95615  0.42515  0.85064  1.0000
  H   H1845     1.0  0.91853  0.43542  0.88634  1.0000
  H   H1846     1.0  0.90695  0.45931  0.85965  1.0000
  H   H1847     1.0  0.97009  0.41593  0.84821  1.0000
  C   C1859     1.0  0.96047  0.30438  0.89071  1.0000
  C   C1860     1.0  0.95625  0.28676  0.90125  1.0000
  C   C1861     1.0  0.94281  0.27791  0.89658  1.0000
  C   C1862     1.0  0.93329  0.28629  0.88110  1.0000
  C   C1863     1.0  0.93743  0.30399  0.87023  1.0000
  C   C1864     1.0  0.95105  0.31305  0.87504  1.0000
  H   H1848     1.0  0.96330  0.27995  0.91339  1.0000
  H   H1849     1.0  0.93970  0.26439  0.90519  1.0000
  H   H1850     1.0  0.92993  0.31080  0.85842  1.0000
  H   H1851     1.0  0.95406  0.32676  0.86689  1.0000
  H   H1852     1.0  0.81217  0.23548  0.81007  1.0000
  H   H1853     1.0  0.71444  0.42160  0.49822  1.0000
  H   H1854     1.0  0.94853  0.27303  0.81623  1.0000
  H   H1855     1.0  0.86335  0.38441  0.78573  1.0000
  C   C1865     1.0  0.74798  0.38691  0.66166  1.0000
  C   C1866     1.0  0.74673  0.37175  0.67722  1.0000
  C   C1867     1.0  0.75587  0.37091  0.69291  1.0000
  C   C1868     1.0  0.76668  0.38496  0.69306  1.0000
  C   C1869     1.0  0.76879  0.39950  0.67702  1.0000
  C   C1870     1.0  0.75931  0.40058  0.66155  1.0000
  H   H1856     1.0  0.73797  0.36120  0.67761  1.0000
  H   H1857     1.0  0.75410  0.35961  0.70524  1.0000
  H   H1858     1.0  0.77704  0.41041  0.67688  1.0000
  H   H1859     1.0  0.76043  0.41238  0.64963  1.0000
  C   C1871     1.0  0.77264  0.38652  0.59810  1.0000
  C   C1872     1.0  0.66534  0.26260  0.66219  1.0000
  C   C1873     1.0  0.66500  0.41354  0.54622  1.0000
  H   H1860     1.0  0.93428  0.31639  0.93252  1.0000
  H   H1861     1.0  0.80576  0.35912  0.73359  1.0000
  C   C1874     1.0  0.66240  0.35509  0.56390  1.0000
  H   H1862     1.0  0.68175  0.31614  0.59867  1.0000
  Fe  Fe319     1.0  0.80642  0.41409  0.49374  1.0000
  H   H1863     1.0  0.70157  0.27367  0.62555  1.0000
  C   C1875     1.0  0.76580  0.35951  0.55573  1.0000
  C   C1876     1.0  0.75092  0.37428  0.55048  1.0000
  C   C1877     1.0  0.75451  0.38840  0.53433  1.0000
  C   C1878     1.0  0.77316  0.38809  0.52363  1.0000
  C   C1879     1.0  0.78815  0.37331  0.52873  1.0000
  C   C1880     1.0  0.78439  0.35886  0.54469  1.0000
  H   H1864     1.0  0.73658  0.37472  0.55883  1.0000
  H   H1865     1.0  0.74281  0.39970  0.53034  1.0000
  H   H1866     1.0  0.80254  0.37288  0.52033  1.0000
  H   H1867     1.0  0.79593  0.34735  0.54868  1.0000
  C   C1881     1.0  0.68329  0.40042  0.51820  1.0000
  C   C1882     1.0  0.65902  0.30093  0.59831  1.0000
  C   C1883     1.0  0.91320  0.47020  0.56768  1.0000
  C   C1884     1.0  0.67822  0.40205  0.55743  1.0000
  C   C1885     1.0  0.69405  0.38991  0.54896  1.0000
  C   C1886     1.0  0.69675  0.38929  0.52934  1.0000
  C   C1887     1.0  0.68205  0.26970  0.65249  1.0000
  H   H1868     1.0  0.82370  0.43136  0.80684  1.0000
  H   H1869     1.0  0.70421  0.38101  0.55757  1.0000
  H   H1870     1.0  0.70913  0.37992  0.52297  1.0000
  H   H1871     1.0  0.91748  0.39449  0.89052  1.0000
  H   H1872     1.0  0.85766  0.31716  0.73547  1.0000
  H   H1873     1.0  0.93499  0.38305  0.87278  1.0000
  C   C1888     1.0  0.68912  0.26747  0.63346  1.0000
  N   N155      1.0  0.87405  0.42781  0.78569  1.0000
  H   H1874     1.0  0.87564  0.45378  0.79438  1.0000
  C   C1889     1.0  0.85518  0.46070  0.63162  1.0000
  C   C1890     1.0  0.87170  0.43659  0.76745  1.0000
  C   C1891     1.0  0.84343  0.32312  0.74249  1.0000
  H   H1875     1.0  0.87313  0.40229  0.80669  1.0000
  N   N156      1.0  0.83659  0.31588  0.76116  1.0000
  C   C1892     1.0  0.81880  0.32374  0.77008  1.0000
  C   C1893     1.0  0.83246  0.33875  0.73232  1.0000
  C   C1894     1.0  0.80745  0.33941  0.76033  1.0000
  C   C1895     1.0  0.81435  0.34690  0.74131  1.0000
  H   H1876     1.0  0.81347  0.31814  0.78495  1.0000
  H   H1877     1.0  0.84499  0.29900  0.78705  1.0000
  H   H1878     1.0  0.79349  0.34584  0.76749  1.0000
  H   H1879     1.0  0.84438  0.28565  0.76877  1.0000
  H   H1880     1.0  0.76623  0.43383  0.57851  1.0000
  C   C1896     1.0  0.86823  0.47350  0.62550  1.0000
  H   H1881     1.0  0.90962  0.38237  0.87520  1.0000
  S   S637      1.0  0.82937  0.45993  0.52074  1.0000
  C   C1897     1.0  0.86607  0.42687  0.75535  1.0000
  N   N157      1.0  0.71404  0.42053  0.68209  1.0000
  C   C1898     1.0  0.70688  0.40409  0.69050  1.0000
  S   S638      1.0  0.98434  0.36342  0.91100  1.0000
  C   C1899     1.0  0.71105  0.39412  0.70834  1.0000
  H   H1882     1.0  0.70117  0.44532  0.66458  1.0000
  C   C1900     1.0  0.72272  0.40101  0.71749  1.0000
  S   S639      1.0  0.97697  0.31461  0.89885  1.0000
  S   S640      1.0  0.87176  0.47347  0.84745  1.0000
  C   C1901     1.0  0.72305  0.42935  0.48611  1.0000
  H   H1883     1.0  0.70586  0.38078  0.71468  1.0000
  Fe  Fe320     1.0  0.85014  0.40669  0.47972  1.0000
  H   H1884     1.0  0.72685  0.39298  0.73090  1.0000
  C   C1902     1.0  0.70983  0.43084  0.66330  1.0000
  H   H1885     1.0  0.86364  0.43409  0.74111  1.0000
  C   C1903     1.0  0.93510  0.36276  0.91083  1.0000
  H   H1886     1.0  0.86368  0.29887  0.76651  1.0000
  H   H1887     1.0  0.80356  0.38680  0.55563  1.0000
  N   N158      1.0  0.97392  0.27971  0.82190  1.0000
  C   C1904     1.0  0.88050  0.43801  0.79798  1.0000
  H   H1888     1.0  0.94804  0.34456  0.93420  1.0000
  H   H1889     1.0  0.75479  0.37662  0.49419  1.0000
  H   H1890     1.0  0.95820  0.43981  0.82121  1.0000
  C   C1905     1.0  0.84029  0.48253  0.54143  1.0000
  C   C1906     1.0  0.86306  0.40801  0.76195  1.0000
  C   C1907     1.0  0.79289  0.39236  0.56707  1.0000
  C   C1908     1.0  0.92135  0.38178  0.88320  1.0000
  H   H1891     1.0  0.78979  0.42022  0.53511  1.0000
  H   H1892     1.0  0.90054  0.23825  0.89817  1.0000
  C   C1909     1.0  0.93096  0.32991  0.92296  1.0000
  C   C1910     1.0  0.86242  0.47681  0.51227  1.0000
  H   H1893     1.0  0.69843  0.39823  0.68313  1.0000
  H   H1894     1.0  0.66391  0.29932  0.58345  1.0000
  H   H1895     1.0  0.95751  0.47770  0.83770  1.0000
  S   S641      1.0  0.90451  0.24511  0.84372  1.0000
  H   H1896     1.0  0.94466  0.28390  0.83709  1.0000
  H   H1897     1.0  0.74152  0.43516  0.50324  1.0000
  H   H1898     1.0  0.87645  0.44906  0.54727  1.0000
  C   C1911     1.0  0.79254  0.42459  0.54798  1.0000
  H   H1899     1.0  0.73963  0.42277  0.71552  1.0000
  H   H1900     1.0  0.81636  0.42940  0.77533  1.0000
  C   C1912     1.0  0.96057  0.47553  0.85253  1.0000
  H   H1901     1.0  0.89238  0.46111  0.66306  1.0000
  H   H1902     1.0  0.90364  0.44656  0.61345  1.0000
  C   C1913     1.0  0.72991  0.41779  0.70884  1.0000
  Fe  Fe321     1.0  0.98016  0.38595  0.88479  1.0000
  C   C1914     1.0  0.95233  0.24023  0.79575  1.0000
  C   C1915     1.0  0.77208  0.41860  0.57979  1.0000
  C   C1916     1.0  0.97815  0.29452  0.82839  1.0000
  C   C1917     1.0  0.83168  0.45937  0.79754  1.0000
  H   H1903     1.0  0.84501  0.46044  0.62265  1.0000
  C   C1918     1.0  0.91648  0.34854  0.89617  1.0000
  H   H1904     1.0  0.87493  0.42947  0.56707  1.0000
  C   C1919     1.0  0.90289  0.45125  0.59832  1.0000
  H   H1905     1.0  0.88024  0.43580  0.59929  1.0000
  H   H1906     1.0  0.79169  0.36417  0.58438  1.0000
  S   S642      1.0  0.92452  0.46949  0.81975  1.0000
  H   H1907     1.0  0.87410  0.43381  0.81332  1.0000
  C   C1920     1.0  0.88974  0.44518  0.59020  1.0000
  H   H1908     1.0  0.96760  0.30209  0.83854  1.0000
  H   H1909     1.0  0.75452  0.41164  0.60772  1.0000
  N   N159      1.0  0.78564  0.41160  0.56540  1.0000
  S   S643      1.0  0.81696  0.45700  0.73926  1.0000
  H   H1910     1.0  0.89940  0.46841  0.54485  1.0000
  H   H1911     1.0  0.91394  0.31894  0.90804  1.0000
  H   H1912     1.0  0.90815  0.34929  0.88512  1.0000
  S   S644      1.0  0.83672  0.46021  0.82027  1.0000
  S   S645      1.0  0.93073  0.25505  0.79021  1.0000
  C   C1921     1.0  0.84793  0.29899  0.77133  1.0000
  S   S646      1.0  0.83170  0.41086  0.50840  1.0000
  H   H1913     1.0  0.87372  0.45136  0.76230  1.0000
  H   H1914     1.0  0.94136  0.37493  0.91150  1.0000
  Fe  Fe322     1.0  0.83101  0.44254  0.49709  1.0000
  N   N160      1.0  0.92410  0.36401  0.89722  1.0000
  N   N161      1.0  0.88860  0.45127  0.57119  1.0000
  C   C1922     1.0  0.66741  0.41257  0.52667  1.0000
  C   C1923     1.0  0.73817  0.43709  0.48895  1.0000
  C   C1924     1.0  0.78641  0.37952  0.58336  1.0000
  H   H1915     1.0  0.92188  0.48041  0.55874  1.0000
  C   C1925     1.0  0.88186  0.46116  0.65435  1.0000
  H   H1916     1.0  0.66370  0.35583  0.53370  1.0000
  C   C1926     1.0  0.90026  0.46347  0.55991  1.0000
  H   H1917     1.0  0.67447  0.34329  0.56526  1.0000
  C   C1927     1.0  0.67956  0.25804  0.62442  1.0000
  C   C1928     1.0  0.66355  0.31196  0.62636  1.0000
  H   H1918     1.0  0.95664  0.25934  0.83789  1.0000
  H   H1919     1.0  0.89650  0.43494  0.79631  1.0000
  C   C1929     1.0  0.76543  0.40618  0.59637  1.0000
  C   C1930     1.0  0.87123  0.40927  0.79225  1.0000
  H   H1920     1.0  0.70173  0.42298  0.65697  1.0000
  C   C1931     1.0  0.86567  0.39909  0.78050  1.0000
  H   H1921     1.0  0.95296  0.45898  0.88928  1.0000
  N   N162      1.0  0.94270  0.47966  0.86626  1.0000
  H   H1922     1.0  0.76728  0.37671  0.61073  1.0000
  H   H1923     1.0  0.78526  0.43976  0.54807  1.0000
  C   C1932     1.0  0.91442  0.46412  0.58706  1.0000
  C   C1933     1.0  0.83384  0.47447  0.78204  1.0000
  H   H1924     1.0  0.86642  0.47044  0.49943  1.0000
  C   C1934     1.0  0.66287  0.25114  0.63454  1.0000
  C   C1935     1.0  0.96864  0.23926  0.78127  1.0000
  S   S647      1.0  0.98297  0.36486  0.86515  1.0000
  Fe  Fe323     1.0  0.85273  0.48236  0.82496  1.0000
  H   H1925     1.0  0.65962  0.26486  0.67681  1.0000
  H   H1926     1.0  0.80830  0.42423  0.54653  1.0000
  C   C1936     1.0  0.88161  0.47383  0.63681  1.0000
  Fe  Fe324     1.0  0.65893  0.40351  0.48270  1.0000
  H   H1927     1.0  0.78929  0.37133  0.47981  1.0000
  H   H1928     1.0  0.68455  0.25679  0.60943  1.0000
  H   H1929     1.0  0.79002  0.24123  0.86265  1.0000
  H   H1930     1.0  0.98404  0.25838  0.80413  1.0000
  H   H1931     1.0  0.92314  0.46623  0.91277  1.0000
  H   H1932     1.0  0.84263  0.46628  0.69275  1.0000
  C   C1937     1.0  0.98739  0.27010  0.80923  1.0000
  H   H1933     1.0  0.86839  0.48251  0.61166  1.0000
  C   C1938     1.0  0.83046  0.47495  0.68578  1.0000
  C   C1939     1.0  0.75179  0.37573  0.48034  1.0000
  H   H1934     1.0  0.81904  0.48089  0.69701  1.0000
  Fe  Fe325     1.0  0.98899  0.34250  0.89067  1.0000
  C   C1940     1.0  0.73327  0.37362  0.47903  1.0000
  C   C1941     1.0  0.97311  0.70936  0.98542  1.0000
  S   S648      1.0  0.82110  0.60804  0.98900  1.0000
  H   H1935     1.0  0.87300  0.67181  0.02521  1.0000
  H   H1936     1.0  0.85612  0.60376  0.00566  1.0000
  S   S649      1.0  0.94596  0.67567  0.00306  1.0000
  S   S650      1.0  0.95150  0.70261  0.04126  1.0000
  H   H1937     1.0  0.68967  0.67505  0.08026  1.0000
  C   C1942     1.0  0.67180  0.55082  0.27979  1.0000
  S   S651      1.0  0.77439  0.69358  0.07895  1.0000
  Fe  Fe326     1.0  0.72808  0.70178  0.05589  1.0000
  S   S652      1.0  0.74605  0.67262  0.06250  1.0000
  S   S653      1.0  0.69854  0.70508  0.04759  1.0000
  Fe  Fe327     1.0  0.74675  0.68178  0.09010  1.0000
  S   S654      1.0  0.74107  0.66143  0.11819  1.0000
  Fe  Fe328     1.0  0.77156  0.68749  0.05064  1.0000
  S   S655      1.0  0.79848  0.68052  0.02921  1.0000
  S   S656      1.0  0.72770  0.71042  0.08416  1.0000
  S   S657      1.0  0.98820  0.66777  0.03637  1.0000
  C   C1943     1.0  0.88673  0.62525  0.01904  1.0000
  H   H1938     1.0  0.83951  0.63257  0.01736  1.0000
  C   C1944     1.0  0.92256  0.62981  0.98302  1.0000
  Fe  Fe329     1.0  0.97512  0.65344  0.06561  1.0000
  C   C1945     1.0  0.88823  0.64327  0.02219  1.0000
  Fe  Fe330     1.0  0.95747  0.67442  0.03061  1.0000
  H   H1939     1.0  0.88396  0.71887  0.11279  1.0000
  C   C1946     1.0  0.93669  0.65768  0.99615  1.0000
  C   C1947     1.0  0.83220  0.70019  0.07253  1.0000
  H   H1940     1.0  0.69253  0.56193  0.25624  1.0000
  Fe  Fe331     1.0  0.75529  0.72166  0.07083  1.0000
  H   H1941     1.0  0.77974  0.72747  0.10398  1.0000
  Fe  Fe332     1.0  0.98076  0.69440  0.05007  1.0000
  C   C1948     1.0  0.71668  0.66208  0.12919  1.0000
  C   C1949     1.0  0.71186  0.64989  0.14667  1.0000
  C   C1950     1.0  0.69240  0.64895  0.15469  1.0000
  C   C1951     1.0  0.67774  0.66025  0.14519  1.0000
  C   C1952     1.0  0.68255  0.67288  0.12811  1.0000
  C   C1953     1.0  0.70193  0.67374  0.12009  1.0000
  H   H1942     1.0  0.72323  0.64084  0.15378  1.0000
  H   H1943     1.0  0.68880  0.63916  0.16789  1.0000
  N   N163      1.0  0.69489  0.64538  0.09185  1.0000
  H   H1944     1.0  0.70543  0.68302  0.10658  1.0000
  C   C1954     1.0  0.69310  0.69380  0.03027  1.0000
  C   C1955     1.0  0.70700  0.68847  0.01473  1.0000
  C   C1956     1.0  0.70164  0.68141  0.00024  1.0000
  C   C1957     1.0  0.68250  0.67900  0.00140  1.0000
  H   H1945     1.0  0.93960  0.60918  0.00180  1.0000
  C   C1958     1.0  0.89583  0.72667  0.10769  1.0000
  H   H1946     1.0  0.72172  0.69044  0.01348  1.0000
  H   H1947     1.0  0.94033  0.72343  0.07962  1.0000
  H   H1948     1.0  0.95166  0.63357  0.01349  1.0000
  C   C1959     1.0  0.68078  0.62614  0.12057  1.0000
  C   C1960     1.0  0.80082  0.66132  0.01711  1.0000
  C   C1961     1.0  0.79481  0.64404  0.02650  1.0000
  C   C1962     1.0  0.80011  0.62783  0.01740  1.0000
  C   C1963     1.0  0.81126  0.62898  0.99892  1.0000
  C   C1964     1.0  0.81102  0.66268  0.99828  1.0000
  H   H1949     1.0  0.78702  0.64289  0.04110  1.0000
  H   H1950     1.0  0.79634  0.61420  0.02503  1.0000
  C   C1965     1.0  0.66878  0.68361  0.01735  1.0000
  H   H1951     1.0  0.67682  0.70333  0.19493  1.0000
  C   C1966     1.0  0.71298  0.63720  0.09560  1.0000
  S   S658      1.0  0.91250  0.69775  0.08735  1.0000
  H   H1952     1.0  0.66519  0.68118  0.25367  1.0000
  C   C1967     1.0  0.85328  0.63558  0.01843  1.0000
  C   C1968     1.0  0.86831  0.60288  0.01319  1.0000
  C   C1969     1.0  0.67401  0.69123  0.03154  1.0000
  H   H1953     1.0  0.84134  0.66481  0.02238  1.0000
  C   C1970     1.0  0.81590  0.64667  0.98911  1.0000
  H   H1954     1.0  0.89951  0.61415  0.01807  1.0000
  C   C1971     1.0  0.67889  0.64017  0.10418  1.0000
  Fe  Fe333     1.0  0.94087  0.68611  0.06989  1.0000
  S   S659      1.0  0.94506  0.65844  0.05896  1.0000
  H   H1955     1.0  0.88169  0.59702  0.00379  1.0000
  H   H1956     1.0  0.70559  0.66042  0.06408  1.0000
  H   H1957     1.0  0.72566  0.64199  0.08643  1.0000
  H   H1958     1.0  0.68251  0.54411  0.28877  1.0000
  S   S660      1.0  0.96954  0.67958  0.07950  1.0000
  S   S661      1.0  0.98653  0.62434  0.08179  1.0000
  H   H1959     1.0  0.87014  0.70679  0.08988  1.0000
  C   C1972     1.0  0.66371  0.57006  0.24987  1.0000
  C   C1973     1.0  0.85679  0.71039  0.08416  1.0000
  C   C1974     1.0  0.94197  0.63810  0.00319  1.0000
  C   C1975     1.0  0.92772  0.72908  0.08925  1.0000
  H   H1960     1.0  0.86628  0.59276  0.02698  1.0000
  H   H1961     1.0  0.90206  0.64610  0.02353  1.0000
  H   H1962     1.0  0.71235  0.67800  0.98793  1.0000
  H   H1963     1.0  0.67125  0.68168  0.12073  1.0000
  H   H1964     1.0  0.70084  0.60733  0.13747  1.0000
  C   C1976     1.0  0.85424  0.65380  0.02146  1.0000
  H   H1965     1.0  0.68027  0.66010  0.06871  1.0000
  S   S662      1.0  0.75356  0.71613  0.04182  1.0000
  N   N164      1.0  0.86951  0.62179  0.01669  1.0000
  C   C1977     1.0  0.84944  0.69572  0.07976  1.0000
  H   H1966     1.0  0.81561  0.67604  0.99092  1.0000
  C   C1978     1.0  0.97637  0.72363  0.99401  1.0000
  C   C1979     1.0  0.67746  0.56095  0.26142  1.0000
  H   H1967     1.0  0.66455  0.55539  0.98338  1.0000
  C   C1980     1.0  0.87191  0.65769  0.02315  1.0000
  C   C1981     1.0  0.93514  0.62428  0.99647  1.0000
  H   H1968     1.0  0.66591  0.68383  0.17630  1.0000
  C   C1982     1.0  0.91217  0.71917  0.09535  1.0000
  C   C1983     1.0  0.69249  0.66094  0.07545  1.0000
  N   N165      1.0  0.84725  0.72898  0.08137  1.0000
  C   C1984     1.0  0.71540  0.62316  0.11186  1.0000
  H   H1969     1.0  0.85705  0.68100  0.08213  1.0000
  H   H1970     1.0  0.72976  0.61736  0.11515  1.0000
  S   S663      1.0  0.67151  0.58262  0.22691  1.0000
  H   H1971     1.0  0.66766  0.71396  0.22895  1.0000
  C   C1985     1.0  0.92421  0.66321  0.98260  1.0000
  C   C1986     1.0  0.69918  0.61761  0.12440  1.0000
  H   H1972     1.0  0.66309  0.69548  0.04338  1.0000
  H   H1973     1.0  0.66230  0.52417  0.00546  1.0000
  C   C1987     1.0  0.82265  0.71922  0.06963  1.0000
  C   C1988     1.0  0.98708  0.69288  0.98379  1.0000
  H   H1974     1.0  0.82615  0.68898  0.06927  1.0000
  H   H1975     1.0  0.66454  0.64738  0.10179  1.0000
  H   H1976     1.0  0.66425  0.53367  0.23009  1.0000
  H   H1977     1.0  0.66805  0.62267  0.13073  1.0000
  H   H1978     1.0  0.95951  0.71071  0.98061  1.0000
  H   H1979     1.0  0.80910  0.72287  0.06425  1.0000
  C   C1989     1.0  0.66172  0.70196  0.19766  1.0000
  S   S664      1.0  0.67607  0.67227  0.98163  1.0000
  S   S665      1.0  0.65884  0.72808  0.32050  1.0000
  H   H1980     1.0  0.98426  0.68140  0.97779  1.0000
  Fe  Fe334     1.0  0.87326  0.59814  0.93015  1.0000
  S   S666      1.0  0.89078  0.62159  0.92629  1.0000
  S   S667      1.0  0.87859  0.58427  0.90341  1.0000
  C   C1990     1.0  0.92982  0.73148  0.56828  1.0000
  C   C1991     1.0  0.89799  0.61985  0.58687  1.0000
  C   C1992     1.0  0.83628  0.66341  0.85228  1.0000
  Fe  Fe335     1.0  0.86197  0.64044  0.93256  1.0000
  S   S668      1.0  0.85381  0.66921  0.91435  1.0000
  N   N166      1.0  0.68034  0.67918  0.92549  1.0000
  C   C1993     1.0  0.92555  0.62691  0.66388  1.0000
  S   S669      1.0  0.84462  0.61762  0.93520  1.0000
  H   H1981     1.0  0.84845  0.49998  0.55832  1.0000
  Fe  Fe336     1.0  0.76472  0.66761  0.87153  1.0000
  S   S670      1.0  0.78139  0.63789  0.87144  1.0000
  S   S671      1.0  0.77427  0.68912  0.88415  1.0000
  Fe  Fe337     1.0  0.73374  0.66029  0.85302  1.0000
  S   S672      1.0  0.74822  0.62966  0.85145  1.0000
  S   S673      1.0  0.70572  0.66977  0.84156  1.0000
  Fe  Fe338     1.0  0.75265  0.62877  0.88130  1.0000
  S   S674      1.0  0.75208  0.60262  0.90434  1.0000
  Fe  Fe339     1.0  0.77566  0.64161  0.84153  1.0000
  S   S675      1.0  0.80124  0.62822  0.82156  1.0000
  S   S676      1.0  0.73611  0.65834  0.88382  1.0000
  S   S677      1.0  0.76103  0.67241  0.84067  1.0000
  H   H1982     1.0  0.79385  0.60431  0.95633  1.0000
  H   H1983     1.0  0.81840  0.65292  0.83784  1.0000
  H   H1984     1.0  0.82372  0.64800  0.97459  1.0000
  H   H1985     1.0  0.82411  0.51903  0.63015  1.0000
  Fe  Fe340     1.0  0.88975  0.61517  0.95830  1.0000
  H   H1986     1.0  0.65865  0.67066  0.89177  1.0000
  H   H1987     1.0  0.79709  0.54990  0.90702  1.0000
  S   S678      1.0  0.95639  0.62195  0.61325  1.0000
  C   C1994     1.0  0.69827  0.67263  0.93331  1.0000
  C   C1995     1.0  0.85786  0.51363  0.65813  1.0000
  C   C1996     1.0  0.86959  0.49652  0.53283  1.0000
  Fe  Fe341     1.0  0.88520  0.52389  0.56322  1.0000
  S   S679      1.0  0.91252  0.51724  0.57583  1.0000
  S   S680      1.0  0.88591  0.50976  0.53742  1.0000
  Fe  Fe342     1.0  0.86495  0.54937  0.59313  1.0000
  S   S681      1.0  0.89030  0.54407  0.60800  1.0000
  S   S682      1.0  0.83649  0.56672  0.60412  1.0000
  Fe  Fe343     1.0  0.90750  0.54859  0.57825  1.0000
  S   S683      1.0  0.93061  0.56760  0.56811  1.0000
  Fe  Fe344     1.0  0.89272  0.51352  0.60432  1.0000
  S   S684      1.0  0.88173  0.55569  0.56330  1.0000
  S   S685      1.0  0.86586  0.51854  0.59170  1.0000
  H   H1988     1.0  0.81659  0.68341  0.69500  1.0000
  H   H1989     1.0  0.85196  0.53301  0.63222  1.0000
  C   C1997     1.0  0.98494  0.56918  0.59300  1.0000
  Fe  Fe345     1.0  0.86251  0.50341  0.85433  1.0000
  S   S686      1.0  0.88595  0.51542  0.83257  1.0000
  S   S687      1.0  0.85680  0.50982  0.88484  1.0000
  Fe  Fe346     1.0  0.86478  0.52144  0.81243  1.0000
  S   S688      1.0  0.85472  0.55127  0.79723  1.0000
  S   S689      1.0  0.67285  0.59129  0.95968  1.0000
  S   S690      1.0  0.84068  0.51082  0.83465  1.0000
  H   H1990     1.0  0.83055  0.48545  0.75257  1.0000
  Fe  Fe347     1.0  0.84096  0.64304  0.71332  1.0000
  S   S691      1.0  0.87268  0.64386  0.70342  1.0000
  S   S692      1.0  0.81975  0.66173  0.73258  1.0000
  Fe  Fe348     1.0  0.84117  0.61392  0.68833  1.0000
  S   S693      1.0  0.87262  0.61219  0.67616  1.0000
  S   S694      1.0  0.82038  0.59757  0.68260  1.0000
  Fe  Fe349     1.0  0.87589  0.61183  0.70636  1.0000
  S   S695      1.0  0.89906  0.58981  0.71880  1.0000
  Fe  Fe350     1.0  0.86673  0.64425  0.67411  1.0000
  S   S696      1.0  0.87914  0.66228  0.64675  1.0000
  S   S697      1.0  0.84475  0.61100  0.71878  1.0000
  S   S698      1.0  0.83481  0.64606  0.68358  1.0000
  C   C1998     1.0  0.86927  0.56179  0.77678  1.0000
  C   C1999     1.0  0.88487  0.55092  0.76640  1.0000
  C   C2000     1.0  0.89469  0.55968  0.74886  1.0000
  C   C2001     1.0  0.88876  0.57919  0.74175  1.0000
  C   C2002     1.0  0.87365  0.59007  0.75255  1.0000
  C   C2003     1.0  0.86396  0.58141  0.76999  1.0000
  H   H1991     1.0  0.88903  0.53574  0.77158  1.0000
  H   H1992     1.0  0.90644  0.55123  0.74054  1.0000
  H   H1993     1.0  0.86943  0.60525  0.74744  1.0000
  H   H1994     1.0  0.85216  0.58994  0.77813  1.0000
  C   C2004     1.0  0.83296  0.57456  0.62624  1.0000
  C   C2005     1.0  0.84840  0.57561  0.63476  1.0000
  C   C2006     1.0  0.84480  0.58298  0.65195  1.0000
  C   C2007     1.0  0.82576  0.58877  0.66087  1.0000
  C   C2008     1.0  0.81044  0.58719  0.65259  1.0000
  C   C2009     1.0  0.81403  0.58040  0.63522  1.0000
  H   H1995     1.0  0.86307  0.57127  0.62790  1.0000
  H   H1996     1.0  0.85671  0.58395  0.65842  1.0000
  H   H1997     1.0  0.79571  0.59155  0.65945  1.0000
  H   H1998     1.0  0.80204  0.57965  0.62873  1.0000
  H   H1999     1.0  0.71098  0.67132  0.92160  1.0000
  S   S699      1.0  0.97076  0.67378  0.59785  1.0000
  Fe  Fe351     1.0  0.98673  0.67592  0.56769  1.0000
  C   C2010     1.0  0.66520  0.70348  0.79031  1.0000
  C   C2011     1.0  0.94851  0.60751  0.60048  1.0000
  C   C2012     1.0  0.95371  0.60913  0.58055  1.0000
  C   C2013     1.0  0.94783  0.59698  0.57090  1.0000
  C   C2014     1.0  0.93658  0.58316  0.58100  1.0000
  C   C2015     1.0  0.93094  0.58185  0.60089  1.0000
  C   C2016     1.0  0.93689  0.59398  0.61057  1.0000
  H   H2000     1.0  0.82984  0.67839  0.84849  1.0000
  H   H2001     1.0  0.95215  0.59820  0.55550  1.0000
  H   H2002     1.0  0.92225  0.57130  0.60885  1.0000
  H   H2003     1.0  0.93267  0.59266  0.62598  1.0000
  H   H2004     1.0  0.79972  0.60532  0.77823  1.0000
  C   C2017     1.0  0.87105  0.71202  0.66696  1.0000
  C   C2018     1.0  0.87223  0.69265  0.66597  1.0000
  C   C2019     1.0  0.87800  0.68644  0.64828  1.0000
  C   C2020     1.0  0.88290  0.69963  0.63163  1.0000
  C   C2021     1.0  0.66823  0.68760  0.84783  1.0000
  H   H2005     1.0  0.86650  0.71675  0.68070  1.0000
  H   H2006     1.0  0.86851  0.68258  0.67890  1.0000
  H   H2007     1.0  0.88753  0.69488  0.61791  1.0000
  H   H2008     1.0  0.91061  0.63031  0.66076  1.0000
  C   C2022     1.0  0.96198  0.65971  0.64872  1.0000
  C   C2023     1.0  0.85208  0.49834  0.67203  1.0000
  H   H2009     1.0  0.95206  0.70866  0.57801  1.0000
  C   C2024     1.0  0.80617  0.63798  0.79694  1.0000
  C   C2025     1.0  0.79425  0.65413  0.78868  1.0000
  C   C2026     1.0  0.79859  0.66134  0.76892  1.0000
  C   C2027     1.0  0.81469  0.65231  0.75730  1.0000
  C   C2028     1.0  0.82653  0.63610  0.76557  1.0000
  C   C2029     1.0  0.82237  0.62909  0.78537  1.0000
  H   H2010     1.0  0.78173  0.66109  0.79749  1.0000
  H   H2011     1.0  0.78938  0.67390  0.76261  1.0000
  H   H2012     1.0  0.83907  0.62915  0.75679  1.0000
  H   H2013     1.0  0.83174  0.61671  0.79173  1.0000
  C   C2030     1.0  0.68665  0.68606  0.85207  1.0000
  C   C2031     1.0  0.68952  0.69794  0.86379  1.0000
  C   C2032     1.0  0.67402  0.71168  0.87078  1.0000
  C   C2033     1.0  0.87448  0.48802  0.51624  1.0000
  N   N167      1.0  0.93417  0.64431  0.65949  1.0000
  C   C2034     1.0  0.81946  0.69787  0.68955  1.0000
  H   H2014     1.0  0.70373  0.69688  0.86707  1.0000
  H   H2015     1.0  0.83219  0.55756  0.83223  1.0000
  C   C2035     1.0  0.98547  0.72803  0.58492  1.0000
  H   H2016     1.0  0.97847  0.72951  0.61508  1.0000
  C   C2036     1.0  0.72977  0.60017  0.91942  1.0000
  C   C2037     1.0  0.71383  0.61517  0.91927  1.0000
  C   C2038     1.0  0.69631  0.61272  0.93175  1.0000
  C   C2039     1.0  0.69465  0.59521  0.94420  1.0000
  C   C2040     1.0  0.71057  0.58024  0.94411  1.0000
  C   C2041     1.0  0.72811  0.58278  0.93193  1.0000
  H   H2017     1.0  0.71496  0.62855  0.90950  1.0000
  H   H2018     1.0  0.68397  0.62415  0.93133  1.0000
  H   H2019     1.0  0.70939  0.56666  0.95359  1.0000
  H   H2020     1.0  0.74034  0.57112  0.93208  1.0000
  C   C2042     1.0  0.87190  0.56359  0.89892  1.0000
  C   C2043     1.0  0.86381  0.55009  0.91354  1.0000
  C   C2044     1.0  0.85936  0.53362  0.90907  1.0000
  C   C2045     1.0  0.86273  0.53062  0.88997  1.0000
  C   C2046     1.0  0.87049  0.54431  0.87537  1.0000
  C   C2047     1.0  0.87514  0.56060  0.87984  1.0000
  H   H2021     1.0  0.86130  0.55216  0.92829  1.0000
  H   H2022     1.0  0.85332  0.52315  0.92049  1.0000
  H   H2023     1.0  0.87303  0.54237  0.86059  1.0000
  H   H2024     1.0  0.88144  0.57091  0.86842  1.0000
  C   C2048     1.0  0.83169  0.67405  0.90606  1.0000
  C   C2049     1.0  0.82290  0.69317  0.90119  1.0000
  C   C2050     1.0  0.80537  0.69758  0.89438  1.0000
  C   C2051     1.0  0.79671  0.68293  0.89189  1.0000
  C   C2052     1.0  0.80565  0.66376  0.89643  1.0000
  C   C2053     1.0  0.82301  0.65933  0.90365  1.0000
  H   H2025     1.0  0.82956  0.70465  0.90289  1.0000
  H   H2026     1.0  0.79853  0.71244  0.89095  1.0000
  H   H2027     1.0  0.79906  0.65232  0.89478  1.0000
  H   H2028     1.0  0.82990  0.64457  0.90675  1.0000
  C   C2054     1.0  0.68195  0.72419  0.80029  1.0000
  S   S700      1.0  0.87455  0.58988  0.96188  1.0000
  H   H2029     1.0  0.91757  0.64261  0.59447  1.0000
  H   H2030     1.0  0.85961  0.59739  0.59295  1.0000
  C   C2055     1.0  0.93076  0.67822  0.65891  1.0000
  C   C2056     1.0  0.85204  0.62517  0.86339  1.0000
  H   H2031     1.0  0.83248  0.61869  0.84763  1.0000
  C   C2057     1.0  0.66047  0.67660  0.90368  1.0000
  H   H2032     1.0  0.86649  0.62785  0.89586  1.0000
  H   H2033     1.0  0.90965  0.63508  0.61966  1.0000
  H   H2034     1.0  0.97734  0.65889  0.64325  1.0000
  H   H2035     1.0  0.86014  0.49253  0.68365  1.0000
  Fe  Fe352     1.0  0.89396  0.48602  0.82450  1.0000
  C   C2058     1.0  0.87513  0.72539  0.65025  1.0000
  N   N168      1.0  0.78430  0.65250  0.94223  1.0000
  H   H2036     1.0  0.69205  0.72580  0.80879  1.0000
  C   C2059     1.0  0.77028  0.65382  0.93163  1.0000
  H   H2037     1.0  0.89912  0.50899  0.86922  1.0000
  C   C2060     1.0  0.76451  0.63723  0.92941  1.0000
  H   H2038     1.0  0.80598  0.66793  0.94347  1.0000
  C   C2061     1.0  0.79000  0.66989  0.94499  1.0000
  Fe  Fe353     1.0  0.84735  0.61183  0.96610  1.0000
  H   H2039     1.0  0.76371  0.66770  0.92453  1.0000
  H   H2040     1.0  0.75358  0.63818  0.92082  1.0000
  H   H2041     1.0  0.92160  0.69182  0.66133  1.0000
  C   C2062     1.0  0.94607  0.71689  0.56572  1.0000
  C   C2063     1.0  0.83199  0.51324  0.64194  1.0000
  C   C2064     1.0  0.91091  0.49803  0.87366  1.0000
  S   S701      1.0  0.87547  0.49351  0.80152  1.0000
  C   C2065     1.0  0.95046  0.67732  0.65167  1.0000
  N   N169      1.0  0.82206  0.57264  0.74973  1.0000
  C   C2066     1.0  0.81701  0.58129  0.76560  1.0000
  C   C2067     1.0  0.81395  0.58059  0.73376  1.0000
  C   C2068     1.0  0.80355  0.59838  0.76571  1.0000
  C   C2069     1.0  0.80051  0.59773  0.73334  1.0000
  C   C2070     1.0  0.79545  0.60676  0.74938  1.0000
  C   C2071     1.0  0.83728  0.55558  0.74927  1.0000
  H   H2042     1.0  0.82360  0.57513  0.77819  1.0000
  H   H2043     1.0  0.81834  0.57407  0.72095  1.0000
  H   H2044     1.0  0.88526  0.62294  0.87583  1.0000
  H   H2045     1.0  0.79463  0.60426  0.72037  1.0000
  H   H2046     1.0  0.78552  0.62038  0.74906  1.0000
  H   H2047     1.0  0.85146  0.56005  0.74289  1.0000
  H   H2048     1.0  0.83822  0.54728  0.76394  1.0000
  H   H2049     1.0  0.83451  0.54577  0.74066  1.0000
  H   H2050     1.0  0.84894  0.61563  0.62001  1.0000
  H   H2051     1.0  0.78708  0.58105  0.88739  1.0000
  C   C2072     1.0  0.82669  0.49784  0.65600  1.0000
  H   H2052     1.0  0.95373  0.72197  0.51708  1.0000
  H   H2053     1.0  0.82112  0.55535  0.90385  1.0000
  H   H2054     1.0  0.80365  0.63393  0.95946  1.0000
  C   C2073     1.0  0.78714  0.61813  0.94922  1.0000
  C   C2074     1.0  0.67792  0.67153  0.91060  1.0000
  H   H2055     1.0  0.76853  0.60635  0.93679  1.0000
  S   S702      1.0  0.97669  0.69739  0.54299  1.0000
  H   H2056     1.0  0.87928  0.64649  0.88231  1.0000
  C   C2075     1.0  0.82948  0.73001  0.64218  1.0000
  H   H2057     1.0  0.80794  0.58728  0.82671  1.0000
  H   H2058     1.0  0.78335  0.67306  0.95955  1.0000
  H   H2059     1.0  0.66731  0.69746  0.94609  1.0000
  C   C2076     1.0  0.84766  0.52114  0.64307  1.0000
  N   N170      1.0  0.83676  0.49055  0.67076  1.0000
  S   S703      1.0  0.86255  0.63638  0.96406  1.0000
  C   C2077     1.0  0.90912  0.48815  0.89249  1.0000
  H   H2060     1.0  0.83338  0.53980  0.86505  1.0000
  H   H2061     1.0  0.78524  0.59905  0.85454  1.0000
  H   H2062     1.0  0.81768  0.53349  0.89786  1.0000
  H   H2063     1.0  0.93387  0.61613  0.65492  1.0000
  H   H2064     1.0  0.81803  0.70412  0.71763  1.0000
  H   H2065     1.0  0.92507  0.62040  0.67929  1.0000
  N   N171      1.0  0.82633  0.72305  0.66295  1.0000
  C   C2078     1.0  0.94702  0.72447  0.53141  1.0000
  H   H2066     1.0  0.85561  0.66943  0.86821  1.0000
  C   C2079     1.0  0.85244  0.49359  0.54549  1.0000
  H   H2067     1.0  0.89146  0.59983  0.57183  1.0000
  H   H2068     1.0  0.95687  0.69019  0.64839  1.0000
  H   H2069     1.0  0.87024  0.63573  0.62590  1.0000
  H   H2070     1.0  0.89648  0.65624  0.60679  1.0000
  H   H2071     1.0  0.96243  0.61959  0.57254  1.0000
  C   C2080     1.0  0.77298  0.61930  0.93832  1.0000
  C   C2081     1.0  0.82972  0.64911  0.84649  1.0000
  H   H2072     1.0  0.91170  0.62101  0.57743  1.0000
  H   H2073     1.0  0.82251  0.69542  0.66000  1.0000
  C   C2082     1.0  0.83763  0.62985  0.85204  1.0000
  H   H2074     1.0  0.70029  0.68282  0.94197  1.0000
  H   H2075     1.0  0.85794  0.61016  0.86802  1.0000
  C   C2083     1.0  0.82368  0.72824  0.69520  1.0000
  H   H2076     1.0  0.66588  0.67834  0.83891  1.0000
  C   C2084     1.0  0.88650  0.60797  0.58352  1.0000
  C   C2085     1.0  0.82267  0.70481  0.66980  1.0000
  H   H2077     1.0  0.90768  0.66212  0.66904  1.0000
  C   C2086     1.0  0.79263  0.63497  0.95102  1.0000
  C   C2087     1.0  0.95355  0.64325  0.65269  1.0000
  H   H2078     1.0  0.67629  0.72110  0.87957  1.0000
  C   C2088     1.0  0.86872  0.60650  0.59544  1.0000
  C   C2089     1.0  0.98627  0.56530  0.57464  1.0000
  C   C2090     1.0  0.87482  0.62809  0.61385  1.0000
  C   C2091     1.0  0.90458  0.64146  0.60584  1.0000
  C   C2092     1.0  0.87316  0.63396  0.88121  1.0000
  N   N172      1.0  0.89216  0.62960  0.60197  1.0000
  H   H2079     1.0  0.69774  0.65847  0.94290  1.0000
  C   C2093     1.0  0.88136  0.71912  0.63259  1.0000
  H   H2080     1.0  0.96257  0.62966  0.65009  1.0000
  N   N173      1.0  0.85859  0.63932  0.86875  1.0000
  Fe  Fe354     1.0  0.97793  0.64185  0.59862  1.0000
  C   C2094     1.0  0.86276  0.61670  0.61064  1.0000
  H   H2081     1.0  0.88770  0.49014  0.50633  1.0000
  C   C2095     1.0  0.85089  0.65824  0.86340  1.0000
  C   C2096     1.0  0.92289  0.66141  0.66305  1.0000
  C   C2097     1.0  0.95489  0.71360  0.54722  1.0000
  H   H2082     1.0  0.68945  0.66133  0.90405  1.0000
  N   N174      1.0  0.81016  0.55922  0.87814  1.0000
  C   C2098     1.0  0.82276  0.55276  0.86289  1.0000
  C   C2099     1.0  0.79692  0.57575  0.87531  1.0000
  C   C2100     1.0  0.82214  0.56275  0.84423  1.0000
  C   C2101     1.0  0.79581  0.58602  0.85678  1.0000
  C   C2102     1.0  0.80853  0.57943  0.84117  1.0000
  C   C2103     1.0  0.81155  0.54901  0.89769  1.0000
  H   H2083     1.0  0.90730  0.65392  0.96595  1.0000
  H   H2084     1.0  0.87036  0.51943  0.65882  1.0000
  H   H2085     1.0  0.83923  0.71881  0.63453  1.0000
  H   H2086     1.0  0.78557  0.68253  0.93411  1.0000
  H   H2087     1.0  0.66207  0.68932  0.79086  1.0000
  H   H2088     1.0  0.68696  0.69326  0.80825  1.0000
  C   C2104     1.0  0.67898  0.70572  0.80022  1.0000
  H   H2089     1.0  0.89585  0.49139  0.90258  1.0000
  H   H2090     1.0  0.88455  0.72934  0.61960  1.0000
  H   H2091     1.0  0.83854  0.48711  0.78387  1.0000
  H   H2092     1.0  0.97777  0.55550  0.57237  1.0000
  H   H2093     1.0  0.97545  0.56238  0.60504  1.0000
  H   H2094     1.0  0.98898  0.73008  0.55442  1.0000
  H   H2095     1.0  0.97065  0.48508  0.85282  1.0000
  C   C2105     1.0  0.66565  0.69184  0.93389  1.0000
  H   H2096     1.0  0.81458  0.49164  0.65496  1.0000
  C   C2106     1.0  0.92787  0.49357  0.86061  1.0000
  C   C2107     1.0  0.82014  0.70960  0.70229  1.0000
  H   H2097     1.0  0.92894  0.50104  0.84586  1.0000
  S   S704      1.0  0.89859  0.48934  0.62893  1.0000
  C   C2108     1.0  0.91697  0.64941  0.97626  1.0000
  H   H2098     1.0  0.92009  0.67829  0.97696  1.0000
  S   S705      1.0  0.91374  0.61169  0.97578  1.0000
  H   H2099     1.0  0.95194  0.76465  0.11645  1.0000
  C   C2109     1.0  0.86776  0.95996  0.41530  1.0000
  C   C2110     1.0  0.85978  0.94901  0.37087  1.0000
  Fe  Fe355     1.0  0.83692  0.79050  0.11800  1.0000
  S   S706      1.0  0.85325  0.78925  0.14190  1.0000
  S   S707      1.0  0.81926  0.76675  0.12118  1.0000
  Fe  Fe356     1.0  0.85630  0.82327  0.09308  1.0000
  S   S708      1.0  0.87397  0.82433  0.11464  1.0000
  S   S709      1.0  0.85837  0.84281  0.06440  1.0000
  Fe  Fe357     1.0  0.87889  0.79218  0.11825  1.0000
  Fe  Fe358     1.0  0.84689  0.82178  0.13616  1.0000
  S   S710      1.0  0.83514  0.84307  0.15702  1.0000
  S   S711      1.0  0.86319  0.79138  0.09495  1.0000
  S   S712      1.0  0.82848  0.82276  0.11411  1.0000
  Fe  Fe359     1.0  0.96202  0.89047  0.08955  1.0000
  S   S713      1.0  0.96473  0.90475  0.05879  1.0000
  S   S714      1.0  0.94832  0.90866  0.11247  1.0000
  Fe  Fe360     1.0  0.95239  0.88034  0.05477  1.0000
  S   S715      1.0  0.92938  0.88634  0.03659  1.0000
  H   H2100     1.0  0.87605  0.87120  0.24146  1.0000
  C   C2111     1.0  0.95414  0.98016  0.06345  1.0000
  H   H2101     1.0  0.68815  0.75688  0.34601  1.0000
  Fe  Fe361     1.0  0.86061  0.91193  0.21577  1.0000
  S   S716      1.0  0.82956  0.91115  0.22830  1.0000
  S   S717      1.0  0.87667  0.89053  0.19621  1.0000
  Fe  Fe362     1.0  0.86095  0.94693  0.23466  1.0000
  S   S718      1.0  0.82969  0.94821  0.24799  1.0000
  C   C2112     1.0  0.86665  0.97966  0.40776  1.0000
  Fe  Fe363     1.0  0.83707  0.91613  0.25511  1.0000
  S   S719      1.0  0.82921  0.89928  0.28466  1.0000
  Fe  Fe364     1.0  0.82572  0.94325  0.21971  1.0000
  S   S720      1.0  0.80078  0.95940  0.20540  1.0000
  S   S721      1.0  0.86880  0.91483  0.24339  1.0000
  S   S722      1.0  0.85642  0.94386  0.20559  1.0000
  H   H2102     1.0  0.68039  0.81673  0.32113  1.0000
  H   H2103     1.0  0.93774  0.84926  0.01832  1.0000
  Fe  Fe365     1.0  0.74026  0.86222  0.34197  1.0000
  S   S723      1.0  0.75898  0.83681  0.35632  1.0000
  S   S724      1.0  0.74782  0.87264  0.31010  1.0000
  Fe  Fe366     1.0  0.70952  0.86386  0.37856  1.0000
  S   S725      1.0  0.72637  0.83866  0.39534  1.0000
  S   S726      1.0  0.67881  0.87563  0.39068  1.0000
  Fe  Fe367     1.0  0.75227  0.85286  0.38124  1.0000
  S   S727      1.0  0.77508  0.86389  0.39157  1.0000
  Fe  Fe368     1.0  0.73108  0.82561  0.36852  1.0000
  S   S728      1.0  0.72519  0.79597  0.36757  1.0000
  S   S729      1.0  0.73461  0.87895  0.36592  1.0000
  S   S730      1.0  0.71303  0.85026  0.35276  1.0000
  Fe  Fe369     1.0  0.83954  0.87920  0.45935  1.0000
  S   S731      1.0  0.82526  0.85489  0.45678  1.0000
  S   S732      1.0  0.87124  0.88012  0.45575  1.0000
  C   C2113     1.0  0.78956  0.86013  0.40949  1.0000
  C   C2114     1.0  0.78884  0.84504  0.42517  1.0000
  C   C2115     1.0  0.80007  0.84342  0.43942  1.0000
  C   C2116     1.0  0.81190  0.85696  0.43825  1.0000
  C   C2117     1.0  0.81255  0.87202  0.42260  1.0000
  C   C2118     1.0  0.80157  0.87349  0.40826  1.0000
  H   H2104     1.0  0.77969  0.83465  0.42628  1.0000
  H   H2105     1.0  0.79955  0.83165  0.45143  1.0000
  H   H2106     1.0  0.82168  0.88244  0.42140  1.0000
  H   H2107     1.0  0.80225  0.88518  0.39617  1.0000
  C   C2119     1.0  0.67546  0.88416  0.41237  1.0000
  C   C2120     1.0  0.80545  0.97632  0.18450  1.0000
  H   H2108     1.0  0.75984  0.87005  0.45306  1.0000
  C   C2121     1.0  0.97107  0.95153  0.08221  1.0000
  H   H2109     1.0  0.91337  0.97403  0.11801  1.0000
  H   H2110     1.0  0.73222  0.75072  0.99694  1.0000
  S   S733      1.0  0.83238  0.90914  0.44342  1.0000
  C   C2122     1.0  0.80608  0.89299  0.29162  1.0000
  C   C2123     1.0  0.80065  0.88367  0.31044  1.0000
  C   C2124     1.0  0.78267  0.87769  0.31627  1.0000
  C   C2125     1.0  0.77011  0.88074  0.30319  1.0000
  C   C2126     1.0  0.77557  0.88995  0.28429  1.0000
  C   C2127     1.0  0.79347  0.89619  0.27853  1.0000
  H   H2111     1.0  0.81034  0.88114  0.32064  1.0000
  H   H2112     1.0  0.77857  0.87070  0.33090  1.0000
  H   H2113     1.0  0.76584  0.89245  0.27415  1.0000
  H   H2114     1.0  0.79752  0.90341  0.26399  1.0000
  N   N175      1.0  0.67534  0.80786  0.39025  1.0000
  H   H2115     1.0  0.82285  0.74822  0.07192  1.0000
  H   H2116     1.0  0.90774  0.93063  0.33574  1.0000
  N   N176      1.0  0.74097  0.81230  0.30833  1.0000
  H   H2117     1.0  0.71082  0.76226  0.36522  1.0000
  H   H2118     1.0  0.72059  0.77780  0.06979  1.0000
  C   C2128     1.0  0.87867  0.97311  0.34124  1.0000
  H   H2119     1.0  0.82549  0.91688  0.16567  1.0000
  S   S734      1.0  0.98144  0.86247  0.04743  1.0000
  C   C2129     1.0  0.90908  0.96521  0.27561  1.0000
  C   C2130     1.0  0.89878  0.96139  0.26275  1.0000
  C   C2131     1.0  0.90221  0.94601  0.33065  1.0000
  C   C2132     1.0  0.92414  0.89222  0.46510  1.0000
  H   H2120     1.0  0.76127  0.94697  0.47502  1.0000
  H   H2121     1.0  0.92199  0.95531  0.27888  1.0000
  H   H2122     1.0  0.90395  0.94877  0.25607  1.0000
  H   H2123     1.0  0.90760  0.94269  0.38499  1.0000
  C   C2133     1.0  0.91224  0.96641  0.09112  1.0000
  C   C2134     1.0  0.93294  0.93022  0.10498  1.0000
  C   C2135     1.0  0.92728  0.94460  0.11642  1.0000
  C   C2136     1.0  0.91698  0.96273  0.10948  1.0000
  H   H2124     1.0  0.89426  0.94318  0.44450  1.0000
  C   C2137     1.0  0.92721  0.93367  0.08713  1.0000
  H   H2125     1.0  0.93157  0.94198  0.13033  1.0000
  H   H2126     1.0  0.84116  0.97478  0.37868  1.0000
  C   C2138     1.0  0.80336  0.76287  0.10715  1.0000
  C   C2139     1.0  0.79725  0.77666  0.09192  1.0000
  C   C2140     1.0  0.78468  0.77277  0.08121  1.0000
  C   C2141     1.0  0.88242  0.94657  0.40699  1.0000
  N   N177      1.0  0.88525  0.95372  0.34380  1.0000
  H   H2127     1.0  0.70573  0.87980  0.41367  1.0000
  H   H2128     1.0  0.80202  0.79038  0.08854  1.0000
  H   H2129     1.0  0.77989  0.78364  0.06962  1.0000
  H   H2130     1.0  0.70292  0.82198  0.33994  1.0000
  H   H2131     1.0  0.86398  0.87386  0.26529  1.0000
  C   C2142     1.0  0.84726  0.85621  0.16737  1.0000
  C   C2143     1.0  0.86737  0.85285  0.16578  1.0000
  C   C2144     1.0  0.87620  0.86363  0.17446  1.0000
  C   C2145     1.0  0.86506  0.87777  0.18490  1.0000
  C   C2146     1.0  0.84498  0.88110  0.18647  1.0000
  C   C2147     1.0  0.83617  0.87045  0.17769  1.0000
  H   H2132     1.0  0.87611  0.84179  0.15807  1.0000
  H   H2133     1.0  0.89175  0.86079  0.17330  1.0000
  H   H2134     1.0  0.83615  0.89166  0.19467  1.0000
  H   H2135     1.0  0.82060  0.87311  0.17909  1.0000
  C   C2148     1.0  0.87836  0.85456  0.05714  1.0000
  C   C2149     1.0  0.89354  0.85021  0.06751  1.0000
  C   C2150     1.0  0.90929  0.85991  0.06136  1.0000
  C   C2151     1.0  0.90988  0.87402  0.04485  1.0000
  C   C2152     1.0  0.89476  0.87827  0.03444  1.0000
  C   C2153     1.0  0.87906  0.86857  0.04057  1.0000
  H   H2136     1.0  0.89351  0.83904  0.07993  1.0000
  H   H2137     1.0  0.92106  0.85619  0.06926  1.0000
  H   H2138     1.0  0.89519  0.88911  0.02159  1.0000
  H   H2139     1.0  0.86741  0.87196  0.03243  1.0000
  H   H2140     1.0  0.83578  0.97345  0.18453  1.0000
  C   C2154     1.0  0.68263  0.78644  0.33225  1.0000
  S   S735      1.0  0.76242  0.75084  0.07147  1.0000
  C   C2155     1.0  0.70406  0.77424  0.35573  1.0000
  C   C2156     1.0  0.70849  0.79262  0.35410  1.0000
  C   C2157     1.0  0.69964  0.80786  0.34169  1.0000
  C   C2158     1.0  0.68683  0.80480  0.33091  1.0000
  Fe  Fe370     1.0  0.82776  0.91752  0.47239  1.0000
  Fe  Fe371     1.0  0.97794  0.85079  0.07897  1.0000
  N   N178      1.0  0.86678  0.88166  0.09803  1.0000
  C   C2159     1.0  0.87782  0.89232  0.08371  1.0000
  C   C2160     1.0  0.87206  0.87540  0.11567  1.0000
  C   C2161     1.0  0.89480  0.89672  0.08681  1.0000
  C   C2162     1.0  0.88889  0.87965  0.11931  1.0000
  C   C2163     1.0  0.90030  0.89039  0.10477  1.0000
  C   C2164     1.0  0.84884  0.87733  0.09485  1.0000
  H   H2141     1.0  0.87381  0.89710  0.06962  1.0000
  H   H2142     1.0  0.86328  0.86694  0.12696  1.0000
  H   H2143     1.0  0.90382  0.90468  0.07523  1.0000
  H   H2144     1.0  0.89315  0.87451  0.13327  1.0000
  H   H2145     1.0  0.91349  0.89365  0.10737  1.0000
  H   H2146     1.0  0.83616  0.88597  0.10268  1.0000
  H   H2147     1.0  0.84778  0.88024  0.07936  1.0000
  H   H2148     1.0  0.84816  0.86185  0.10003  1.0000
  N   N179      1.0  0.85010  0.85953  0.25067  1.0000
  C   C2165     1.0  0.85008  0.85531  0.23313  1.0000
  C   C2166     1.0  0.83414  0.85877  0.26478  1.0000
  C   C2167     1.0  0.83348  0.85099  0.22908  1.0000
  C   C2168     1.0  0.81718  0.85487  0.26113  1.0000
  C   C2169     1.0  0.81685  0.85106  0.24311  1.0000
  C   C2170     1.0  0.86764  0.86392  0.25470  1.0000
  H   H2149     1.0  0.86292  0.85538  0.22212  1.0000
  H   H2150     1.0  0.83436  0.86143  0.27891  1.0000
  H   H2151     1.0  0.83350  0.84773  0.21512  1.0000
  H   H2152     1.0  0.80437  0.85499  0.27222  1.0000
  H   H2153     1.0  0.80377  0.84811  0.24003  1.0000
  H   H2154     1.0  0.87682  0.85049  0.26054  1.0000
  H   H2155     1.0  0.75546  0.83067  0.31777  1.0000
  S   S736      1.0  0.90936  0.77565  0.11549  1.0000
  C   C2171     1.0  0.72838  0.75407  0.01133  1.0000
  H   H2156     1.0  0.96452  0.77578  0.12858  1.0000
  C   C2172     1.0  0.98515  0.93490  0.08353  1.0000
  S   S737      1.0  0.85815  0.92259  0.46953  1.0000
  C   C2173     1.0  0.89615  0.95299  0.39139  1.0000
  C   C2174     1.0  0.72420  0.79080  0.29982  1.0000
  H   H2157     1.0  0.91208  0.95671  0.44527  1.0000
  C   C2175     1.0  0.73780  0.79407  0.30944  1.0000
  C   C2176     1.0  0.90333  0.98209  0.28357  1.0000
  C   C2177     1.0  0.77830  0.75500  0.08538  1.0000
  H   H2158     1.0  0.89849  0.94754  0.31621  1.0000
  H   H2159     1.0  0.93946  0.94130  0.45969  1.0000
  C   C2178     1.0  0.85483  0.74389  0.08690  1.0000
  N   N180      1.0  0.71888  0.76200  0.04849  1.0000
  N   N181      1.0  0.92011  0.92613  0.45286  1.0000
  N   N182      1.0  0.83945  0.94093  0.15463  1.0000
  C   C2179     1.0  0.83250  0.95598  0.14148  1.0000
  C   C2180     1.0  0.85893  0.93479  0.15369  1.0000
  H   H2160     1.0  0.70888  0.83708  0.27999  1.0000
  H   H2161     1.0  0.86444  0.92275  0.16406  1.0000
  C   C2181     1.0  0.71711  0.82487  0.28805  1.0000
  H   H2162     1.0  0.81707  0.96099  0.14230  1.0000
  S   S738      1.0  0.87303  0.97283  0.23743  1.0000
  S   S739      1.0  0.66821  0.78343  0.31640  1.0000
  H   H2163     1.0  0.70021  0.89218  0.44429  1.0000
  H   H2164     1.0  0.81119  0.93937  0.17126  1.0000
  H   H2165     1.0  0.74369  0.77555  0.04128  1.0000
  C   C2182     1.0  0.93929  0.89357  0.47372  1.0000
  H   H2166     1.0  0.88213  0.74981  0.12322  1.0000
  C   C2183     1.0  0.82400  0.98043  0.17719  1.0000
  N   N183      1.0  0.93509  0.82530  0.04125  1.0000
  C   C2184     1.0  0.94144  0.81555  0.05776  1.0000
  C   C2185     1.0  0.91832  0.82249  0.03708  1.0000
  C   C2186     1.0  0.93075  0.80279  0.07072  1.0000
  C   C2187     1.0  0.90727  0.80986  0.04975  1.0000
  C   C2188     1.0  0.91361  0.79991  0.06662  1.0000
  C   C2189     1.0  0.94663  0.83844  0.02779  1.0000
  H   H2167     1.0  0.95472  0.81781  0.06112  1.0000
  H   H2168     1.0  0.91306  0.83049  0.02420  1.0000
  H   H2169     1.0  0.93556  0.79533  0.08400  1.0000
  H   H2170     1.0  0.89360  0.80820  0.04680  1.0000
  H   H2171     1.0  0.90514  0.79015  0.07661  1.0000
  H   H2172     1.0  0.95257  0.84677  0.03568  1.0000
  H   H2173     1.0  0.95872  0.83026  0.01884  1.0000
  C   C2190     1.0  0.89497  0.97267  0.38380  1.0000
  H   H2174     1.0  0.87498  0.96704  0.11518  1.0000
  C   C2191     1.0  0.68700  0.79624  0.40431  1.0000
  C   C2192     1.0  0.71411  0.76568  0.06825  1.0000
  C   C2193     1.0  0.91705  0.95171  0.08018  1.0000
  Fe  Fe372     1.0  0.86338  0.91106  0.44205  1.0000
  H   H2175     1.0  0.69915  0.80323  0.40496  1.0000
  H   H2176     1.0  0.85714  0.95515  0.42737  1.0000
  S   S740      1.0  0.94780  0.86711  0.08580  1.0000
  H   H2177     1.0  0.91325  0.95440  0.06605  1.0000
  N   N184      1.0  0.98240  0.75418  0.11343  1.0000
  H   H2178     1.0  0.66538  0.78377  0.38552  1.0000
  S   S741      1.0  0.88390  0.92172  0.41551  1.0000
  H   H2179     1.0  0.68288  0.83424  0.39237  1.0000
  N   N185      1.0  0.96926  0.96301  0.06482  1.0000
  C   C2194     1.0  0.82606  0.93082  0.16945  1.0000
  C   C2195     1.0  0.71378  0.80632  0.28909  1.0000
  C   C2196     1.0  0.69117  0.88465  0.42069  1.0000
  H   H2180     1.0  0.70270  0.80398  0.28216  1.0000
  C   C2197     1.0  0.68803  0.89166  0.43799  1.0000
  H   H2181     1.0  0.91549  0.94323  0.42608  1.0000
  C   C2198     1.0  0.91476  0.90872  0.45454  1.0000
  H   H2182     1.0  0.93081  0.92256  0.07849  1.0000
  C   C2199     1.0  0.87594  0.94165  0.35828  1.0000
  H   H2183     1.0  0.87031  0.74352  0.08034  1.0000
  H   H2184     1.0  0.72118  0.77644  0.30128  1.0000
  H   H2185     1.0  0.70395  0.73943  0.01929  1.0000
  C   C2200     1.0  0.98118  0.95830  0.04846  1.0000
  H   H2186     1.0  0.74542  0.78202  0.31825  1.0000
  H   H2187     1.0  0.75083  0.88699  0.42193  1.0000
  C   C2201     1.0  0.75867  0.89350  0.42938  1.0000
  C   C2202     1.0  0.66469  0.79922  0.38214  1.0000
  C   C2203     1.0  0.76390  0.88394  0.44693  1.0000
  C   C2204     1.0  0.91041  0.75392  0.10778  1.0000
  H   H2188     1.0  0.88747  0.93924  0.13884  1.0000
  H   H2189     1.0  0.83959  0.97800  0.11719  1.0000
  C   C2205     1.0  0.76454  0.91099  0.42096  1.0000
  H   H2190     1.0  0.76107  0.91818  0.40704  1.0000
  C   C2206     1.0  0.66918  0.89803  0.44707  1.0000
  C   C2207     1.0  0.77980  0.88139  0.47430  1.0000
  N   N186      1.0  0.77466  0.89161  0.45585  1.0000
  H   H2191     1.0  0.67789  0.79407  0.41874  1.0000
  H   H2192     1.0  0.66330  0.85397  0.36879  1.0000
  C   C2208     1.0  0.73959  0.76422  0.01761  1.0000
  C   C2209     1.0  0.77516  0.91891  0.43035  1.0000
  C   C2210     1.0  0.79691  0.74515  0.11135  1.0000
  C   C2211     1.0  0.85318  0.96880  0.36856  1.0000
  C   C2212     1.0  0.75547  0.81517  0.31841  1.0000
  C   C2213     1.0  0.69111  0.77116  0.34494  1.0000
  C   C2214     1.0  0.78000  0.90903  0.44796  1.0000
  H   H2193     1.0  0.77983  0.93249  0.42397  1.0000
  C   C2215     1.0  0.88271  0.97455  0.25748  1.0000
  C   C2216     1.0  0.91007  0.94317  0.44165  1.0000
  H   H2194     1.0  0.84679  0.75854  0.08241  1.0000
  S   S742      1.0  0.98441  0.81840  0.08460  1.0000
  H   H2195     1.0  0.96150  0.95506  0.09518  1.0000
  H   H2196     1.0  0.69823  0.76932  0.07287  1.0000
  H   H2197     1.0  0.77011  0.80853  0.31192  1.0000
  H   H2198     1.0  0.78827  0.91528  0.45517  1.0000
  C   C2217     1.0  0.73463  0.76804  0.03637  1.0000
  H   H2199     1.0  0.73324  0.84213  0.29709  1.0000
  H   H2200     1.0  0.83068  0.92821  0.18361  1.0000
  C   C2218     1.0  0.84518  0.96565  0.12719  1.0000
  C   C2219     1.0  0.78457  0.74117  0.10048  1.0000
  C   C2220     1.0  0.71250  0.74777  0.02385  1.0000
  H   H2201     1.0  0.71995  0.75278  0.07806  1.0000
  C   C2221     1.0  0.70803  0.75172  0.04255  1.0000
  C   C2222     1.0  0.92684  0.74643  0.09550  1.0000
  S   S743      1.0  0.66536  0.90672  0.46875  1.0000
  H   H2202     1.0  0.94266  0.97771  0.05657  1.0000
  C   C2223     1.0  0.87202  0.94404  0.13947  1.0000
  H   H2203     1.0  0.90300  0.90757  0.44789  1.0000
  H   H2204     1.0  0.75227  0.76877  0.00818  1.0000
  C   C2224     1.0  0.67461  0.82732  0.38581  1.0000
  H   H2205     1.0  0.88120  0.92628  0.36051  1.0000
  H   H2206     1.0  0.98614  0.92555  0.09728  1.0000
  C   C2225     1.0  0.73087  0.82763  0.29780  1.0000
  C   C2226     1.0  0.86505  0.95959  0.12619  1.0000
  C   C2227     1.0  0.93516  0.92753  0.46101  1.0000
  H   H2207     1.0  0.90544  0.97745  0.37161  1.0000
  H   H2208     1.0  0.91935  0.87859  0.46697  1.0000
  H   H2209     1.0  0.85291  0.93946  0.38279  1.0000
  H   H2210     1.0  0.75245  0.80852  0.33379  1.0000
  H   H2211     1.0  0.69379  0.78207  0.40010  1.0000
  H   H2212     1.0  0.91412  0.95408  0.32927  1.0000
  H   H2213     1.0  0.93866  0.75426  0.09047  1.0000
  H   H2214     1.0  0.96534  0.73622  0.99586  1.0000
  C   C2228     1.0  0.98192  0.73956  0.10432  1.0000
  H   H2215     1.0  0.96908  0.73900  0.09904  1.0000
  C   C2229     1.0  0.89482  0.74414  0.11367  1.0000
  H   H2216     1.0  0.69600  0.74623  0.05235  1.0000
  H   H2217     1.0  0.96728  0.78155  0.10281  1.0000
  C   C2230     1.0  0.96572  0.76978  0.11537  1.0000
  C   C2231     1.0  0.94494  0.91129  0.47159  1.0000
  C   C2232     1.0  0.66346  0.83859  0.37250  1.0000
  H   H2218     1.0  0.97952  0.96715  0.03462  1.0000
  C   C2233     1.0  0.83048  0.73352  0.07407  1.0000
  H   H2219     1.0  0.78388  0.86567  0.47430  1.0000
  C   C2234     1.0  0.86262  0.98096  0.35364  1.0000
  H   H2220     1.0  0.80150  0.73439  0.12312  1.0000
  H   H2221     1.0  0.85339  0.74157  0.10278  1.0000
  H   H2222     1.0  0.66044  0.73528  0.21201  1.0000
  H   H2223     1.0  0.88608  0.98262  0.32976  1.0000
  H   H2224     1.0  0.77584  0.98260  0.18042  1.0000
  H   H2225     1.0  0.79256  0.88596  0.47719  1.0000
  H   H2226     1.0  0.66162  0.97996  0.73958  1.0000
  H   H2227     1.0  0.92480  0.74721  0.52162  1.0000
  Fe  Fe373     1.0  0.95754  0.89945  0.58767  1.0000
  S   S744      1.0  0.96246  0.88494  0.56223  1.0000
  S   S745      1.0  0.93457  0.88872  0.61127  1.0000
  N   N187      1.0  0.68048  0.86337  0.51428  1.0000
  H   H2228     1.0  0.67629  0.92174  0.67969  1.0000
  Fe  Fe374     1.0  0.96230  0.91450  0.54529  1.0000
  S   S746      1.0  0.94372  0.92518  0.52187  1.0000
  C   C2235     1.0  0.82660  0.82172  0.54738  1.0000
  S   S747      1.0  0.95588  0.92954  0.57085  1.0000
  Fe  Fe375     1.0  0.89657  0.77307  0.58231  1.0000
  S   S748      1.0  0.91091  0.76212  0.60802  1.0000
  S   S749      1.0  0.90300  0.76196  0.55464  1.0000
  Fe  Fe376     1.0  0.87182  0.80768  0.59823  1.0000
  S   S750      1.0  0.88386  0.79983  0.62563  1.0000
  S   S751      1.0  0.85293  0.83578  0.58847  1.0000
  Fe  Fe377     1.0  0.91256  0.79297  0.60682  1.0000
  S   S752      1.0  0.94080  0.80094  0.60780  1.0000
  Fe  Fe378     1.0  0.88111  0.76960  0.62465  1.0000
  S   S753      1.0  0.90088  0.80324  0.57956  1.0000
  S   S754      1.0  0.86643  0.77808  0.59885  1.0000
  S   S755      1.0  0.88331  0.87975  0.50626  1.0000
  H   H2229     1.0  0.79544  0.90604  0.51229  1.0000
  H   H2230     1.0  0.66656  0.87954  0.55916  1.0000
  C   C2236     1.0  0.84095  0.80671  0.55338  1.0000
  H   H2231     1.0  0.88790  0.92011  0.49543  1.0000
  C   C2237     1.0  0.88418  0.90898  0.55485  1.0000
  S   S756      1.0  0.68006  0.88374  0.70318  1.0000
  H   H2232     1.0  0.89539  0.81477  0.53431  1.0000
  C   C2238     1.0  0.66328  0.86320  0.50918  1.0000
  C   C2239     1.0  0.87309  0.87858  0.56408  1.0000
  H   H2233     1.0  0.83663  0.74284  0.63834  1.0000
  C   C2240     1.0  0.67600  0.83607  0.53918  1.0000
  Fe  Fe379     1.0  0.71607  0.89050  0.59454  1.0000
  S   S757      1.0  0.71638  0.85908  0.60451  1.0000
  S   S758      1.0  0.70769  0.91198  0.61471  1.0000
  Fe  Fe380     1.0  0.72559  0.88617  0.55257  1.0000
  S   S759      1.0  0.72646  0.85429  0.55935  1.0000
  S   S760      1.0  0.72646  0.90181  0.52213  1.0000
  Fe  Fe381     1.0  0.69994  0.86124  0.58102  1.0000
  C   C2241     1.0  0.86025  0.80916  0.54867  1.0000
  Fe  Fe382     1.0  0.74297  0.85516  0.58214  1.0000
  S   S761      1.0  0.76591  0.83025  0.59099  1.0000
  S   S762      1.0  0.69759  0.89302  0.57253  1.0000
  S   S763      1.0  0.74418  0.88672  0.57376  1.0000
  C   C2242     1.0  0.78031  0.92736  0.49244  1.0000
  C   C2243     1.0  0.76245  0.93490  0.48669  1.0000
  C   C2244     1.0  0.74613  0.92681  0.49582  1.0000
  C   C2245     1.0  0.74735  0.91156  0.51128  1.0000
  C   C2246     1.0  0.76515  0.90407  0.51729  1.0000
  H   H2234     1.0  0.87130  0.79747  0.55355  1.0000
  H   H2235     1.0  0.82969  0.74925  0.66995  1.0000
  H   H2236     1.0  0.73248  0.93263  0.49105  1.0000
  H   H2237     1.0  0.66424  0.76404  0.80429  1.0000
  C   C2247     1.0  0.67425  0.75925  0.79154  1.0000
  H   H2238     1.0  0.67321  0.96375  0.53960  1.0000
  C   C2248     1.0  0.69168  0.87831  0.50403  1.0000
  C   C2249     1.0  0.68597  0.89168  0.67836  1.0000
  C   C2250     1.0  0.68285  0.91125  0.67049  1.0000
  C   C2251     1.0  0.68918  0.91734  0.65083  1.0000
  C   C2252     1.0  0.69828  0.90389  0.63889  1.0000
  C   C2253     1.0  0.70073  0.88431  0.64670  1.0000
  C   C2254     1.0  0.69485  0.87825  0.66641  1.0000
  H   H2239     1.0  0.81153  0.82014  0.55128  1.0000
  H   H2240     1.0  0.68730  0.93253  0.64491  1.0000
  H   H2241     1.0  0.70796  0.87382  0.63782  1.0000
  H   H2242     1.0  0.69731  0.86310  0.67244  1.0000
  S   S764      1.0  0.67469  0.84584  0.58833  1.0000
  C   C2255     1.0  0.88528  0.82876  0.53406  1.0000
  C   C2256     1.0  0.88611  0.87247  0.57685  1.0000
  H   H2243     1.0  0.98233  0.82697  0.62783  1.0000
  H   H2244     1.0  0.66170  0.88628  0.62753  1.0000
  N   N188      1.0  0.96841  0.75350  0.56434  1.0000
  C   C2257     1.0  0.82849  0.83469  0.58992  1.0000
  C   C2258     1.0  0.82147  0.81774  0.59830  1.0000
  C   C2259     1.0  0.80221  0.81669  0.59853  1.0000
  C   C2260     1.0  0.78979  0.83262  0.59054  1.0000
  C   C2261     1.0  0.79667  0.84973  0.58234  1.0000
  C   C2262     1.0  0.81603  0.85076  0.58207  1.0000
  H   H2245     1.0  0.83086  0.80540  0.60463  1.0000
  H   H2246     1.0  0.79692  0.80345  0.60492  1.0000
  H   H2247     1.0  0.78720  0.86204  0.57599  1.0000
  H   H2248     1.0  0.82142  0.86392  0.57555  1.0000
  C   C2263     1.0  0.98167  0.73689  0.56665  1.0000
  H   H2249     1.0  0.85496  0.85445  0.52436  1.0000
  S   S765      1.0  0.83330  0.88756  0.48856  1.0000
  H   H2250     1.0  0.98049  0.79472  0.60952  1.0000
  C   C2264     1.0  0.87211  0.89691  0.55298  1.0000
  H   H2251     1.0  0.88785  0.83630  0.54490  1.0000
  H   H2252     1.0  0.68930  0.75951  0.79277  1.0000
  C   C2265     1.0  0.92646  0.91249  0.51852  1.0000
  C   C2266     1.0  0.91210  0.92223  0.50772  1.0000
  C   C2267     1.0  0.89970  0.89273  0.51077  1.0000
  C   C2268     1.0  0.91381  0.88306  0.52189  1.0000
  C   C2269     1.0  0.92716  0.89286  0.52570  1.0000
  H   H2253     1.0  0.91456  0.86787  0.52746  1.0000
  H   H2254     1.0  0.93818  0.88510  0.53391  1.0000
  C   C2270     1.0  0.93645  0.86398  0.61177  1.0000
  C   C2271     1.0  0.95368  0.85351  0.60341  1.0000
  C   C2272     1.0  0.95480  0.83429  0.60202  1.0000
  C   C2273     1.0  0.93873  0.82528  0.60921  1.0000
  C   C2274     1.0  0.92151  0.83561  0.61786  1.0000
  C   C2275     1.0  0.92043  0.85491  0.61931  1.0000
  H   H2255     1.0  0.96620  0.86027  0.59791  1.0000
  H   H2256     1.0  0.96810  0.82658  0.59505  1.0000
  H   H2257     1.0  0.90910  0.82870  0.62365  1.0000
  H   H2258     1.0  0.90708  0.86290  0.62592  1.0000
  H   H2259     1.0  0.91139  0.93742  0.50214  1.0000
  C   C2276     1.0  0.68690  0.85005  0.52907  1.0000
  H   H2260     1.0  0.69808  0.93662  0.52883  1.0000
  S   S766      1.0  0.80041  0.93795  0.48041  1.0000
  Fe  Fe383     1.0  0.98823  0.92480  0.56985  1.0000
  C   C2277     1.0  0.89880  0.91242  0.50383  1.0000
  H   H2261     1.0  0.88370  0.92301  0.54579  1.0000
  H   H2262     1.0  0.69489  0.87792  0.48839  1.0000
  H   H2263     1.0  0.96558  0.81056  0.63781  1.0000
  H   H2264     1.0  0.70031  0.85038  0.53343  1.0000
  C   C2278     1.0  0.98027  0.81324  0.63766  1.0000
  C   C2279     1.0  0.90977  0.91541  0.56905  1.0000
  H   H2265     1.0  0.97305  0.77461  0.53944  1.0000
  H   H2266     1.0  0.86243  0.90156  0.54260  1.0000
  H   H2267     1.0  0.69652  0.92513  0.49932  1.0000
  C   C2280     1.0  0.85112  0.84094  0.53241  1.0000
  N   N189      1.0  0.67192  0.73996  0.79021  1.0000
  H   H2268     1.0  0.66670  0.91185  0.59929  1.0000
  H   H2269     1.0  0.67025  0.94061  0.48090  1.0000
  S   S767      1.0  0.87054  0.74996  0.65165  1.0000
  H   H2270     1.0  0.68323  0.89267  0.50623  1.0000
  H   H2271     1.0  0.86389  0.86906  0.56268  1.0000
  H   H2272     1.0  0.70561  0.87658  0.50906  1.0000
  H   H2273     1.0  0.82061  0.85078  0.53225  1.0000
  H   H2274     1.0  0.81548  0.73384  0.63698  1.0000
  C   C2281     1.0  0.89802  0.88489  0.57829  1.0000
  C   C2282     1.0  0.93066  0.73876  0.53397  1.0000
  H   H2275     1.0  0.96857  0.75239  0.53501  1.0000
  H   H2276     1.0  0.92449  0.91046  0.56145  1.0000
  N   N190      1.0  0.86511  0.82608  0.53820  1.0000
  H   H2277     1.0  0.94874  0.77521  0.57798  1.0000
  H   H2278     1.0  0.94632  0.88101  0.48244  1.0000
  C   C2283     1.0  0.97581  0.73636  0.60081  1.0000
  C   C2284     1.0  0.83168  0.83895  0.53680  1.0000
  N   N191      1.0  0.89677  0.90295  0.56755  1.0000
  H   H2279     1.0  0.90832  0.88004  0.58799  1.0000
  N   N192      1.0  0.74435  0.88548  0.64811  1.0000
  C   C2285     1.0  0.75136  0.88460  0.62915  1.0000
  C   C2286     1.0  0.74299  0.86899  0.66130  1.0000
  C   C2287     1.0  0.75700  0.86686  0.62295  1.0000
  C   C2288     1.0  0.74827  0.85102  0.65552  1.0000
  C   C2289     1.0  0.75534  0.85000  0.63620  1.0000
  C   C2290     1.0  0.73900  0.90415  0.65447  1.0000
  H   H2280     1.0  0.75229  0.89766  0.61865  1.0000
  H   H2281     1.0  0.73732  0.86970  0.67632  1.0000
  H   H2282     1.0  0.76247  0.86614  0.60793  1.0000
  H   H2283     1.0  0.74678  0.83800  0.66592  1.0000
  H   H2284     1.0  0.75944  0.83620  0.63141  1.0000
  H   H2285     1.0  0.75165  0.90782  0.65848  1.0000
  H   H2286     1.0  0.73374  0.91568  0.64296  1.0000
  H   H2287     1.0  0.72699  0.90397  0.66701  1.0000
  H   H2288     1.0  0.88700  0.85819  0.58553  1.0000
  C   C2291     1.0  0.96465  0.76281  0.54513  1.0000
  H   H2289     1.0  0.91049  0.91499  0.58434  1.0000
  H   H2290     1.0  0.98512  0.96290  0.60083  1.0000
  H   H2291     1.0  0.76620  0.89221  0.52916  1.0000
  S   S768      1.0  0.98887  0.89606  0.58922  1.0000
  C   C2292     1.0  0.95911  0.76194  0.57981  1.0000
  Fe  Fe384     1.0  0.86426  0.89163  0.48343  1.0000
  C   C2293     1.0  0.68660  0.94339  0.52070  1.0000
  H   H2292     1.0  0.83714  0.79339  0.56192  1.0000
  H   H2293     1.0  0.95634  0.91260  0.47870  1.0000
  H   H2294     1.0  0.94899  0.76875  0.54556  1.0000
  H   H2295     1.0  0.90508  0.93061  0.56258  1.0000
  H   H2296     1.0  0.88870  0.83747  0.51956  1.0000
  C   C2294     1.0  0.78171  0.91178  0.50765  1.0000
  H   H2297     1.0  0.67073  0.76986  0.77866  1.0000
  H   H2298     1.0  0.92320  0.73411  0.58253  1.0000
  C   C2295     1.0  0.67273  0.95862  0.52669  1.0000
  C   C2296     1.0  0.67088  0.94575  0.49377  1.0000
  H   H2299     1.0  0.95494  0.76002  0.61055  1.0000
  H   H2300     1.0  0.76744  0.88415  0.48605  1.0000
  H   H2301     1.0  0.98084  0.81486  0.65244  1.0000
  C   C2297     1.0  0.68572  0.93690  0.50413  1.0000
  C   C2298     1.0  0.96261  0.75345  0.59827  1.0000
  H   H2302     1.0  0.82446  0.73744  0.70496  1.0000
  C   C2299     1.0  0.65857  0.73787  0.78020  1.0000
  H   H2303     1.0  0.68080  0.82598  0.55137  1.0000
  C   C2300     1.0  0.65884  0.91554  0.61289  1.0000
  C   C2301     1.0  0.92222  0.74255  0.55235  1.0000
  C   C2302     1.0  0.82658  0.73485  0.67536  1.0000
  C   C2303     1.0  0.65818  0.96725  0.51589  1.0000
  H   H2304     1.0  0.65811  0.87388  0.49759  1.0000
  C   C2304     1.0  0.65837  0.83590  0.53418  1.0000
