data_image0
_chemical_formula_structural       HC2H2C2HC2HSFeS2FeS2FeHFeS3CFeS2FeS2FeSFeS3C2HCSHC6H4C6H4C4H2C6H4CH3C9NHC2NSH4NHC4HC5H3C2H2CN2H3CHNH3CH6C2H5CHCHCH2CH3CFeSFeS2FeSFeS3FeS2FeSFeSFeS3C3HC7H5C2H2C3HNCHC3NC6H9C3H2CH4CHCNH2C3H3CHCHCH2CHFeS2FeS2FeSFeS2FeS2FeS2Fe2S3C3H2C3H2C6H4CH3C2HC2HNC4HCH8C3H4CH2CHC2HCHCHCNHNC2H2C2HC3H3FeS2FeS2FeSFeS4FeSCFeS2FeSFeS4C6H4C3H2C6H4C6H4CNH4C3HCHCNCNCH2CHCNC3H4C2H4CH2C2HCH3CH2CH3CHCH4CHCHC2SHCHCH4CH2C2H7CHSFeS2FeS2FeSFeS3HFeS2FeS2FeSFeS3C3H3C6H4C6H4CHC2HC2H2C7H5C3NSHNCH3NHC2HC3HCHCHNC2HCH3CH3CHNHCH2CHC2H2C2HCHCH3C2HC2H2CH2CH2FeS2FeSFeSFeS3FeSFeS2FeSFeS3CHC2HC6H4C2H2CHCHCHC2NHCNC6H8CH2CHCHCH2CH2CHC4H2CHNCHFeS2FeS2Fe2CS2FeS2FeS2FeSFeS2CHC2HCH4C6H4CHCSHCHCH3NHC2HCHNHC2HC3HCHCHCH4CHCH2NC2HC3H3SFeS2FeS2FeSFeS4FeS2FeS2FeSFeS3H3CHC6H4C6H4C6H4C3H3C3H4CHCHC2HNH3NC5HCH2NC3H3CHCHC5H2CHC2HCHC3H2NH3CH2CHCNHCH3C3H2CHC2H
_chemical_formula_sum              "H384 C384 S128 Fe64 N32"
_cell_length_a       45.9366
_cell_length_b       46.1302
_cell_length_c       39.3092
_cell_angle_alpha    89.6386
_cell_angle_beta     90.2033
_cell_angle_gamma    90.0465

_space_group_name_H-M_alt    "P 1"
_space_group_IT_number       1

loop_
  _space_group_symop_operation_xyz
  'x, y, z'

loop_
  _atom_site_type_symbol
  _atom_site_label
  _atom_site_symmetry_multiplicity
  _atom_site_fract_x
  _atom_site_fract_y
  _atom_site_fract_z
  _atom_site_occupancy
  H   H1        1.0  0.33702  0.04589  0.40918  1.0000
  C   C1        1.0  0.17008  0.02620  0.96475  1.0000
  C   C2        1.0  0.34477  0.02872  0.42575  1.0000
  H   H2        1.0  0.40896  0.05242  0.40634  1.0000
  H   H3        1.0  0.17489  0.04435  0.98115  1.0000
  C   C3        1.0  0.41784  0.03850  0.42615  1.0000
  C   C4        1.0  0.34933  0.00073  0.41228  1.0000
  H   H4        1.0  0.38460  0.27679  0.45705  1.0000
  C   C5        1.0  0.42245  0.04929  0.45894  1.0000
  C   C6        1.0  0.42307  0.00926  0.41968  1.0000
  H   H5        1.0  0.41828  0.00024  0.39481  1.0000
  S   S1        1.0  0.33317  0.32178  0.52904  1.0000
  Fe  Fe1       1.0  0.40391  0.09574  0.58166  1.0000
  S   S2        1.0  0.40151  0.11604  0.52990  1.0000
  S   S3        1.0  0.44641  0.07303  0.59565  1.0000
  Fe  Fe2       1.0  0.33971  0.11047  0.59814  1.0000
  S   S4        1.0  0.33394  0.13116  0.54621  1.0000
  S   S5        1.0  0.29942  0.11886  0.63149  1.0000
  Fe  Fe3       1.0  0.35865  0.09270  0.52557  1.0000
  H   H6        1.0  0.01072  0.13638  0.84487  1.0000
  Fe  Fe4       1.0  0.37724  0.15228  0.55561  1.0000
  S   S6        1.0  0.39250  0.19922  0.54962  1.0000
  S   S7        1.0  0.36162  0.07058  0.57654  1.0000
  S   S8        1.0  0.38242  0.13323  0.60802  1.0000
  C   C7        1.0  0.45618  0.29101  0.56258  1.0000
  Fe  Fe5       1.0  0.18330  0.08765  0.78523  1.0000
  S   S9        1.0  0.19158  0.11524  0.83153  1.0000
  S   S10       1.0  0.22051  0.06856  0.75307  1.0000
  Fe  Fe6       1.0  0.11690  0.08565  0.80027  1.0000
  S   S11       1.0  0.12130  0.11306  0.84680  1.0000
  S   S12       1.0  0.07303  0.06902  0.78122  1.0000
  Fe  Fe7       1.0  0.15170  0.14061  0.81529  1.0000
  S   S13       1.0  0.14217  0.18834  0.80316  1.0000
  Fe  Fe8       1.0  0.16032  0.08488  0.85895  1.0000
  S   S14       1.0  0.16849  0.06731  0.91319  1.0000
  S   S15       1.0  0.14513  0.11422  0.76763  1.0000
  S   S16       1.0  0.15436  0.05603  0.81378  1.0000
  C   C8        1.0  0.16492  0.03128  0.92985  1.0000
  C   C9        1.0  0.03932  0.08363  0.79481  1.0000
  H   H7        1.0  0.28858  0.07933  0.50863  1.0000
  C   C10       1.0  0.03804  0.10562  0.81907  1.0000
  S   S17       1.0  0.34570  0.07091  0.47532  1.0000
  H   H8        1.0  0.05781  0.11310  0.83114  1.0000
  C   C11       1.0  0.16713  0.27838  0.84501  1.0000
  C   C12       1.0  0.17622  0.25307  0.86223  1.0000
  C   C13       1.0  0.16912  0.22529  0.84974  1.0000
  C   C14       1.0  0.15266  0.22256  0.81993  1.0000
  C   C15       1.0  0.14350  0.24788  0.80280  1.0000
  C   C16       1.0  0.15074  0.27562  0.81516  1.0000
  H   H9        1.0  0.18890  0.25493  0.88535  1.0000
  H   H10       1.0  0.17626  0.20606  0.86324  1.0000
  H   H11       1.0  0.13082  0.24604  0.77968  1.0000
  H   H12       1.0  0.14358  0.29483  0.80165  1.0000
  C   C17       1.0  0.27875  0.10475  0.66637  1.0000
  C   C18       1.0  0.25546  0.12130  0.67905  1.0000
  C   C19       1.0  0.23766  0.11082  0.70571  1.0000
  C   C20       1.0  0.24267  0.08337  0.71988  1.0000
  C   C21       1.0  0.26590  0.06673  0.70710  1.0000
  C   C22       1.0  0.28389  0.07734  0.68065  1.0000
  H   H13       1.0  0.25114  0.14250  0.66825  1.0000
  H   H14       1.0  0.21993  0.12392  0.71510  1.0000
  H   H15       1.0  0.27005  0.04546  0.71778  1.0000
  H   H16       1.0  0.30165  0.06428  0.67127  1.0000
  C   C23       1.0  0.24401  0.07051  0.88965  1.0000
  C   C24       1.0  0.48089  0.08928  0.58760  1.0000
  C   C25       1.0  0.01339  0.15796  0.75567  1.0000
  C   C26       1.0  0.48322  0.11772  0.57534  1.0000
  H   H17       1.0  0.08151  0.18177  0.83040  1.0000
  H   H18       1.0  0.46372  0.13029  0.57066  1.0000
  C   C27       1.0  0.34662  0.28674  0.53937  1.0000
  C   C28       1.0  0.33530  0.26242  0.52249  1.0000
  C   C29       1.0  0.34731  0.23462  0.52790  1.0000
  C   C30       1.0  0.37069  0.23090  0.55045  1.0000
  C   C31       1.0  0.38081  0.25497  0.56878  1.0000
  C   C32       1.0  0.36890  0.28272  0.56327  1.0000
  H   H19       1.0  0.31795  0.26524  0.50406  1.0000
  H   H20       1.0  0.33964  0.21641  0.51313  1.0000
  H   H21       1.0  0.39902  0.25238  0.58607  1.0000
  H   H22       1.0  0.37773  0.30110  0.57667  1.0000
  C   C33       1.0  0.03137  0.13892  0.73803  1.0000
  H   H23       1.0  0.01409  0.05713  0.76066  1.0000
  H   H24       1.0  0.36485  0.01634  0.50785  1.0000
  H   H25       1.0  0.07530  0.12333  0.73193  1.0000
  C   C34       1.0  0.36036  0.01221  0.48129  1.0000
  C   C35       1.0  0.01330  0.07412  0.77949  1.0000
  C   C36       1.0  0.02556  0.17634  0.78009  1.0000
  C   C37       1.0  0.27533  0.04135  0.59494  1.0000
  C   C38       1.0  0.15887  0.00749  0.90905  1.0000
  C   C39       1.0  0.41522  0.25606  0.49100  1.0000
  C   C40       1.0  0.25581  0.06910  0.82997  1.0000
  C   C41       1.0  0.23249  0.04253  0.88712  1.0000
  C   C42       1.0  0.42376  0.31051  0.51872  1.0000
  N   N1        1.0  0.23232  0.02836  0.85666  1.0000
  H   H26       1.0  0.44428  0.24116  0.53008  1.0000
  C   C43       1.0  0.24372  0.04129  0.82828  1.0000
  C   C44       1.0  0.43599  0.04313  0.51879  1.0000
  N   N2        1.0  0.05483  0.17567  0.78677  1.0000
  S   S18       1.0  0.17634  0.31283  0.86218  1.0000
  H   H27       1.0  0.15452  0.01095  0.88228  1.0000
  H   H28       1.0  0.30427  0.27472  0.59313  1.0000
  H   H29       1.0  0.41449  0.04460  0.53153  1.0000
  H   H30       1.0  0.26022  0.12537  0.57427  1.0000
  N   N3        1.0  0.43244  0.03152  0.48440  1.0000
  H   H31       1.0  0.30846  0.03043  0.51889  1.0000
  C   C45       1.0  0.07265  0.15742  0.76915  1.0000
  C   C46       1.0  0.32593  0.32771  0.66441  1.0000
  C   C47       1.0  0.40028  0.27980  0.47744  1.0000
  C   C48       1.0  0.28460  0.06878  0.53294  1.0000
  H   H32       1.0  0.05065  0.20556  0.82818  1.0000
  C   C49       1.0  0.31013  0.28970  0.61319  1.0000
  C   C50       1.0  0.06752  0.19461  0.81272  1.0000
  C   C51       1.0  0.01125  0.11874  0.82687  1.0000
  C   C52       1.0  0.32988  0.28069  0.63831  1.0000
  C   C53       1.0  0.29598  0.04104  0.53861  1.0000
  H   H33       1.0  0.26785  0.12252  0.52993  1.0000
  H   H34       1.0  0.22287  0.03264  0.90951  1.0000
  H   H35       1.0  0.26408  0.07952  0.80709  1.0000
  C   C54       1.0  0.26391  0.06890  0.58821  1.0000
  C   C55       1.0  0.33783  0.29990  0.66404  1.0000
  H   H36       1.0  0.27686  0.31096  0.56593  1.0000
  H   H37       1.0  0.08139  0.21141  0.80042  1.0000
  C   C56       1.0  0.25580  0.08382  0.86085  1.0000
  N   N4        1.0  0.26910  0.08248  0.55779  1.0000
  N   N5        1.0  0.29892  0.31718  0.61351  1.0000
  H   H38       1.0  0.33911  0.25904  0.63758  1.0000
  H   H39       1.0  0.44341  0.30153  0.58311  1.0000
  H   H40       1.0  0.46457  0.27012  0.57284  1.0000
  C   C57       1.0  0.43406  0.26007  0.51863  1.0000
  H   H41       1.0  0.26416  0.10579  0.86220  1.0000
  N   N6        1.0  0.43779  0.28702  0.53240  1.0000
  H   H42       1.0  0.47491  0.30535  0.55638  1.0000
  H   H43       1.0  0.30064  0.00607  0.57482  1.0000
  H   H44       1.0  0.25150  0.07972  0.60786  1.0000
  C   C58       1.0  0.06122  0.13871  0.74465  1.0000
  H   H45       1.0  0.09579  0.15681  0.77453  1.0000
  H   H46       1.0  0.23327  0.10974  0.54610  1.0000
  H   H47       1.0  0.24285  0.08207  0.91356  1.0000
  H   H48       1.0  0.16789  0.32236  0.93222  1.0000
  H   H49       1.0  0.35323  0.29332  0.68360  1.0000
  H   H50       1.0  0.45053  0.02944  0.53486  1.0000
  C   C59       1.0  0.25693  0.11141  0.55157  1.0000
  C   C60       1.0  0.40468  0.30727  0.49119  1.0000
  H   H51       1.0  0.24289  0.03042  0.80389  1.0000
  H   H52       1.0  0.44594  0.06512  0.51810  1.0000
  H   H53       1.0  0.41107  0.23438  0.48152  1.0000
  H   H54       1.0  0.27186  0.03115  0.61955  1.0000
  H   H55       1.0  0.02209  0.12367  0.72010  1.0000
  C   C61       1.0  0.29150  0.02738  0.56993  1.0000
  H   H56       1.0  0.39244  0.32573  0.48158  1.0000
  C   C62       1.0  0.43731  0.00273  0.47839  1.0000
  H   H57       1.0  0.01125  0.19044  0.79432  1.0000
  C   C63       1.0  0.27830  0.32670  0.58719  1.0000
  H   H58       1.0  0.21839  0.32194  0.92106  1.0000
  H   H59       1.0  0.25634  0.32959  0.59837  1.0000
  C   C64       1.0  0.35059  0.03478  0.46020  1.0000
  H   H60       1.0  0.41706  0.07174  0.46417  1.0000
  H   H61       1.0  0.42650  0.33175  0.52990  1.0000
  H   H62       1.0  0.19631  0.00272  0.84196  1.0000
  C   C65       1.0  0.21821  0.99997  0.85367  1.0000
  Fe  Fe9       1.0  0.35064  0.64747  0.33913  1.0000
  S   S19       1.0  0.37892  0.64368  0.29307  1.0000
  Fe  Fe10      1.0  0.35274  0.58121  0.35397  1.0000
  S   S20       1.0  0.38125  0.57335  0.30836  1.0000
  S   S21       1.0  0.33214  0.54474  0.38609  1.0000
  Fe  Fe11      1.0  0.40609  0.61309  0.32506  1.0000
  S   S22       1.0  0.45396  0.62080  0.33815  1.0000
  Fe  Fe12      1.0  0.35119  0.60460  0.28041  1.0000
  S   S23       1.0  0.33453  0.59649  0.22606  1.0000
  S   S24       1.0  0.37891  0.61915  0.37217  1.0000
  S   S25       1.0  0.32147  0.61005  0.32489  1.0000
  Fe  Fe13      1.0  0.16457  0.58191  0.03964  1.0000
  S   S26       1.0  0.14587  0.57523  0.09230  1.0000
  S   S27       1.0  0.15370  0.54869  0.99776  1.0000
  Fe  Fe14      1.0  0.18072  0.64542  0.05589  1.0000
  S   S28       1.0  0.16282  0.64247  0.10853  1.0000
  Fe  Fe15      1.0  0.18558  0.59943  0.11176  1.0000
  S   S29       1.0  0.20527  0.58883  0.16437  1.0000
  Fe  Fe16      1.0  0.12508  0.61884  0.08484  1.0000
  S   S30       1.0  0.08002  0.63460  0.09981  1.0000
  S   S31       1.0  0.20579  0.60322  0.05953  1.0000
  S   S32       1.0  0.14159  0.62482  0.03172  1.0000
  C   C66       1.0  0.04583  0.58776  0.08055  1.0000
  C   C67       1.0  0.04674  0.61672  0.09083  1.0000
  C   C68       1.0  0.18487  0.65322  0.96374  1.0000
  H   H63       1.0  0.06591  0.57621  0.07591  1.0000
  C   C69       1.0  0.04556  0.57813  0.16690  1.0000
  C   C70       1.0  0.29828  0.59811  0.20935  1.0000
  C   C71       1.0  0.29404  0.59645  0.17389  1.0000
  C   C72       1.0  0.26578  0.59490  0.15960  1.0000
  C   C73       1.0  0.24126  0.59437  0.18065  1.0000
  C   C74       1.0  0.24550  0.59621  0.21612  1.0000
  C   C75       1.0  0.27373  0.59854  0.23035  1.0000
  H   H64       1.0  0.31278  0.59611  0.15731  1.0000
  H   H65       1.0  0.26304  0.59332  0.13233  1.0000
  H   H66       1.0  0.22679  0.59579  0.23274  1.0000
  H   H67       1.0  0.27652  0.59986  0.25763  1.0000
  H   H68       1.0  0.28945  0.57815  0.43209  1.0000
  C   C76       1.0  0.48641  0.60420  0.32374  1.0000
  C   C77       1.0  0.48765  0.58857  0.29340  1.0000
  H   H69       1.0  0.01833  0.55085  0.07007  1.0000
  H   H70       1.0  0.46791  0.58459  0.27910  1.0000
  C   C78       1.0  0.07909  0.61812  0.17975  1.0000
  C   C79       1.0  0.29147  0.60025  0.42086  1.0000
  C   C80       1.0  0.32087  0.64419  0.42636  1.0000
  H   H71       1.0  0.27157  0.61265  0.42739  1.0000
  N   N7        1.0  0.31756  0.61526  0.43318  1.0000
  C   C81       1.0  0.34671  0.52297  0.41990  1.0000
  H   H72       1.0  0.21220  0.52356  0.98753  1.0000
  C   C82       1.0  0.01884  0.57342  0.07732  1.0000
  C   C83       1.0  0.21607  0.61122  0.96560  1.0000
  C   C84       1.0  0.32958  0.50043  0.43366  1.0000
  N   N8        1.0  0.32095  0.52629  0.23795  1.0000
  C   C85       1.0  0.33914  0.52094  0.26489  1.0000
  C   C86       1.0  0.29195  0.53131  0.24320  1.0000
  C   C87       1.0  0.32852  0.52113  0.29822  1.0000
  C   C88       1.0  0.28072  0.53218  0.27623  1.0000
  C   C89       1.0  0.29921  0.52712  0.30388  1.0000
  C   C90       1.0  0.33264  0.52587  0.20329  1.0000
  H   H73       1.0  0.36214  0.51709  0.26076  1.0000
  H   H74       1.0  0.27751  0.53568  0.22186  1.0000
  H   H75       1.0  0.34307  0.51732  0.31964  1.0000
  H   H76       1.0  0.25795  0.53723  0.28029  1.0000
  H   H77       1.0  0.29100  0.52808  0.32973  1.0000
  H   H78       1.0  0.35376  0.53769  0.20230  1.0000
  H   H79       1.0  0.33574  0.50321  0.19478  1.0000
  H   H80       1.0  0.31798  0.53735  0.18509  1.0000
  H   H81       1.0  0.15288  0.61880  0.18765  1.0000
  C   C91       1.0  0.09837  0.57106  0.17073  1.0000
  C   C92       1.0  0.13096  0.61053  0.18384  1.0000
  C   C93       1.0  0.10709  0.62913  0.18536  1.0000
  H   H82       1.0  0.02094  0.65378  0.10484  1.0000
  H   H83       1.0  0.06073  0.63290  0.18003  1.0000
  C   C94       1.0  0.02045  0.63138  0.09684  1.0000
  H   H84       1.0  0.38770  0.54530  0.42393  1.0000
  H   H85       1.0  0.09525  0.54839  0.16459  1.0000
  H   H86       1.0  0.03704  0.56897  0.19106  1.0000
  H   H87       1.0  0.14521  0.56681  0.17498  1.0000
  C   C95       1.0  0.37419  0.52812  0.43412  1.0000
  H   H88       1.0  0.30441  0.65594  0.41195  1.0000
  C   C96       1.0  0.12663  0.58128  0.17667  1.0000
  N   N9        1.0  0.07507  0.58950  0.17207  1.0000
  H   H89       1.0  0.30824  0.49624  0.42307  1.0000
  H   H90       1.0  0.03046  0.59538  0.15778  1.0000
  C   C97       1.0  0.16769  0.52103  0.97060  1.0000
  C   C98       1.0  0.33891  0.60024  0.45009  1.0000
  C   C99       1.0  0.19713  0.51321  0.97023  1.0000
  H   H91       1.0  0.04536  0.56107  0.14705  1.0000
  H   H92       1.0  0.11028  0.65206  0.19001  1.0000
  H   H93       1.0  0.33667  0.57714  0.45475  1.0000
  C   C100      1.0  0.34589  0.65896  0.43691  1.0000
  H   H94       1.0  0.12670  0.39930  0.96943  1.0000
  C   C101      1.0  0.21142  0.64048  0.97246  1.0000
  H   H95       1.0  0.23641  0.60095  0.97292  1.0000
  C   C102      1.0  0.14590  0.38813  0.96029  1.0000
  H   H96       1.0  0.29271  0.59783  0.39280  1.0000
  H   H97       1.0  0.22810  0.65318  0.98517  1.0000
  C   C103      1.0  0.36769  0.64388  0.45436  1.0000
  H   H98       1.0  0.17302  0.42632  0.96121  1.0000
  Fe  Fe17      1.0  0.35185  0.40203  0.61299  1.0000
  S   S33       1.0  0.32899  0.40428  0.56216  1.0000
  S   S34       1.0  0.33107  0.40582  0.66614  1.0000
  Fe  Fe18      1.0  0.41105  0.38516  0.57960  1.0000
  S   S35       1.0  0.39096  0.38574  0.52751  1.0000
  S   S36       1.0  0.45699  0.36628  0.57804  1.0000
  Fe  Fe19      1.0  0.36948  0.42751  0.54275  1.0000
  S   S37       1.0  0.38106  0.46815  0.51094  1.0000
  Fe  Fe20      1.0  0.35328  0.36258  0.55156  1.0000
  S   S38       1.0  0.39113  0.42767  0.59465  1.0000
  S   S39       1.0  0.37430  0.35952  0.60265  1.0000
  Fe  Fe21      1.0  0.12362  0.40452  0.81920  1.0000
  S   S40       1.0  0.14341  0.39098  0.86926  1.0000
  S   S41       1.0  0.07726  0.42256  0.81936  1.0000
  Fe  Fe22      1.0  0.18276  0.40059  0.78188  1.0000
  S   S42       1.0  0.20603  0.38740  0.82996  1.0000
  S   S43       1.0  0.20114  0.40574  0.72759  1.0000
  Fe  Fe23      1.0  0.16776  0.35759  0.83878  1.0000
  Fe  Fe24      1.0  0.17964  0.42191  0.85672  1.0000
  S   S44       1.0  0.20196  0.45094  0.89663  1.0000
  S   S45       1.0  0.14539  0.36897  0.78944  1.0000
  S   S46       1.0  0.15899  0.43720  0.80786  1.0000
  C   C104      1.0  0.18801  0.47809  0.92447  1.0000
  C   C105      1.0  0.12291  0.40019  0.71453  1.0000
  C   C106      1.0  0.15855  0.48580  0.92500  1.0000
  H   H99       1.0  0.32626  0.46603  0.47136  1.0000
  H   H100      1.0  0.14347  0.47539  0.90774  1.0000
  C   C107      1.0  0.01753  0.42155  0.82047  1.0000
  C   C108      1.0  0.04282  0.40624  0.81149  1.0000
  C   C109      1.0  0.03993  0.38033  0.79347  1.0000
  H   H101      1.0  0.01950  0.44168  0.83426  1.0000
  H   H102      1.0  0.05916  0.36830  0.78641  1.0000
  C   C110      1.0  0.29465  0.40595  0.68253  1.0000
  C   C111      1.0  0.29040  0.40351  0.71794  1.0000
  C   C112      1.0  0.26213  0.40319  0.73217  1.0000
  C   C113      1.0  0.23753  0.40547  0.71118  1.0000
  C   C114      1.0  0.24178  0.40785  0.67574  1.0000
  C   C115      1.0  0.27004  0.40806  0.66150  1.0000
  H   H103      1.0  0.30915  0.40194  0.73458  1.0000
  H   H104      1.0  0.25941  0.40141  0.75943  1.0000
  H   H105      1.0  0.22303  0.40978  0.65917  1.0000
  H   H106      1.0  0.27276  0.41025  0.63429  1.0000
  C   C116      1.0  0.36715  0.48846  0.47552  1.0000
  H   H107      1.0  0.49387  0.49959  0.55078  1.0000
  H   H108      1.0  0.47341  0.42145  0.61014  1.0000
  H   H109      1.0  0.14233  0.64624  0.94260  1.0000
  C   C117      1.0  0.12496  0.42836  0.72694  1.0000
  C   C118      1.0  0.14853  0.50713  0.94783  1.0000
  H   H110      1.0  0.22190  0.35221  0.89260  1.0000
  C   C119      1.0  0.45596  0.44140  0.52251  1.0000
  C   C120      1.0  0.47929  0.42296  0.51600  1.0000
  H   H111      1.0  0.14253  0.38845  0.70774  1.0000
  N   N10       1.0  0.07295  0.43008  0.73320  1.0000
  C   C121      1.0  0.09963  0.44303  0.73640  1.0000
  C   C122      1.0  0.07072  0.40246  0.72093  1.0000
  C   C123      1.0  0.19403  0.59509  0.94997  1.0000
  C   C124      1.0  0.22018  0.34597  0.91988  1.0000
  H   H112      1.0  0.09394  0.36489  0.70273  1.0000
  C   C125      1.0  0.04663  0.44654  0.74150  1.0000
  H   H113      1.0  0.10147  0.46467  0.74681  1.0000
  H   H114      1.0  0.04961  0.39204  0.71879  1.0000
  H   H115      1.0  0.44298  0.48346  0.54012  1.0000
  H   H116      1.0  0.38751  0.65496  0.46191  1.0000
  H   H117      1.0  0.14617  0.43854  0.72970  1.0000
  H   H118      1.0  0.04140  0.46199  0.72064  1.0000
  H   H119      1.0  0.02761  0.43199  0.74566  1.0000
  H   H120      1.0  0.04982  0.45866  0.76562  1.0000
  C   C126      1.0  0.19617  0.38892  0.94271  1.0000
  C   C127      1.0  0.48992  0.47808  0.54081  1.0000
  C   C128      1.0  0.09566  0.38701  0.71171  1.0000
  H   H121      1.0  0.15235  0.56883  0.91813  1.0000
  H   H122      1.0  0.40545  0.51542  0.47261  1.0000
  H   H123      1.0  0.29748  0.35770  0.63902  1.0000
  H   H124      1.0  0.01005  0.35087  0.76877  1.0000
  C   C129      1.0  0.49296  0.41056  0.60180  1.0000
  H   H125      1.0  0.38131  0.60217  0.47385  1.0000
  H   H126      1.0  0.21599  0.40116  0.93814  1.0000
  C   C130      1.0  0.20715  0.49193  0.94732  1.0000
  H   H127      1.0  0.47529  0.40104  0.50731  1.0000
  C   C131      1.0  0.16934  0.34502  0.93930  1.0000
  C   C132      1.0  0.49088  0.38356  0.58593  1.0000
  H   H128      1.0  0.33200  0.34303  0.68412  1.0000
  C   C133      1.0  0.14456  0.35877  0.95206  1.0000
  H   H129      1.0  0.28569  0.34761  0.57587  1.0000
  C   C134      1.0  0.14452  0.59046  0.92649  1.0000
  H   H130      1.0  0.43378  0.43420  0.51818  1.0000
  C   C135      1.0  0.30640  0.33599  0.63880  1.0000
  N   N11       1.0  0.19474  0.36011  0.93487  1.0000
  H   H131      1.0  0.24047  0.35240  0.93329  1.0000
  N   N12       1.0  0.16802  0.60775  0.94152  1.0000
  C   C136      1.0  0.01207  0.37054  0.78344  1.0000
  C   C137      1.0  0.38422  0.51108  0.46179  1.0000
  H   H132      1.0  0.19764  0.57224  0.94529  1.0000
  H   H133      1.0  0.13504  0.60172  0.90401  1.0000
  C   C138      1.0  0.46120  0.46915  0.53495  1.0000
  C   C139      1.0  0.36424  0.61431  0.46101  1.0000
  H   H134      1.0  0.22998  0.48613  0.94729  1.0000
  C   C140      1.0  0.33975  0.48319  0.46112  1.0000
  C   C141      1.0  0.17187  0.40330  0.95574  1.0000
  C   C142      1.0  0.16322  0.63640  0.94836  1.0000
  H   H135      1.0  0.12430  0.34688  0.95465  1.0000
  H   H136      1.0  0.12725  0.58668  0.94579  1.0000
  H   H137      1.0  0.12571  0.51292  0.94779  1.0000
  Fe  Fe25      1.0  0.36572  0.92153  0.36449  1.0000
  S   S47       1.0  0.36696  0.94471  0.31396  1.0000
  S   S48       1.0  0.36756  0.94289  0.41748  1.0000
  Fe  Fe26      1.0  0.37251  0.86107  0.32962  1.0000
  S   S49       1.0  0.37394  0.88142  0.27731  1.0000
  S   S50       1.0  0.38835  0.81402  0.33215  1.0000
  Fe  Fe27      1.0  0.40384  0.91442  0.30102  1.0000
  S   S51       1.0  0.44598  0.92811  0.27461  1.0000
  Fe  Fe28      1.0  0.33675  0.90923  0.29503  1.0000
  S   S52       1.0  0.29500  0.92218  0.26566  1.0000
  S   S53       1.0  0.40416  0.89307  0.35208  1.0000
  S   S54       1.0  0.33367  0.88726  0.34669  1.0000
  S   S55       1.0  0.33031  0.68965  0.35749  1.0000
  Fe  Fe29      1.0  0.16214  0.91534  0.02573  1.0000
  S   S56       1.0  0.16199  0.93623  0.07737  1.0000
  C   C143      1.0  0.27779  0.97490  0.17724  1.0000
  Fe  Fe30      1.0  0.14865  0.85437  0.05681  1.0000
  S   S57       1.0  0.14679  0.87195  0.10997  1.0000
  S   S58       1.0  0.13356  0.80757  0.05044  1.0000
  Fe  Fe31      1.0  0.12155  0.90899  0.08660  1.0000
  S   S59       1.0  0.07899  0.92857  0.10564  1.0000
  Fe  Fe32      1.0  0.18739  0.89696  0.09621  1.0000
  S   S60       1.0  0.23111  0.89154  0.12504  1.0000
  S   S61       1.0  0.12091  0.88998  0.03456  1.0000
  S   S62       1.0  0.19005  0.87762  0.04336  1.0000
  S   S63       1.0  0.20205  0.68778  0.03928  1.0000
  C   C144      1.0  0.15321  0.77477  0.04552  1.0000
  C   C145      1.0  0.18326  0.77418  0.03983  1.0000
  C   C146      1.0  0.19790  0.74739  0.03725  1.0000
  C   C147      1.0  0.18275  0.72103  0.04100  1.0000
  C   C148      1.0  0.15271  0.72166  0.04649  1.0000
  C   C149      1.0  0.13803  0.74838  0.04840  1.0000
  H   H138      1.0  0.19516  0.79432  0.03724  1.0000
  H   H139      1.0  0.22112  0.74710  0.03278  1.0000
  H   H140      1.0  0.14074  0.70157  0.04928  1.0000
  H   H141      1.0  0.11477  0.74862  0.05267  1.0000
  C   C150      1.0  0.04452  0.91231  0.09728  1.0000
  C   C151      1.0  0.04217  0.88585  0.08030  1.0000
  C   C152      1.0  0.01883  0.92689  0.10655  1.0000
  H   H142      1.0  0.06167  0.87437  0.07294  1.0000
  H   H143      1.0  0.02036  0.94737  0.11970  1.0000
  C   C153      1.0  0.27574  0.90969  0.22883  1.0000
  C   C154      1.0  0.24801  0.92132  0.22150  1.0000
  C   C155      1.0  0.23333  0.91497  0.19071  1.0000
  C   C156      1.0  0.24634  0.89706  0.16651  1.0000
  C   C157      1.0  0.27366  0.88470  0.17430  1.0000
  C   C158      1.0  0.28818  0.89078  0.20526  1.0000
  H   H144      1.0  0.23805  0.93590  0.23949  1.0000
  H   H145      1.0  0.21238  0.92468  0.18530  1.0000
  H   H146      1.0  0.28399  0.87075  0.15592  1.0000
  H   H147      1.0  0.30936  0.88149  0.21043  1.0000
  C   C159      1.0  0.37085  0.77990  0.33793  1.0000
  C   C160      1.0  0.38683  0.75453  0.33140  1.0000
  C   C161      1.0  0.37449  0.72685  0.33657  1.0000
  C   C162      1.0  0.34608  0.72418  0.34886  1.0000
  C   C163      1.0  0.33007  0.74954  0.35549  1.0000
  C   C164      1.0  0.34228  0.77728  0.34981  1.0000
  H   H148      1.0  0.40893  0.75624  0.32223  1.0000
  H   H149      1.0  0.38711  0.70759  0.33145  1.0000
  H   H150      1.0  0.30809  0.74775  0.36505  1.0000
  H   H151      1.0  0.32975  0.79657  0.35512  1.0000
  C   C165      1.0  0.48111  0.91941  0.29103  1.0000
  N   N13       1.0  0.32435  0.95329  0.18927  1.0000
  H   H152      1.0  0.04953  0.96379  0.05116  1.0000
  H   H153      1.0  0.25795  0.96287  0.12953  1.0000
  H   H154      1.0  0.46577  0.90080  0.33793  1.0000
  H   H155      1.0  0.34680  0.96042  0.23650  1.0000
  C   C166      1.0  0.27702  0.96103  0.14581  1.0000
  C   C167      1.0  0.35937  0.97821  0.43327  1.0000
  C   C168      1.0  0.46167  0.82143  0.34636  1.0000
  H   H156      1.0  0.34140  0.92539  0.15121  1.0000
  C   C169      1.0  0.30023  0.94347  0.13618  1.0000
  H   H157      1.0  0.43102  0.84490  0.29576  1.0000
  C   C170      1.0  0.48459  0.90541  0.32244  1.0000
  N   N14       1.0  0.07954  0.95382  0.01163  1.0000
  C   C171      1.0  0.46433  0.85449  0.25933  1.0000
  N   N15       1.0  0.47300  0.83235  0.31391  1.0000
  C   C172      1.0  0.16953  0.99782  0.97864  1.0000
  H   H158      1.0  0.10060  0.99471  0.01368  1.0000
  H   H159      1.0  0.20441  0.82850  0.09440  1.0000
  C   C173      1.0  0.45410  0.84362  0.29034  1.0000
  H   H160      1.0  0.17398  0.99439  0.00540  1.0000
  C   C174      1.0  0.32390  0.93986  0.15834  1.0000
  N   N16       1.0  0.19688  0.79060  0.12378  1.0000
  C   C175      1.0  0.21516  0.76733  0.12082  1.0000
  C   C176      1.0  0.20421  0.73902  0.12223  1.0000
  C   C177      1.0  0.17439  0.73465  0.12648  1.0000
  H   H161      1.0  0.23824  0.77054  0.11658  1.0000
  H   H162      1.0  0.21855  0.72057  0.11873  1.0000
  H   H163      1.0  0.16552  0.71284  0.12626  1.0000
  H   H164      1.0  0.23207  0.82123  0.12600  1.0000
  C   C178      1.0  0.34870  0.94772  0.21265  1.0000
  C   C179      1.0  0.20834  0.82015  0.12058  1.0000
  H   H165      1.0  0.44936  0.86461  0.24145  1.0000
  H   H166      1.0  0.01094  0.93156  0.02903  1.0000
  H   H167      1.0  0.34517  0.99661  0.38563  1.0000
  H   H168      1.0  0.29920  0.93173  0.11236  1.0000
  C   C180      1.0  0.16757  0.78651  0.12753  1.0000
  H   H169      1.0  0.19760  0.83491  0.13894  1.0000
  H   H170      1.0  0.45077  0.80016  0.34245  1.0000
  C   C181      1.0  0.15591  0.75851  0.12919  1.0000
  C   C182      1.0  0.01454  0.87408  0.07290  1.0000
  H   H171      1.0  0.12430  0.96391  0.01959  1.0000
  C   C183      1.0  0.10237  0.97275  0.02521  1.0000
  H   H172      1.0  0.15290  0.80494  0.12801  1.0000
  H   H173      1.0  0.01316  0.85354  0.05991  1.0000
  H   H174      1.0  0.44525  0.83670  0.35677  1.0000
  C   C184      1.0  0.05330  0.95191  0.02784  1.0000
  H   H175      1.0  0.13255  0.75543  0.13093  1.0000
  H   H176      1.0  0.10089  0.97430  0.05341  1.0000
  C   C185      1.0  0.03137  0.93371  0.01544  1.0000
  H   H177      1.0  0.30136  0.98023  0.22402  1.0000
  H   H178      1.0  0.47907  0.81893  0.36582  1.0000
  H   H179      1.0  0.18086  0.67581  0.96983  1.0000
  C   C186      1.0  0.30171  0.97068  0.19886  1.0000
  H   H180      1.0  0.34881  0.92445  0.22023  1.0000
  C   C187      1.0  0.08421  0.93894  0.98214  1.0000
  H   H181      1.0  0.36976  0.95332  0.20047  1.0000
  H   H182      1.0  0.34868  0.68174  0.43048  1.0000
  H   H183      1.0  0.48891  0.67473  0.31493  1.0000
  H   H184      1.0  0.01979  0.90280  0.97688  1.0000
  C   C188      1.0  0.06288  0.92030  0.96921  1.0000
  H   H185      1.0  0.25935  0.98768  0.18553  1.0000
  C   C189      1.0  0.43280  0.99119  0.44593  1.0000
  H   H186      1.0  0.43548  0.96814  0.44141  1.0000
  C   C190      1.0  0.49408  0.85356  0.25239  1.0000
  C   C191      1.0  0.03638  0.91754  0.98619  1.0000
  S   S64       1.0  0.16528  0.93736  0.97298  1.0000
  H   H187      1.0  0.10475  0.94094  0.96882  1.0000
  C   C192      1.0  0.15885  0.97908  0.92279  1.0000
  H   H188      1.0  0.37210  0.96688  0.48448  1.0000
  C   C193      1.0  0.36444  0.98412  0.46795  1.0000
  H   H189      1.0  0.15466  0.96089  0.90622  1.0000
  H   H190      1.0  0.06712  0.90787  0.94643  1.0000
  H   H191      1.0  0.23134  0.98528  0.83753  1.0000
  H   H192      1.0  0.21550  0.98928  0.87891  1.0000
  C   C194      1.0  0.16427  0.97396  0.95763  1.0000
  H   H193      1.0  0.44404  0.98837  0.49888  1.0000
  H   H194      1.0  0.68150  0.02994  0.39118  1.0000
  C   C195      1.0  0.67825  0.01683  0.41378  1.0000
  C   C196      1.0  0.84809  0.01604  0.97202  1.0000
  H   H195      1.0  0.84238  0.02834  0.99436  1.0000
  H   H196      1.0  0.67672  0.05392  0.44741  1.0000
  H   H197      1.0  0.61421  0.00888  0.41886  1.0000
  H   H198      1.0  0.59149  0.00840  0.34281  1.0000
  H   H199      1.0  0.62147  0.18375  0.44408  1.0000
  H   H200      1.0  0.62773  0.01392  0.36032  1.0000
  H   H201      1.0  0.92803  0.07057  0.97837  1.0000
  C   C197      1.0  0.67550  0.03056  0.44570  1.0000
  H   H202      1.0  0.83479  0.00292  0.15348  1.0000
  S   S65       1.0  0.62951  0.30432  0.54653  1.0000
  Fe  Fe33      1.0  0.61736  0.11482  0.57154  1.0000
  S   S66       1.0  0.63964  0.11434  0.52061  1.0000
  S   S67       1.0  0.57064  0.13188  0.56955  1.0000
  Fe  Fe34      1.0  0.67608  0.10381  0.61002  1.0000
  S   S68       1.0  0.70135  0.10265  0.56125  1.0000
  S   S69       1.0  0.69557  0.09866  0.66373  1.0000
  Fe  Fe35      1.0  0.67394  0.14151  0.54636  1.0000
  S   S70       1.0  0.69259  0.18333  0.52422  1.0000
  Fe  Fe36      1.0  0.66439  0.07543  0.54012  1.0000
  S   S71       1.0  0.66893  0.02985  0.51667  1.0000
  S   S72       1.0  0.65076  0.14392  0.59607  1.0000
  S   S73       1.0  0.64021  0.07456  0.59028  1.0000
  H   H203      1.0  0.84563  0.05338  0.93822  1.0000
  Fe  Fe37      1.0  0.90536  0.11821  0.81477  1.0000
  S   S74       1.0  0.88484  0.11545  0.86655  1.0000
  S   S75       1.0  0.95347  0.13069  0.81732  1.0000
  Fe  Fe38      1.0  0.84559  0.10986  0.77836  1.0000
  S   S76       1.0  0.82199  0.10589  0.82824  1.0000
  S   S77       1.0  0.82492  0.11123  0.72474  1.0000
  Fe  Fe39      1.0  0.84996  0.14408  0.84406  1.0000
  S   S78       1.0  0.83017  0.18259  0.87160  1.0000
  Fe  Fe40      1.0  0.85949  0.07759  0.84622  1.0000
  S   S79       1.0  0.86006  0.03152  0.86968  1.0000
  S   S80       1.0  0.87177  0.14920  0.79376  1.0000
  S   S81       1.0  0.88162  0.07921  0.79477  1.0000
  C   C198      1.0  0.85678  0.01479  0.91078  1.0000
  C   C199      1.0  0.68546  0.29925  0.61385  1.0000
  C   C200      1.0  0.98543  0.11002  0.81062  1.0000
  H   H204      1.0  0.73522  0.21591  0.58564  1.0000
  H   H205      1.0  0.96681  0.08059  0.77423  1.0000
  H   H206      1.0  0.68095  0.01906  0.65154  1.0000
  C   C201      1.0  0.83850  0.28243  0.86499  1.0000
  C   C202      1.0  0.85654  0.26536  0.84421  1.0000
  C   C203      1.0  0.85488  0.23453  0.84579  1.0000
  C   C204      1.0  0.83544  0.22082  0.86842  1.0000
  C   C205      1.0  0.81797  0.23811  0.88913  1.0000
  C   C206      1.0  0.81943  0.26841  0.88739  1.0000
  H   H207      1.0  0.87146  0.27587  0.82684  1.0000
  H   H208      1.0  0.86858  0.22147  0.82965  1.0000
  H   H209      1.0  0.80296  0.22797  0.90673  1.0000
  H   H210      1.0  0.80546  0.28116  0.90360  1.0000
  C   C207      1.0  0.73144  0.10434  0.68025  1.0000
  C   C208      1.0  0.73624  0.10146  0.71555  1.0000
  C   C209      1.0  0.76451  0.10360  0.72967  1.0000
  C   C210      1.0  0.78851  0.10885  0.70865  1.0000
  C   C211      1.0  0.78366  0.11210  0.67339  1.0000
  C   C212      1.0  0.75538  0.10993  0.65926  1.0000
  H   H211      1.0  0.71797  0.09711  0.73212  1.0000
  H   H212      1.0  0.76774  0.10082  0.75677  1.0000
  H   H213      1.0  0.80199  0.11618  0.65682  1.0000
  H   H214      1.0  0.75220  0.11215  0.63208  1.0000
  C   C213      1.0  0.63107  0.19034  0.46879  1.0000
  H   H215      1.0  0.65027  0.20454  0.46423  1.0000
  C   C214      1.0  0.78341  0.21302  0.81113  1.0000
  C   C215      1.0  0.56749  0.23312  0.52842  1.0000
  H   H216      1.0  0.59459  0.16607  0.51355  1.0000
  C   C216      1.0  0.53423  0.08579  0.58795  1.0000
  C   C217      1.0  0.53652  0.11441  0.57620  1.0000
  H   H217      1.0  0.66216  0.20748  0.65284  1.0000
  H   H218      1.0  0.55375  0.07340  0.59310  1.0000
  C   C218      1.0  0.94303  0.08681  0.92991  1.0000
  C   C219      1.0  0.64985  0.27188  0.54361  1.0000
  C   C220      1.0  0.67509  0.26994  0.52395  1.0000
  C   C221      1.0  0.68823  0.24272  0.51853  1.0000
  C   C222      1.0  0.67638  0.21734  0.53288  1.0000
  C   C223      1.0  0.65165  0.21951  0.55332  1.0000
  C   C224      1.0  0.63853  0.24662  0.55866  1.0000
  H   H219      1.0  0.68382  0.28919  0.51184  1.0000
  H   H220      1.0  0.70736  0.24126  0.50264  1.0000
  H   H221      1.0  0.64219  0.20025  0.56445  1.0000
  H   H222      1.0  0.61899  0.24789  0.57387  1.0000
  H   H223      1.0  0.61942  0.24701  0.46945  1.0000
  C   C225      1.0  0.57097  0.20315  0.53104  1.0000
  C   C226      1.0  0.71792  0.22572  0.60038  1.0000
  C   C227      1.0  0.67671  0.22095  0.63783  1.0000
  N   N17       1.0  0.69027  0.26784  0.61588  1.0000
  S   S82       1.0  0.83666  0.32104  0.86358  1.0000
  H   H224      1.0  0.92011  0.01257  0.89404  1.0000
  N   N18       1.0  0.93769  0.05433  0.88275  1.0000
  C   C228      1.0  0.67244  0.25097  0.63563  1.0000
  H   H225      1.0  0.69813  0.31058  0.63393  1.0000
  H   H226      1.0  0.95536  0.09700  0.87859  1.0000
  H   H227      1.0  0.70274  0.18496  0.62079  1.0000
  N   N19       1.0  0.60917  0.20510  0.48946  1.0000
  H   H228      1.0  0.69198  0.30807  0.58859  1.0000
  C   C229      1.0  0.58470  0.24891  0.50573  1.0000
  C   C230      1.0  0.67180  0.01399  0.47534  1.0000
  H   H229      1.0  0.76954  0.04629  0.64990  1.0000
  C   C231      1.0  0.74959  0.04031  0.60095  1.0000
  C   C232      1.0  0.69955  0.20829  0.61995  1.0000
  C   C233      1.0  0.71305  0.25567  0.59879  1.0000
  H   H230      1.0  0.92343  0.03326  0.83749  1.0000
  C   C234      1.0  0.74984  0.03991  0.63657  1.0000
  H   H231      1.0  0.58285  0.27236  0.50425  1.0000
  C   C235      1.0  0.94640  0.08053  0.89538  1.0000
  H   H232      1.0  0.70723  0.04330  0.70200  1.0000
  N   N20       1.0  0.72544  0.03212  0.65432  1.0000
  C   C236      1.0  0.81173  0.21772  0.76096  1.0000
  C   C237      1.0  0.81076  0.18770  0.75603  1.0000
  H   H233      1.0  0.79527  0.14698  0.77595  1.0000
  C   C238      1.0  0.79834  0.26161  0.79199  1.0000
  H   H234      1.0  0.79330  0.26817  0.81852  1.0000
  H   H235      1.0  0.77333  0.22254  0.83333  1.0000
  H   H236      1.0  0.82358  0.23112  0.74298  1.0000
  C   C239      1.0  0.78214  0.18294  0.80704  1.0000
  H   H237      1.0  0.77151  0.16945  0.82601  1.0000
  H   H238      1.0  0.55186  0.24417  0.54438  1.0000
  H   H239      1.0  0.82183  0.17777  0.73468  1.0000
  C   C240      1.0  0.79581  0.17030  0.77924  1.0000
  H   H240      1.0  0.51228  0.15235  0.56085  1.0000
  N   N21       1.0  0.79816  0.22999  0.78828  1.0000
  H   H241      1.0  0.93843  0.06848  0.83110  1.0000
  C   C241      1.0  0.84985  0.03036  0.94012  1.0000
  H   H242      1.0  0.82022  0.27066  0.78615  1.0000
  H   H243      1.0  0.78200  0.27161  0.77470  1.0000
  C   C242      1.0  0.69956  0.02448  0.60190  1.0000
  H   H244      1.0  0.74608  0.04091  0.70222  1.0000
  C   C243      1.0  0.72597  0.03095  0.69161  1.0000
  C   C244      1.0  0.94079  0.04830  0.84640  1.0000
  H   H245      1.0  0.72367  0.03260  0.55593  1.0000
  H   H246      1.0  0.65444  0.26063  0.64929  1.0000
  C   C245      1.0  0.60551  0.23444  0.48623  1.0000
  C   C246      1.0  0.59191  0.18937  0.51109  1.0000
  H   H247      1.0  0.66198  0.30458  0.61672  1.0000
  C   C247      1.0  0.98644  0.08725  0.78731  1.0000
  H   H248      1.0  0.76880  0.04691  0.58693  1.0000
  C   C248      1.0  0.92345  0.03883  0.93876  1.0000
  H   H249      1.0  0.63962  0.17080  0.48216  1.0000
  H   H250      1.0  0.94914  0.10796  0.93954  1.0000
  H   H251      1.0  0.55787  0.19059  0.54877  1.0000
  C   C249      1.0  0.92699  0.03336  0.90406  1.0000
  C   C250      1.0  0.50654  0.07336  0.59372  1.0000
  H   H252      1.0  0.72709  0.26899  0.58301  1.0000
  C   C251      1.0  0.70046  0.02464  0.63747  1.0000
  C   C252      1.0  0.51085  0.13020  0.56983  1.0000
  H   H253      1.0  0.72475  0.00811  0.70053  1.0000
  H   H254      1.0  0.67970  0.01861  0.58854  1.0000
  C   C253      1.0  0.72430  0.03235  0.58358  1.0000
  H   H255      1.0  0.96253  0.03879  0.84130  1.0000
  H   H256      1.0  0.98999  0.15761  0.75159  1.0000
  C   C254      1.0  0.93128  0.06585  0.95165  1.0000
  H   H257      1.0  0.50500  0.05138  0.60331  1.0000
  H   H258      1.0  0.91394  0.02242  0.95527  1.0000
  Fe  Fe41      1.0  0.66639  0.58366  0.35472  1.0000
  S   S83       1.0  0.65710  0.55949  0.30638  1.0000
  S   S84       1.0  0.67913  0.56205  0.40588  1.0000
  Fe  Fe42      1.0  0.65380  0.64339  0.32092  1.0000
  S   S85       1.0  0.64361  0.62206  0.27096  1.0000
  Fe  Fe43      1.0  0.61844  0.58936  0.30131  1.0000
  S   S86       1.0  0.57448  0.57467  0.28057  1.0000
  Fe  Fe44      1.0  0.68321  0.59453  0.27974  1.0000
  S   S87       1.0  0.70994  0.58272  0.23227  1.0000
  S   S88       1.0  0.62618  0.61180  0.35088  1.0000
  S   S89       1.0  0.69518  0.61741  0.32850  1.0000
  Fe  Fe45      1.0  0.87923  0.64379  0.05488  1.0000
  S   S90       1.0  0.89637  0.62836  0.10538  1.0000
  Fe  Fe46      1.0  0.85984  0.58161  0.03557  1.0000
  S   S91       1.0  0.87471  0.56373  0.08627  1.0000
  S   S92       1.0  0.83852  0.54824  0.99967  1.0000
  Fe  Fe47      1.0  0.85429  0.60335  0.10977  1.0000
  S   S93       1.0  0.83261  0.61094  0.16173  1.0000
  Fe  Fe48      1.0  0.91496  0.59069  0.07723  1.0000
  S   S94       1.0  0.95925  0.56862  0.08151  1.0000
  S   S95       1.0  0.83652  0.61993  0.05980  1.0000
  S   S96       1.0  0.90076  0.60725  0.02598  1.0000
  C   C255      1.0  0.89058  0.48147  0.01533  1.0000
  H   H259      1.0  0.75534  0.58916  0.34184  1.0000
  C   C256      1.0  0.99347  0.61723  0.09293  1.0000
  C   C257      1.0  0.93491  0.48631  0.98486  1.0000
  H   H260      1.0  0.97341  0.62871  0.09788  1.0000
  C   C258      1.0  0.74440  0.59064  0.21349  1.0000
  C   C259      1.0  0.75022  0.58033  0.18054  1.0000
  C   C260      1.0  0.77710  0.58597  0.16439  1.0000
  C   C261      1.0  0.79873  0.60181  0.18118  1.0000
  C   C262      1.0  0.79306  0.61177  0.21435  1.0000
  C   C263      1.0  0.76603  0.60648  0.23032  1.0000
  H   H261      1.0  0.73374  0.56795  0.16728  1.0000
  H   H262      1.0  0.78106  0.57807  0.13897  1.0000
  H   H263      1.0  0.80963  0.62401  0.22764  1.0000
  H   H264      1.0  0.76199  0.61461  0.25561  1.0000
  C   C264      1.0  0.54072  0.58481  0.29871  1.0000
  C   C265      1.0  0.53934  0.59980  0.32944  1.0000
  H   H265      1.0  0.51558  0.56711  0.25732  1.0000
  H   H266      1.0  0.55911  0.60440  0.34340  1.0000
  C   C266      1.0  0.85182  0.52556  0.96639  1.0000
  H   H267      1.0  0.92186  0.51906  0.05520  1.0000
  C   C267      1.0  0.52014  0.65848  0.27879  1.0000
  H   H268      1.0  0.57908  0.62955  0.24221  1.0000
  C   C268      1.0  0.51472  0.57884  0.28104  1.0000
  H   H269      1.0  0.90481  0.53941  0.02115  1.0000
  C   C269      1.0  0.66653  0.50244  0.40498  1.0000
  C   C270      1.0  0.67328  0.52687  0.42448  1.0000
  N   N22       1.0  0.91589  0.49613  0.00892  1.0000
  H   H270      1.0  0.66215  0.50502  0.37810  1.0000
  C   C271      1.0  0.99254  0.58805  0.08357  1.0000
  N   N23       1.0  0.73789  0.54614  0.33798  1.0000
  C   C272      1.0  0.72635  0.52270  0.35461  1.0000
  C   C273      1.0  0.73833  0.54709  0.30318  1.0000
  C   C274      1.0  0.71435  0.49961  0.33636  1.0000
  C   C275      1.0  0.72642  0.52443  0.28414  1.0000
  C   C276      1.0  0.71420  0.50066  0.30089  1.0000
  C   C277      1.0  0.75064  0.56979  0.35787  1.0000
  H   H271      1.0  0.72590  0.52202  0.38222  1.0000
  H   H272      1.0  0.74746  0.56560  0.28980  1.0000
  H   H273      1.0  0.70480  0.48129  0.34971  1.0000
  H   H274      1.0  0.72618  0.52566  0.25653  1.0000
  H   H275      1.0  0.70438  0.48324  0.28638  1.0000
  H   H276      1.0  0.95471  0.49821  0.97929  1.0000
  H   H277      1.0  0.73519  0.57677  0.37798  1.0000
  H   H278      1.0  0.77117  0.56245  0.37011  1.0000
  C   C278      1.0  0.75081  0.65649  0.16035  1.0000
  H   H279      1.0  0.66222  0.45572  0.40436  1.0000
  H   H280      1.0  0.55729  0.65556  0.21871  1.0000
  C   C279      1.0  0.92867  0.46122  0.96633  1.0000
  H   H281      1.0  0.86326  0.44514  0.00183  1.0000
  C   C280      1.0  0.66632  0.47447  0.42007  1.0000
  H   H282      1.0  0.94330  0.53263  0.02064  1.0000
  C   C281      1.0  0.51232  0.60926  0.34194  1.0000
  H   H283      1.0  0.51157  0.62128  0.36547  1.0000
  H   H284      1.0  0.73109  0.64858  0.17246  1.0000
  C   C282      1.0  0.92182  0.52306  0.02728  1.0000
  H   H285      1.0  0.78656  0.65433  0.08513  1.0000
  H   H286      1.0  0.87506  0.48991  0.03355  1.0000
  C   C283      1.0  0.75627  0.65030  0.12628  1.0000
  H   H287      1.0  0.81435  0.49741  0.96825  1.0000
  C   C284      1.0  0.90290  0.44614  0.97268  1.0000
  C   C285      1.0  0.55717  0.63968  0.24001  1.0000
  C   C286      1.0  0.78235  0.65963  0.11147  1.0000
  C   C287      1.0  0.88376  0.45621  0.99743  1.0000
  H   H288      1.0  0.54186  0.62169  0.23415  1.0000
  H   H289      1.0  0.74074  0.63768  0.11170  1.0000
  C   C288      1.0  0.57004  0.66387  0.29342  1.0000
  H   H290      1.0  0.50335  0.65027  0.26192  1.0000
  N   N24       1.0  0.54894  0.65404  0.27171  1.0000
  C   C289      1.0  0.67138  0.47047  0.45522  1.0000
  H   H291      1.0  0.59287  0.66064  0.28774  1.0000
  Fe  Fe49      1.0  0.68661  0.38965  0.59355  1.0000
  S   S97       1.0  0.68920  0.37144  0.54035  1.0000
  S   S98       1.0  0.72673  0.37652  0.62567  1.0000
  Fe  Fe50      1.0  0.62195  0.40650  0.58194  1.0000
  S   S99       1.0  0.62118  0.38883  0.52908  1.0000
  S   S100      1.0  0.58032  0.42691  0.60215  1.0000
  Fe  Fe51      1.0  0.64590  0.35091  0.55119  1.0000
  Fe  Fe52      1.0  0.66441  0.41153  0.52305  1.0000
  C   C290      1.0  0.54254  0.46985  0.54081  1.0000
  S   S101      1.0  0.64396  0.36744  0.60468  1.0000
  S   S102      1.0  0.66448  0.43106  0.57552  1.0000
  Fe  Fe53      1.0  0.90803  0.38654  0.79824  1.0000
  S   S103      1.0  0.89877  0.38219  0.85413  1.0000
  S   S104      1.0  0.95244  0.37435  0.77627  1.0000
  Fe  Fe54      1.0  0.84454  0.40489  0.78104  1.0000
  S   S105      1.0  0.83192  0.40213  0.83642  1.0000
  S   S106      1.0  0.81112  0.42472  0.74335  1.0000
  Fe  Fe55      1.0  0.87427  0.42450  0.84886  1.0000
  S   S107      1.0  0.88558  0.46443  0.88190  1.0000
  Fe  Fe56      1.0  0.85748  0.36004  0.83691  1.0000
  S   S108      1.0  0.88576  0.42978  0.79328  1.0000
  S   S109      1.0  0.86783  0.36188  0.78112  1.0000
  C   C291      1.0  0.87159  0.48754  0.91434  1.0000
  H   H292      1.0  0.83458  0.47150  0.78044  1.0000
  C   C292      1.0  0.88810  0.51186  0.92423  1.0000
  C   C293      1.0  0.78863  0.48178  0.84654  1.0000
  H   H293      1.0  0.90872  0.51611  0.91193  1.0000
  C   C294      1.0  0.98678  0.38603  0.79215  1.0000
  H   H294      1.0  0.71432  0.45936  0.52380  1.0000
  H   H295      1.0  0.78739  0.45413  0.80245  1.0000
  H   H296      1.0  0.97045  0.42358  0.81796  1.0000
  H   H297      1.0  0.78776  0.37891  0.59922  1.0000
  C   C295      1.0  0.74810  0.38977  0.66047  1.0000
  C   C296      1.0  0.74563  0.41810  0.67269  1.0000
  C   C297      1.0  0.76491  0.42823  0.69815  1.0000
  C   C298      1.0  0.78659  0.41012  0.71233  1.0000
  C   C299      1.0  0.78870  0.38164  0.70051  1.0000
  C   C300      1.0  0.76974  0.37166  0.67466  1.0000
  H   H298      1.0  0.72911  0.43233  0.66228  1.0000
  H   H299      1.0  0.76296  0.45029  0.70704  1.0000
  H   H300      1.0  0.80526  0.36744  0.71093  1.0000
  H   H301      1.0  0.77204  0.34974  0.66545  1.0000
  C   C301      1.0  0.87034  0.51010  0.80851  1.0000
  H   H302      1.0  0.79679  0.51108  0.88810  1.0000
  C   C302      1.0  0.51653  0.36964  0.57549  1.0000
  S   S110      1.0  0.67483  0.43427  0.47195  1.0000
  H   H303      1.0  0.67999  0.49285  0.50209  1.0000
  C   C303      1.0  0.54615  0.40950  0.59649  1.0000
  H   H304      1.0  0.84410  0.52754  0.86539  1.0000
  C   C304      1.0  0.52051  0.42334  0.60728  1.0000
  H   H305      1.0  0.56351  0.37164  0.57220  1.0000
  H   H306      1.0  0.52196  0.44407  0.61990  1.0000
  H   H307      1.0  0.87600  0.53229  0.81716  1.0000
  N   N25       1.0  0.84169  0.50112  0.82109  1.0000
  H   H308      1.0  0.55894  0.45265  0.53582  1.0000
  C   C305      1.0  0.76021  0.44245  0.58903  1.0000
  C   C306      1.0  0.67792  0.52294  0.45968  1.0000
  H   H309      1.0  0.54511  0.47588  0.56802  1.0000
  C   C307      1.0  0.87841  0.53065  0.95011  1.0000
  H   H310      1.0  0.76814  0.47390  0.85666  1.0000
  N   N26       1.0  0.77219  0.41765  0.57623  1.0000
  H   H311      1.0  0.79806  0.41109  0.62126  1.0000
  C   C308      1.0  0.73074  0.44786  0.53845  1.0000
  C   C309      1.0  0.67639  0.49514  0.47506  1.0000
  H   H312      1.0  0.88723  0.49485  0.81818  1.0000
  C   C310      1.0  0.74293  0.42254  0.52567  1.0000
  C   C311      1.0  0.83134  0.51204  0.85099  1.0000
  C   C312      1.0  0.82616  0.48059  0.80380  1.0000
  H   H313      1.0  0.87091  0.51009  0.78025  1.0000
  C   C313      1.0  0.54398  0.38259  0.58050  1.0000
  H   H314      1.0  0.77274  0.38759  0.53524  1.0000
  C   C314      1.0  0.80462  0.50268  0.86407  1.0000
  H   H315      1.0  0.54776  0.48882  0.52442  1.0000
  C   C315      1.0  0.84489  0.48256  0.93039  1.0000
  H   H316      1.0  0.72938  0.47723  0.58080  1.0000
  H   H317      1.0  0.52570  0.41788  0.51758  1.0000
  H   H318      1.0  0.83188  0.46399  0.92321  1.0000
  H   H319      1.0  0.51523  0.34873  0.56330  1.0000
  C   C316      1.0  0.79939  0.47070  0.81615  1.0000
  H   H320      1.0  0.81562  0.40251  0.58169  1.0000
  C   C317      1.0  0.73924  0.45786  0.57040  1.0000
  H   H321      1.0  0.76656  0.45026  0.61395  1.0000
  H   H322      1.0  0.73582  0.41441  0.50110  1.0000
  N   N27       1.0  0.51272  0.45987  0.53430  1.0000
  C   C318      1.0  0.76368  0.40753  0.54508  1.0000
  C   C319      1.0  0.79459  0.40185  0.59548  1.0000
  H   H323      1.0  0.89146  0.54917  0.95733  1.0000
  C   C320      1.0  0.98966  0.41137  0.81121  1.0000
  C   C321      1.0  0.50773  0.43262  0.52196  1.0000
  C   C322      1.0  0.83501  0.50157  0.95600  1.0000
  H   H324      1.0  0.68293  0.54160  0.47519  1.0000
  H   H325      1.0  0.94320  0.45398  0.94639  1.0000
  H   H326      1.0  0.89736  0.42726  0.95759  1.0000
  S   S111      1.0  0.64066  0.69139  0.31883  1.0000
  Fe  Fe57      1.0  0.67662  0.89809  0.27340  1.0000
  S   S112      1.0  0.70433  0.89618  0.32036  1.0000
  S   S113      1.0  0.69620  0.89662  0.21948  1.0000
  Fe  Fe58      1.0  0.61928  0.89220  0.31559  1.0000
  S   S114      1.0  0.64466  0.88891  0.36471  1.0000
  S   S115      1.0  0.57072  0.88612  0.32698  1.0000
  Fe  Fe59      1.0  0.67123  0.92615  0.34453  1.0000
  S   S116      1.0  0.67940  0.97064  0.36940  1.0000
  Fe  Fe60      1.0  0.67468  0.85923  0.33590  1.0000
  S   S117      1.0  0.69466  0.81609  0.35285  1.0000
  S   S118      1.0  0.64492  0.93039  0.29597  1.0000
  S   S119      1.0  0.64791  0.86026  0.28837  1.0000
  S   S120      1.0  0.89012  0.69193  0.04745  1.0000
  Fe  Fe61      1.0  0.85889  0.92446  0.04131  1.0000
  S   S121      1.0  0.88328  0.92734  0.09129  1.0000
  S   S122      1.0  0.85041  0.96924  0.01638  1.0000
  Fe  Fe62      1.0  0.85105  0.85798  0.05126  1.0000
  S   S123      1.0  0.87469  0.85766  0.10107  1.0000
  S   S124      1.0  0.83260  0.81587  0.02969  1.0000
  Fe  Fe63      1.0  0.84834  0.89769  0.11269  1.0000
  S   S125      1.0  0.82773  0.90613  0.16517  1.0000
  Fe  Fe64      1.0  0.90710  0.88707  0.07489  1.0000
  S   S126      1.0  0.95475  0.87241  0.07171  1.0000
  S   S127      1.0  0.82292  0.89674  0.06388  1.0000
  S   S128      1.0  0.88434  0.88553  0.02397  1.0000
  H   H327      1.0  0.91457  0.73203  0.98838  1.0000
  H   H328      1.0  0.79279  0.96543  0.04580  1.0000
  H   H329      1.0  0.96944  0.77696  0.07292  1.0000
  C   C323      1.0  0.75742  0.95842  0.12127  1.0000
  H   H330      1.0  0.97159  0.92659  0.10628  1.0000
  C   C324      1.0  0.86881  0.72402  0.04943  1.0000
  C   C325      1.0  0.84512  0.72841  0.02753  1.0000
  C   C326      1.0  0.83333  0.75643  0.02306  1.0000
  C   C327      1.0  0.84506  0.78040  0.04036  1.0000
  C   C328      1.0  0.86764  0.77570  0.06375  1.0000
  C   C329      1.0  0.87950  0.74771  0.06811  1.0000
  H   H331      1.0  0.53644  0.84148  0.27163  1.0000
  H   H332      1.0  0.94933  0.74408  0.03405  1.0000
  H   H333      1.0  0.87686  0.79384  0.07734  1.0000
  H   H334      1.0  0.89806  0.74469  0.08477  1.0000
  C   C330      1.0  0.73299  0.89940  0.20507  1.0000
  C   C331      1.0  0.73955  0.89184  0.17125  1.0000
  C   C332      1.0  0.76833  0.89343  0.15868  1.0000
  C   C333      1.0  0.79101  0.90303  0.17967  1.0000
  C   C334      1.0  0.78441  0.91093  0.21335  1.0000
  C   C335      1.0  0.75569  0.90895  0.22605  1.0000
  H   H335      1.0  0.72223  0.88451  0.15467  1.0000
  H   H336      1.0  0.77291  0.88739  0.13268  1.0000
  H   H337      1.0  0.80167  0.91851  0.22986  1.0000
  H   H338      1.0  0.75110  0.91499  0.25204  1.0000
  C   C336      1.0  0.65692  0.72562  0.32783  1.0000
  C   C337      1.0  0.64140  0.75096  0.31928  1.0000
  C   C338      1.0  0.65276  0.77869  0.32646  1.0000
  C   C339      1.0  0.67979  0.78149  0.34263  1.0000
  C   C340      1.0  0.69547  0.75617  0.35098  1.0000
  C   C341      1.0  0.68418  0.72838  0.34354  1.0000
  H   H339      1.0  0.62030  0.74914  0.30720  1.0000
  H   H340      1.0  0.64034  0.79786  0.32002  1.0000
  H   H341      1.0  0.71636  0.75804  0.36356  1.0000
  H   H342      1.0  0.69634  0.70914  0.35043  1.0000
  C   C342      1.0  0.53401  0.91665  0.28263  1.0000
  C   C343      1.0  0.53720  0.90170  0.31351  1.0000
  C   C344      1.0  0.59049  0.94040  0.43384  1.0000
  H   H343      1.0  0.55286  0.92059  0.26683  1.0000
  H   H344      1.0  0.59208  0.94313  0.34765  1.0000
  H   H345      1.0  0.52706  0.69216  0.35506  1.0000
  C   C345      1.0  0.67293  0.96985  0.44037  1.0000
  C   C346      1.0  0.67689  0.98641  0.41078  1.0000
  C   C347      1.0  0.81179  0.97229  0.09543  1.0000
  H   H346      1.0  0.88808  0.82137  0.98379  1.0000
  H   H347      1.0  0.73641  0.95253  0.13183  1.0000
  H   H348      1.0  0.51459  0.88513  0.35749  1.0000
  H   H349      1.0  0.97563  0.81172  0.05292  1.0000
  C   C348      1.0  0.76179  0.95825  0.08615  1.0000
  H   H350      1.0  0.81587  0.75980  0.00492  1.0000
  C   C349      1.0  0.79745  0.68048  0.16370  1.0000
  H   H351      1.0  0.51729  0.82220  0.32577  1.0000
  C   C350      1.0  0.90224  0.80450  0.99382  1.0000
  C   C351      1.0  0.91713  0.75440  0.99634  1.0000
  H   H352      1.0  0.83709  0.71063  0.01232  1.0000
  N   N28       1.0  0.73486  0.82779  0.25202  1.0000
  H   H353      1.0  0.73909  0.82312  0.19834  1.0000
  H   H354      1.0  0.79051  0.83932  0.19729  1.0000
  H   H355      1.0  0.82786  0.97068  0.17886  1.0000
  N   N29       1.0  0.93874  0.78923  0.03404  1.0000
  C   C352      1.0  0.51315  0.84148  0.27626  1.0000
  C   C353      1.0  0.99112  0.91519  0.09891  1.0000
  C   C354      1.0  0.83020  0.68347  0.11487  1.0000
  C   C355      1.0  0.74981  0.82883  0.22200  1.0000
  C   C356      1.0  0.58741  0.93132  0.40024  1.0000
  H   H356      1.0  0.94639  0.80721  0.08283  1.0000
  C   C357      1.0  0.93668  0.76137  0.02242  1.0000
  H   H357      1.0  0.69596  0.81492  0.27810  1.0000
  H   H358      1.0  0.92351  0.83270  0.02934  1.0000
  N   N30       1.0  0.80749  0.97182  0.12984  1.0000
  C   C358      1.0  0.78059  0.96557  0.14285  1.0000
  C   C359      1.0  0.95859  0.79643  0.06202  1.0000
  C   C360      1.0  0.85344  0.98602  0.97527  1.0000
  H   H359      1.0  0.58015  0.90945  0.39463  1.0000
  H   H360      1.0  0.78684  0.85318  0.30526  1.0000
  H   H361      1.0  0.70234  0.79702  0.23865  1.0000
  C   C361      1.0  0.78906  0.96548  0.07308  1.0000
  H   H362      1.0  0.81394  0.69126  0.17884  1.0000
  C   C362      1.0  0.70447  0.81810  0.25189  1.0000
  H   H363      1.0  0.69068  0.83454  0.23876  1.0000
  C   C363      1.0  0.98884  0.88861  0.08210  1.0000
  C   C364      1.0  0.92206  0.81072  0.01987  1.0000
  C   C365      1.0  0.51241  0.89663  0.33355  1.0000
  C   C366      1.0  0.74789  0.83641  0.28164  1.0000
  C   C367      1.0  0.56253  0.67782  0.32363  1.0000
  H   H364      1.0  0.73594  0.83610  0.30539  1.0000
  H   H365      1.0  0.81460  0.85465  0.25083  1.0000
  C   C368      1.0  0.53321  0.68200  0.33134  1.0000
  H   H366      1.0  0.57947  0.68504  0.34099  1.0000
  C   C369      1.0  0.77885  0.83799  0.22124  1.0000
  C   C370      1.0  0.77145  0.67179  0.17920  1.0000
  H   H367      1.0  0.77710  0.96522  0.17014  1.0000
  C   C371      1.0  0.77678  0.84603  0.28175  1.0000
  H   H368      1.0  0.67192  0.94647  0.43867  1.0000
  C   C372      1.0  0.79235  0.84670  0.25133  1.0000
  C   C373      1.0  0.51183  0.67249  0.30870  1.0000
  C   C374      1.0  0.59431  0.95046  0.37371  1.0000
  H   H369      1.0  0.74416  0.95241  0.06908  1.0000
  H   H370      1.0  0.83579  0.70613  0.12173  1.0000
  N   N31       1.0  0.60421  0.97780  0.38051  1.0000
  H   H371      1.0  0.84781  0.66884  0.12405  1.0000
  H   H372      1.0  0.50368  0.93636  0.24718  1.0000
  H   H373      1.0  0.83301  0.97763  0.08508  1.0000
  C   C375      1.0  0.50607  0.92545  0.27148  1.0000
  H   H374      1.0  0.62178  0.98531  0.33121  1.0000
  H   H375      1.0  0.50240  0.86293  0.22899  1.0000
  C   C376      1.0  0.89968  0.77611  0.98217  1.0000
  H   H376      1.0  0.85211  0.96860  0.14386  1.0000
  C   C377      1.0  0.83170  0.97908  0.15266  1.0000
  N   N32       1.0  0.80244  0.67470  0.13013  1.0000
  H   H377      1.0  0.88349  0.77080  0.96303  1.0000
  C   C378      1.0  0.59984  0.96858  0.44054  1.0000
  H   H378      1.0  0.82957  0.68251  0.08663  1.0000
  H   H379      1.0  0.76782  0.67579  0.20601  1.0000
  H   H380      1.0  0.58580  0.92555  0.45463  1.0000
  C   C379      1.0  0.60638  0.98720  0.41338  1.0000
  C   C380      1.0  0.61143  0.99744  0.35232  1.0000
  C   C381      1.0  0.50216  0.83079  0.30703  1.0000
  H   H381      1.0  0.66788  0.97042  0.49502  1.0000
  H   H382      1.0  0.86480  0.94750  0.94783  1.0000
  C   C382      1.0  0.67057  0.98356  0.47236  1.0000
  H   H383      1.0  0.86758  0.97244  0.89164  1.0000
  C   C383      1.0  0.86223  0.98481  0.91405  1.0000
  C   C384      1.0  0.86072  0.97055  0.94599  1.0000
  H   H384      1.0  0.60274  0.97584  0.46656  1.0000
