data_image0
_chemical_formula_structural       H2FeS2FeS2FeHFeS3FeS2FeS2FeSFeS3CH2C2HC6H4C6H6SCHCH2CHCNC5H2CNC6H10CH2C3SH2C3H2CHCH2CHCHCHCNC3H2C3HCSFeS2HC2H2S3FeS2FeH2FeS2C2HCH2C8H7NC6H5CH3CFeSNC2FeH3CFeCHFeS2FeS2FeSFeS3FeS2FeS2FeSFeS4C3H2C7H4C6H4NC3H2CHC4H3C4HC2HCH8CHCHNC6H6SCHCHC2H5C4NH2CHC2H5NH2C5NC4H4CH2CH2S2CHFeCFeS2FeS2FeSFeS3FeS2FeS2FeSFeS3HNC6H4C6H5CH2CH4C2HCH2C3H2SCSCNC6H6NHNCH4C3HC2HSHC4H2CH5C2H2CHC2H2CHNC2HCH3CNH2C2HC3HSFeSHFeS2CHSHCSCFeSHSHCHCH2CNC2H2CHCNC2H3C6H5CSCH3CHC5FeHSFeCHC2H3FeH2FeC2HFeH2CHFeS2FeS2FeSFeNS2FeS2FeS2FeSFeS3C2HCHCH2C3HC6H5C6H5C2H5C2HC3NH2C2HNC6H8C2H2NCH2C3H5C2HC2H2CH5C4HNSC2HSH2CHC2HC4HSHCSCFeS2FeS2FeSFeS3FeS2FeS2FeSFeS3HCSC4H3C6H5CHC7H4CHC4NH2C2H5C2HNC6H4CH3C2H6CH3CHN2C2NCHCHCSCH2C2H2SH2C4HCNC4H11C2HC3H2C3FeH3C2FeS2FeHFeCS2FeSH2SFeSHS2C6H4C2FeCH2NH2C2H2C2H2C2HCH3C2H2SCNC4HCFeHCSH4CH2FeSHFeS2FeSFeS3FeS2FeS2FeSFeS3CSC2H2C2H3CHCH2C6H5C6H4C4HCHNC6H8CHC2HNH2CH6NC6H8SC3HCHCNSCNHC2H2CHCHC2HFeS2FeS2FeCFeS3FeS2FeS2FeSFeS3HSNCHC2HC2H2C7H4CH2SH2CH2C7H5CHFeN2C7H3CHCH2CH2CHC6H4CNC6H8SH3SCHCH2C2H2CHC2HCSHCHC3HNH2CFeHCFeC2HCHSH2SCFeS3FeS2HFeSFeCS2C2H2CFeH2C3H3C6H4NH2SHC3H2NC6H6CH2C2H2FeS2FeS2FeSFeS3FeS2FeS2FeHFeS3CHCH7CHCHC2HC3HC6H4C6H5C2H3C4H4NC6H3C2NHC2HS2H2CHCHC2H3NCHC5HCHC2NHNC5H4CH7
_chemical_formula_sum              "H576 Fe96 S192 C576 N48"
_cell_length_a       46.4875
_cell_length_b       46.4433
_cell_length_c       47.1758
_cell_angle_alpha    85.8657
_cell_angle_beta     86.2317
_cell_angle_gamma    86.2827

_space_group_name_H-M_alt    "P 1"
_space_group_IT_number       1

loop_
  _space_group_symop_operation_xyz
  'x, y, z'

loop_
  _atom_site_type_symbol
  _atom_site_label
  _atom_site_symmetry_multiplicity
  _atom_site_fract_x
  _atom_site_fract_y
  _atom_site_fract_z
  _atom_site_occupancy
  H   H1        1.0  0.43083  0.09796  0.15103  1.0000
  H   H2        1.0  0.24116  0.99135  0.31305  1.0000
  Fe  Fe1       1.0  0.12999  0.35250  0.24878  1.0000
  S   S1        1.0  0.15470  0.37197  0.28154  1.0000
  S   S2        1.0  0.08254  0.36837  0.25206  1.0000
  Fe  Fe2       1.0  0.18616  0.32659  0.21985  1.0000
  S   S3        1.0  0.21374  0.34523  0.24998  1.0000
  S   S4        1.0  0.20762  0.30121  0.18410  1.0000
  Fe  Fe3       1.0  0.18082  0.32927  0.28333  1.0000
  H   H3        1.0  0.08369  0.46920  0.30010  1.0000
  Fe  Fe4       1.0  0.18492  0.38560  0.24475  1.0000
  S   S5        1.0  0.20345  0.42872  0.23077  1.0000
  S   S6        1.0  0.15404  0.30868  0.25341  1.0000
  S   S7        1.0  0.15938  0.36813  0.21188  1.0000
  Fe  Fe5       1.0  0.36463  0.25402  0.14188  1.0000
  S   S8        1.0  0.33554  0.22200  0.12803  1.0000
  S   S9        1.0  0.34437  0.29091  0.16652  1.0000
  Fe  Fe6       1.0  0.41942  0.21932  0.12181  1.0000
  S   S10       1.0  0.39341  0.18458  0.10679  1.0000
  S   S11       1.0  0.46800  0.20954  0.11464  1.0000
  Fe  Fe7       1.0  0.36508  0.22125  0.08819  1.0000
  S   S12       1.0  0.34284  0.22403  0.04630  1.0000
  Fe  Fe8       1.0  0.36652  0.18894  0.14790  1.0000
  S   S13       1.0  0.34991  0.15077  0.17556  1.0000
  S   S14       1.0  0.39241  0.25599  0.10078  1.0000
  S   S15       1.0  0.39443  0.22089  0.16411  1.0000
  C   C1        1.0  0.19184  0.46050  0.24768  1.0000
  H   H4        1.0  0.46272  0.19079  0.17937  1.0000
  H   H5        1.0  0.39401  0.10184  0.16614  1.0000
  C   C2        1.0  0.17526  0.45941  0.27347  1.0000
  C   C3        1.0  0.09416  0.46790  0.27898  1.0000
  H   H6        1.0  0.17002  0.43874  0.28391  1.0000
  C   C4        1.0  0.24573  0.29646  0.18053  1.0000
  C   C5        1.0  0.25893  0.28616  0.15531  1.0000
  C   C6        1.0  0.28919  0.28325  0.15130  1.0000
  C   C7        1.0  0.30652  0.29054  0.17255  1.0000
  C   C8        1.0  0.29334  0.29995  0.19811  1.0000
  C   C9        1.0  0.26309  0.30274  0.20214  1.0000
  H   H7        1.0  0.24573  0.28089  0.13857  1.0000
  H   H8        1.0  0.29909  0.27637  0.13132  1.0000
  H   H9        1.0  0.30659  0.30545  0.21472  1.0000
  H   H10       1.0  0.25340  0.30963  0.22204  1.0000
  C   C10       1.0  0.34693  0.15265  0.27278  1.0000
  C   C11       1.0  0.33582  0.12971  0.26018  1.0000
  C   C12       1.0  0.33636  0.12956  0.23031  1.0000
  C   C13       1.0  0.34733  0.15265  0.21290  1.0000
  C   C14       1.0  0.35718  0.17614  0.22560  1.0000
  C   C15       1.0  0.35743  0.17590  0.25538  1.0000
  H   H11       1.0  0.32776  0.11162  0.27345  1.0000
  H   H12       1.0  0.32852  0.11136  0.22066  1.0000
  H   H13       1.0  0.36526  0.19425  0.21256  1.0000
  H   H14       1.0  0.36593  0.19379  0.26499  1.0000
  H   H15       1.0  0.40565  0.12654  0.13791  1.0000
  H   H16       1.0  0.20701  0.35910  0.15311  1.0000
  S   S16       1.0  0.19844  0.30531  0.32267  1.0000
  C   C16       1.0  0.36002  0.22169  0.01179  1.0000
  H   H17       1.0  0.26034  0.39630  0.22113  1.0000
  C   C17       1.0  0.22800  0.36146  0.14064  1.0000
  H   H18       1.0  0.41603  0.14430  0.24790  1.0000
  H   H19       1.0  0.12002  0.41877  0.23229  1.0000
  C   C18       1.0  0.44078  0.16957  0.21600  1.0000
  H   H20       1.0  0.40208  0.20798  0.02595  1.0000
  C   C19       1.0  0.10070  0.44103  0.26787  1.0000
  N   N1        1.0  0.42252  0.13290  0.17762  1.0000
  C   C20       1.0  0.38927  0.21300  0.00770  1.0000
  C   C21       1.0  0.03256  0.31283  0.21700  1.0000
  C   C22       1.0  0.05672  0.32552  0.22626  1.0000
  C   C23       1.0  0.05299  0.35107  0.24040  1.0000
  C   C24       1.0  0.02493  0.36367  0.24533  1.0000
  H   H21       1.0  0.07820  0.31565  0.22231  1.0000
  H   H22       1.0  0.02188  0.38339  0.25630  1.0000
  C   C25       1.0  0.24428  0.38042  0.18366  1.0000
  N   N2        1.0  0.26760  0.20361  0.25781  1.0000
  C   C26       1.0  0.24770  0.22658  0.25947  1.0000
  C   C27       1.0  0.27649  0.19342  0.23198  1.0000
  C   C28       1.0  0.23512  0.23901  0.23499  1.0000
  C   C29       1.0  0.26466  0.20556  0.20702  1.0000
  C   C30       1.0  0.24352  0.22821  0.20867  1.0000
  C   C31       1.0  0.28055  0.19066  0.28362  1.0000
  H   H23       1.0  0.24138  0.23536  0.27977  1.0000
  H   H24       1.0  0.29273  0.17573  0.23058  1.0000
  H   H25       1.0  0.21913  0.25707  0.23634  1.0000
  H   H26       1.0  0.27192  0.19750  0.18655  1.0000
  H   H27       1.0  0.23385  0.23762  0.18954  1.0000
  H   H28       1.0  0.26580  0.19352  0.30280  1.0000
  H   H29       1.0  0.28493  0.16696  0.28241  1.0000
  H   H30       1.0  0.30116  0.20064  0.28653  1.0000
  H   H31       1.0  0.22564  0.37962  0.12420  1.0000
  H   H32       1.0  0.46927  0.25021  0.15928  1.0000
  C   C32       1.0  0.27906  0.35870  0.15138  1.0000
  H   H33       1.0  0.44720  0.18441  0.23084  1.0000
  H   H34       1.0  0.03566  0.29318  0.20589  1.0000
  C   C33       1.0  0.29457  0.37718  0.19402  1.0000
  C   C34       1.0  0.00078  0.35093  0.23616  1.0000
  C   C35       1.0  0.26592  0.38577  0.20151  1.0000
  S   S17       1.0  0.35007  0.15209  0.30986  1.0000
  H   H35       1.0  0.31149  0.38064  0.20796  1.0000
  H   H36       1.0  0.28439  0.34750  0.13214  1.0000
  C   C36       1.0  0.49105  0.24153  0.15428  1.0000
  C   C37       1.0  0.30127  0.36375  0.16870  1.0000
  C   C38       1.0  0.44006  0.15456  0.16813  1.0000
  H   H37       1.0  0.32338  0.35622  0.16301  1.0000
  H   H38       1.0  0.09510  0.42122  0.28010  1.0000
  C   C39       1.0  0.18788  0.22011  0.31437  1.0000
  H   H39       1.0  0.30619  0.99917  0.29266  1.0000
  C   C40       1.0  0.42341  0.14703  0.22559  1.0000
  H   H40       1.0  0.22207  0.38707  0.18971  1.0000
  H   H41       1.0  0.15221  0.48418  0.30561  1.0000
  C   C41       1.0  0.44943  0.17321  0.18715  1.0000
  H   H42       1.0  0.23277  0.34084  0.13015  1.0000
  C   C42       1.0  0.16529  0.48518  0.28577  1.0000
  H   H43       1.0  0.40033  0.11177  0.21353  1.0000
  C   C43       1.0  0.19886  0.48750  0.23457  1.0000
  H   H44       1.0  0.44647  0.15789  0.14564  1.0000
  C   C44       1.0  0.41296  0.11371  0.15721  1.0000
  N   N3        1.0  0.25095  0.36664  0.15920  1.0000
  C   C45       1.0  0.00452  0.32548  0.22185  1.0000
  C   C46       1.0  0.41456  0.12868  0.20600  1.0000
  C   C47       1.0  0.11477  0.43962  0.24094  1.0000
  H   H45       1.0  0.17279  0.20728  0.30507  1.0000
  H   H46       1.0  0.16765  0.26088  0.29873  1.0000
  C   C48       1.0  0.18507  0.25050  0.31055  1.0000
  C   C49       1.0  0.12228  0.46517  0.22548  1.0000
  C   C50       1.0  0.20389  0.26732  0.32322  1.0000
  H   H47       1.0  0.13378  0.46377  0.20482  1.0000
  C   C51       1.0  0.20974  0.20630  0.33051  1.0000
  S   S18       1.0  0.27765  0.11075  0.32990  1.0000
  Fe  Fe9       1.0  0.25833  0.10949  0.61038  1.0000
  S   S19       1.0  0.22335  0.09045  0.64010  1.0000
  S   S20       1.0  0.24820  0.10525  0.56420  1.0000
  H   H48       1.0  0.34112  0.09674  0.50830  1.0000
  C   C52       1.0  0.28803  0.05123  0.50679  1.0000
  C   C53       1.0  0.32576  0.08360  0.49973  1.0000
  H   H49       1.0  0.16567  0.25858  0.37456  1.0000
  H   H50       1.0  0.26922  0.03950  0.46871  1.0000
  S   S21       1.0  0.29471  0.08408  0.63218  1.0000
  S   S22       1.0  0.26081  0.14876  0.63552  1.0000
  S   S23       1.0  0.21151  0.16817  0.33633  1.0000
  Fe  Fe10      1.0  0.29090  0.14010  0.40345  1.0000
  S   S24       1.0  0.25148  0.11697  0.39618  1.0000
  S   S25       1.0  0.30008  0.15832  0.44516  1.0000
  Fe  Fe11      1.0  0.31495  0.13517  0.34106  1.0000
  H   H51       1.0  0.29192  0.05755  0.56069  1.0000
  H   H52       1.0  0.25938  0.01397  0.62182  1.0000
  Fe  Fe12      1.0  0.28226  0.08611  0.37266  1.0000
  S   S26       1.0  0.32193  0.10839  0.38194  1.0000
  S   S27       1.0  0.28810  0.16933  0.36361  1.0000
  C   C54       1.0  0.25683  0.99309  0.63312  1.0000
  C   C55       1.0  0.22599  0.25352  0.33900  1.0000
  H   H53       1.0  0.19649  0.24972  0.64636  1.0000
  C   C56       1.0  0.30336  0.06842  0.45901  1.0000
  H   H54       1.0  0.30117  0.06935  0.43618  1.0000
  H   H55       1.0  0.25558  0.21796  0.43844  1.0000
  C   C57       1.0  0.32367  0.08454  0.47020  1.0000
  C   C58       1.0  0.28538  0.05166  0.47734  1.0000
  C   C59       1.0  0.26139  0.12260  0.53178  1.0000
  C   C60       1.0  0.25041  0.11522  0.50639  1.0000
  C   C61       1.0  0.26174  0.12638  0.47978  1.0000
  C   C62       1.0  0.28409  0.14525  0.47830  1.0000
  C   C63       1.0  0.29462  0.15327  0.50370  1.0000
  C   C64       1.0  0.28341  0.14188  0.53038  1.0000
  H   H56       1.0  0.23335  0.10033  0.50732  1.0000
  H   H57       1.0  0.25343  0.11998  0.46048  1.0000
  H   H58       1.0  0.31184  0.16797  0.50273  1.0000
  H   H59       1.0  0.29198  0.14778  0.54980  1.0000
  H   H60       1.0  0.31347  0.08794  0.55551  1.0000
  H   H61       1.0  0.33699  0.09850  0.45613  1.0000
  H   H62       1.0  0.33052  0.05180  0.55401  1.0000
  N   N4        1.0  0.19520  0.23699  0.40314  1.0000
  C   C65       1.0  0.21944  0.24005  0.41738  1.0000
  C   C66       1.0  0.18674  0.21002  0.39887  1.0000
  C   C67       1.0  0.23612  0.21570  0.42742  1.0000
  C   C68       1.0  0.20297  0.18525  0.40852  1.0000
  C   C69       1.0  0.22770  0.18819  0.42300  1.0000
  C   C70       1.0  0.17762  0.26274  0.39339  1.0000
  H   H63       1.0  0.22614  0.26139  0.42082  1.0000
  H   H64       1.0  0.16786  0.20748  0.38712  1.0000
  H   H65       1.0  0.20430  0.19615  0.64705  1.0000
  H   H66       1.0  0.19670  0.16395  0.40423  1.0000
  H   H67       1.0  0.24049  0.16922  0.43067  1.0000
  C   C71       1.0  0.27396  0.00893  0.37142  1.0000
  H   H68       1.0  0.19141  0.28098  0.38637  1.0000
  H   H69       1.0  0.16193  0.26950  0.41075  1.0000
  H   H70       1.0  0.27358  0.03863  0.52098  1.0000
  C   C72       1.0  0.31126  0.06590  0.54840  1.0000
  Fe  Fe13      1.0  0.25094  0.14407  0.35451  1.0000
  S   S28       1.0  0.28595  0.03846  0.38816  1.0000
  N   N5        1.0  0.30802  0.06714  0.51760  1.0000
  C   C73       1.0  0.22898  0.22319  0.34252  1.0000
  C   C74       1.0  0.25185  0.98835  0.33284  1.0000
  Fe  Fe14      1.0  0.29392  0.12160  0.66045  1.0000
  H   H71       1.0  0.25534  0.03421  0.33642  1.0000
  H   H72       1.0  0.24551  0.21307  0.35547  1.0000
  H   H73       1.0  0.24051  0.26637  0.34903  1.0000
  C   C75       1.0  0.25991  0.01265  0.34599  1.0000
  Fe  Fe15      1.0  0.25969  0.06714  0.66290  1.0000
  C   C76       1.0  0.25539  0.99079  0.66288  1.0000
  H   H74       1.0  0.33224  0.99901  0.33694  1.0000
  Fe  Fe16      1.0  0.13322  0.36570  0.75406  1.0000
  S   S29       1.0  0.11996  0.34249  0.79582  1.0000
  S   S30       1.0  0.11715  0.41295  0.74973  1.0000
  Fe  Fe17      1.0  0.15412  0.30864  0.72830  1.0000
  S   S31       1.0  0.14125  0.28206  0.76807  1.0000
  S   S32       1.0  0.17394  0.28781  0.68907  1.0000
  Fe  Fe18      1.0  0.10083  0.31118  0.76943  1.0000
  S   S33       1.0  0.05712  0.29361  0.78231  1.0000
  Fe  Fe19      1.0  0.16185  0.31590  0.78996  1.0000
  S   S34       1.0  0.18952  0.30253  0.82695  1.0000
  S   S35       1.0  0.11195  0.33541  0.72788  1.0000
  S   S36       1.0  0.17683  0.34158  0.75012  1.0000
  Fe  Fe20      1.0  0.41914  0.23372  0.82140  1.0000
  S   S37       1.0  0.40978  0.19219  0.84644  1.0000
  S   S38       1.0  0.46408  0.24517  0.80399  1.0000
  Fe  Fe21      1.0  0.35591  0.25723  0.82935  1.0000
  S   S39       1.0  0.34301  0.21803  0.85682  1.0000
  S   S40       1.0  0.32549  0.29353  0.81213  1.0000
  Fe  Fe22      1.0  0.38516  0.22063  0.87758  1.0000
  S   S41       1.0  0.40208  0.21105  0.92182  1.0000
  Fe  Fe23      1.0  0.36901  0.19382  0.82312  1.0000
  S   S42       1.0  0.34787  0.15591  0.80732  1.0000
  S   S43       1.0  0.39576  0.26227  0.85286  1.0000
  S   S44       1.0  0.38040  0.23282  0.79515  1.0000
  S   S45       1.0  0.26167  0.10271  0.69249  1.0000
  C   C77       1.0  0.36152  0.15434  0.93041  1.0000
  C   C78       1.0  0.38540  0.21657  0.95602  1.0000
  C   C79       1.0  0.35624  0.22561  0.96004  1.0000
  H   H75       1.0  0.06814  0.37889  0.77303  1.0000
  H   H76       1.0  0.34338  0.23051  0.94182  1.0000
  C   C80       1.0  0.26296  0.18622  0.70360  1.0000
  C   C81       1.0  0.34417  0.15265  0.77055  1.0000
  C   C82       1.0  0.36226  0.16619  0.74948  1.0000
  C   C83       1.0  0.35914  0.16224  0.72048  1.0000
  C   C84       1.0  0.33751  0.14529  0.71225  1.0000
  C   C85       1.0  0.31946  0.13187  0.73341  1.0000
  C   C86       1.0  0.32293  0.13533  0.76235  1.0000
  H   H77       1.0  0.37901  0.17925  0.75551  1.0000
  H   H78       1.0  0.37335  0.17261  0.70433  1.0000
  H   H79       1.0  0.30310  0.11838  0.72762  1.0000
  H   H80       1.0  0.30905  0.12446  0.77845  1.0000
  C   C87       1.0  0.22697  0.29474  0.82058  1.0000
  C   C88       1.0  0.24320  0.28250  0.84298  1.0000
  C   C89       1.0  0.27355  0.27983  0.83986  1.0000
  C   C90       1.0  0.28784  0.29000  0.81446  1.0000
  C   C91       1.0  0.27159  0.30104  0.79163  1.0000
  C   C92       1.0  0.24123  0.30312  0.79455  1.0000
  H   H81       1.0  0.23229  0.27598  0.86318  1.0000
  H   H82       1.0  0.28590  0.27152  0.85765  1.0000
  H   H83       1.0  0.28253  0.30900  0.77193  1.0000
  H   H84       1.0  0.22899  0.31251  0.77712  1.0000
  N   N6        1.0  0.32291  0.14895  0.88881  1.0000
  C   C93       1.0  0.18166  0.20278  0.71639  1.0000
  C   C94       1.0  0.17770  0.23299  0.71611  1.0000
  C   C95       1.0  0.18246  0.25009  0.69082  1.0000
  H   H85       1.0  0.17709  0.18974  0.73592  1.0000
  H   H86       1.0  0.17040  0.24286  0.73539  1.0000
  C   C96       1.0  0.33234  0.16251  0.93541  1.0000
  H   H87       1.0  0.06696  0.38977  0.71978  1.0000
  C   C97       1.0  0.16784  0.44097  0.75265  1.0000
  C   C98       1.0  0.13774  0.44342  0.75190  1.0000
  C   C99       1.0  0.12332  0.47094  0.75251  1.0000
  C   C100      1.0  0.19116  0.18937  0.69153  1.0000
  H   H88       1.0  0.17915  0.42001  0.75146  1.0000
  H   H89       1.0  0.46768  0.22750  0.93201  1.0000
  H   H90       1.0  0.37667  0.15680  0.94652  1.0000
  C   C101      1.0  0.99878  0.29657  0.77526  1.0000
  C   C102      1.0  0.10715  0.25371  0.69315  1.0000
  C   C103      1.0  0.02804  0.31930  0.73678  1.0000
  C   C104      1.0  0.02609  0.30369  0.76323  1.0000
  H   H91       1.0  0.12954  0.22317  0.66625  1.0000
  C   C105      1.0  0.18331  0.46591  0.75405  1.0000
  C   C106      1.0  0.08395  0.23332  0.73654  1.0000
  H   H92       1.0  0.04886  0.32486  0.72721  1.0000
  C   C107      1.0  0.19710  0.20637  0.66639  1.0000
  H   H93       1.0  0.17176  0.36469  0.82851  1.0000
  H   H94       1.0  0.17514  0.38510  0.79506  1.0000
  H   H95       1.0  0.26117  0.23611  0.78492  1.0000
  H   H96       1.0  0.10007  0.47305  0.75183  1.0000
  H   H97       1.0  0.29066  0.16673  0.91800  1.0000
  H   H98       1.0  0.28066  0.14246  0.87591  1.0000
  H   H99       1.0  0.17807  0.40287  0.82737  1.0000
  H   H100      1.0  0.34033  0.23130  0.73256  1.0000
  C   C108      1.0  0.00285  0.32804  0.72271  1.0000
  H   H101      1.0  0.35955  0.13386  0.86306  1.0000
  C   C109      1.0  0.47289  0.27570  0.87457  1.0000
  H   H102      1.0  0.42434  0.20308  0.97704  1.0000
  N   N7        1.0  0.21472  0.37567  0.81568  1.0000
  C   C110      1.0  0.23156  0.38400  0.79199  1.0000
  C   C111      1.0  0.22706  0.36210  0.83901  1.0000
  C   C112      1.0  0.26153  0.37819  0.79103  1.0000
  C   C113      1.0  0.25696  0.35609  0.83882  1.0000
  C   C114      1.0  0.27426  0.36413  0.81463  1.0000
  C   C115      1.0  0.18342  0.38249  0.81672  1.0000
  H   H103      1.0  0.22184  0.39483  0.77351  1.0000
  H   H104      1.0  0.21365  0.35485  0.85752  1.0000
  H   H105      1.0  0.27476  0.38404  0.77193  1.0000
  H   H106      1.0  0.26656  0.34420  0.85686  1.0000
  H   H107      1.0  0.29735  0.35849  0.81386  1.0000
  H   H108      1.0  0.00451  0.34030  0.70234  1.0000
  S   S46       1.0  0.19294  0.15136  0.69231  1.0000
  C   C116      1.0  0.27353  0.22875  0.76620  1.0000
  H   H109      1.0  0.39423  0.13890  0.89975  1.0000
  C   C117      1.0  0.30437  0.21060  0.71773  1.0000
  H   H110      1.0  0.08839  0.18703  0.74278  1.0000
  C   C118      1.0  0.30239  0.23527  0.76115  1.0000
  C   C119      1.0  0.26079  0.21265  0.74694  1.0000
  H   H111      1.0  0.23833  0.20766  0.75086  1.0000
  H   H112      1.0  0.08346  0.27889  0.72458  1.0000
  H   H113      1.0  0.31277  0.24731  0.77608  1.0000
  H   H114      1.0  0.20661  0.46396  0.75430  1.0000
  H   H115      1.0  0.05550  0.42493  0.73151  1.0000
  C   C120      1.0  0.31787  0.22637  0.73667  1.0000
  C   C121      1.0  0.09362  0.20568  0.72867  1.0000
  C   C122      1.0  0.40182  0.21029  0.97994  1.0000
  C   C123      1.0  0.37137  0.14416  0.90420  1.0000
  N   N8        1.0  0.27649  0.20319  0.72347  1.0000
  H   H116      1.0  0.30975  0.12893  0.85279  1.0000
  H   H117      1.0  0.04078  0.35447  0.81360  1.0000
  C   C124      1.0  0.34360  0.22796  0.98784  1.0000
  H   H118      1.0  0.25292  0.20085  0.68689  1.0000
  C   C125      1.0  0.46041  0.25686  0.89551  1.0000
  C   C126      1.0  0.02942  0.36525  0.79605  1.0000
  H   H119      1.0  0.30160  0.16729  0.85285  1.0000
  H   H120      1.0  0.13148  0.16137  0.71295  1.0000
  H   H121      1.0  0.47124  0.20385  0.85265  1.0000
  H   H122      1.0  0.32477  0.17134  0.95546  1.0000
  H   H123      1.0  0.07139  0.23619  0.75651  1.0000
  N   N9        1.0  0.03084  0.39071  0.74985  1.0000
  H   H124      1.0  0.46003  0.28592  0.85779  1.0000
  H   H125      1.0  0.03502  0.40814  0.70649  1.0000
  C   C127      1.0  0.35165  0.14156  0.88350  1.0000
  C   C128      1.0  0.31323  0.15986  0.91415  1.0000
  C   C129      1.0  0.04773  0.40413  0.72566  1.0000
  C   C130      1.0  0.30265  0.14683  0.86661  1.0000
  C   C131      1.0  0.11901  0.17292  0.69579  1.0000
  N   N10       1.0  0.10957  0.20221  0.70358  1.0000
  C   C132      1.0  0.04483  0.37869  0.77285  1.0000
  C   C133      1.0  0.47735  0.24264  0.91610  1.0000
  C   C134      1.0  0.09074  0.25741  0.71859  1.0000
  C   C135      1.0  0.00140  0.39057  0.74959  1.0000
  H   H126      1.0  0.43773  0.25287  0.89553  1.0000
  H   H127      1.0  0.10008  0.16054  0.69224  1.0000
  H   H128      1.0  0.13356  0.17310  0.67608  1.0000
  H   H129      1.0  0.99710  0.28437  0.79567  1.0000
  C   C136      1.0  0.11635  0.22577  0.68585  1.0000
  H   H130      1.0  0.32095  0.23473  0.99087  1.0000
  H   H131      1.0  0.31650  0.20374  0.69867  1.0000
  C   C137      1.0  0.99947  0.36459  0.79578  1.0000
  H   H132      1.0  0.24632  0.17264  0.71478  1.0000
  H   H133      1.0  0.27907  0.17107  0.69315  1.0000
  S   S47       1.0  0.25864  0.02108  0.68288  1.0000
  S   S48       1.0  0.33276  0.14267  0.67545  1.0000
  C   C138      1.0  0.19263  0.23668  0.66604  1.0000
  H   H134      1.0  0.11330  0.27239  0.67943  1.0000
  Fe  Fe24      1.0  0.22870  0.12777  0.66660  1.0000
  C   C139      1.0  0.49200  0.21216  0.84610  1.0000
  Fe  Fe25      1.0  0.35732  0.71029  0.14603  1.0000
  S   S49       1.0  0.32607  0.74553  0.13024  1.0000
  S   S50       1.0  0.34104  0.66966  0.16965  1.0000
  Fe  Fe26      1.0  0.40983  0.74346  0.12399  1.0000
  S   S51       1.0  0.38139  0.78114  0.10738  1.0000
  S   S52       1.0  0.45719  0.75145  0.11319  1.0000
  Fe  Fe27      1.0  0.35516  0.77480  0.14877  1.0000
  S   S53       1.0  0.33638  0.81253  0.17322  1.0000
  Fe  Fe28      1.0  0.35539  0.74801  0.09045  1.0000
  S   S54       1.0  0.33456  0.75581  0.04803  1.0000
  S   S55       1.0  0.38539  0.73961  0.16671  1.0000
  S   S56       1.0  0.38494  0.71033  0.10471  1.0000
  Fe  Fe29      1.0  0.12276  0.64443  0.25811  1.0000
  S   S57       1.0  0.13927  0.62178  0.29785  1.0000
  S   S58       1.0  0.07707  0.66524  0.25998  1.0000
  Fe  Fe30      1.0  0.18230  0.63786  0.22687  1.0000
  S   S59       1.0  0.20273  0.61375  0.26415  1.0000
  S   S60       1.0  0.20694  0.65351  0.18628  1.0000
  Fe  Fe31      1.0  0.16180  0.58982  0.26902  1.0000
  S   S61       1.0  0.15463  0.54370  0.28631  1.0000
  Fe  Fe32      1.0  0.17833  0.64766  0.28951  1.0000
  S   S62       1.0  0.14299  0.61122  0.22937  1.0000
  S   S63       1.0  0.16029  0.67307  0.25207  1.0000
  S   S64       1.0  0.33191  0.80695  0.30808  1.0000
  H   H135      1.0  0.07005  0.60835  0.23949  1.0000
  N   N11       1.0  0.10066  0.68786  0.32857  1.0000
  C   C140      1.0  0.33243  0.80883  0.21078  1.0000
  C   C141      1.0  0.34667  0.78601  0.22624  1.0000
  C   C142      1.0  0.34605  0.78550  0.25611  1.0000
  C   C143      1.0  0.33050  0.80731  0.27078  1.0000
  C   C144      1.0  0.31504  0.82935  0.25541  1.0000
  C   C145      1.0  0.31637  0.83033  0.22548  1.0000
  H   H136      1.0  0.35890  0.76919  0.21523  1.0000
  H   H137      1.0  0.35775  0.76817  0.26791  1.0000
  H   H138      1.0  0.30267  0.84604  0.26650  1.0000
  H   H139      1.0  0.30513  0.84795  0.21365  1.0000
  C   C146      1.0  0.30368  0.66727  0.17897  1.0000
  C   C147      1.0  0.28359  0.69003  0.17208  1.0000
  C   C148      1.0  0.25383  0.68613  0.17592  1.0000
  C   C149      1.0  0.24384  0.65966  0.18736  1.0000
  C   C150      1.0  0.26382  0.63742  0.19593  1.0000
  C   C151      1.0  0.29365  0.64120  0.19164  1.0000
  H   H140      1.0  0.29080  0.71031  0.16283  1.0000
  H   H141      1.0  0.23850  0.70338  0.16912  1.0000
  H   H142      1.0  0.25632  0.61681  0.20454  1.0000
  H   H143      1.0  0.30899  0.62348  0.19719  1.0000
  H   H144      1.0  0.48508  0.77253  0.19527  1.0000
  C   C152      1.0  0.17140  0.51220  0.27218  1.0000
  H   H145      1.0  0.19356  0.53403  0.23618  1.0000
  H   H146      1.0  0.24318  0.66894  0.27442  1.0000
  C   C153      1.0  0.46395  0.78399  0.19579  1.0000
  H   H147      1.0  0.32956  0.88114  0.30071  1.0000
  H   H148      1.0  0.26958  0.67271  0.24475  1.0000
  H   H149      1.0  0.07421  0.71665  0.30227  1.0000
  H   H150      1.0  0.38131  0.71286  0.03458  1.0000
  C   C154      1.0  0.31755  0.90012  0.29033  1.0000
  C   C155      1.0  0.44653  0.78402  0.22102  1.0000
  H   H151      1.0  0.26049  0.69698  0.30844  1.0000
  C   C156      1.0  0.27127  0.76521  0.28108  1.0000
  H   H152      1.0  0.46456  0.71597  0.16655  1.0000
  H   H153      1.0  0.23242  0.68620  0.24143  1.0000
  C   C157      1.0  0.01865  0.66035  0.25766  1.0000
  C   C158      1.0  0.04633  0.64673  0.25314  1.0000
  C   C159      1.0  0.04888  0.61901  0.24312  1.0000
  H   H154      1.0  0.01645  0.68183  0.26531  1.0000
  H   H155      1.0  0.29901  0.95290  0.27189  1.0000
  S   S65       1.0  0.25543  0.84786  0.31576  1.0000
  C   C160      1.0  0.18861  0.51332  0.24673  1.0000
  S   S66       1.0  0.20017  0.66714  0.32460  1.0000
  C   C161      1.0  0.41028  0.81371  0.19632  1.0000
  N   N12       1.0  0.27886  0.69686  0.08707  1.0000
  C   C162      1.0  0.25819  0.68077  0.10143  1.0000
  C   C163      1.0  0.30739  0.68755  0.08718  1.0000
  C   C164      1.0  0.26587  0.65436  0.11600  1.0000
  C   C165      1.0  0.31587  0.66152  0.10195  1.0000
  C   C166      1.0  0.29493  0.64481  0.11634  1.0000
  C   C167      1.0  0.27084  0.72472  0.07215  1.0000
  H   H156      1.0  0.23563  0.68843  0.10216  1.0000
  H   H157      1.0  0.32379  0.70052  0.07613  1.0000
  H   H158      1.0  0.24950  0.64202  0.12799  1.0000
  H   H159      1.0  0.33858  0.65476  0.10297  1.0000
  H   H160      1.0  0.30132  0.62507  0.12868  1.0000
  H   H161      1.0  0.28044  0.72554  0.04988  1.0000
  N   N13       1.0  0.11587  0.49144  0.23655  1.0000
  H   H162      1.0  0.27928  0.74260  0.08303  1.0000
  N   N14       1.0  0.25783  0.71160  0.26469  1.0000
  C   C168      1.0  0.26770  0.76131  0.25250  1.0000
  H   H163      1.0  0.14365  0.51475  0.20668  1.0000
  H   H164      1.0  0.27589  0.78624  0.28770  1.0000
  H   H165      1.0  0.45393  0.77242  0.24026  1.0000
  H   H166      1.0  0.06210  0.66910  0.31866  1.0000
  C   C169      1.0  0.34858  0.74155  0.01571  1.0000
  C   C170      1.0  0.48689  0.74288  0.13435  1.0000
  C   C171      1.0  0.18474  0.72444  0.30912  1.0000
  H   H167      1.0  0.17116  0.76923  0.29944  1.0000
  C   C172      1.0  0.02399  0.60528  0.23724  1.0000
  C   C173      1.0  0.26244  0.71498  0.29258  1.0000
  H   H168      1.0  0.09719  0.51388  0.27184  1.0000
  S   S67       1.0  0.25033  0.93026  0.32606  1.0000
  H   H169      1.0  0.46747  0.79843  0.15148  1.0000
  C   C174      1.0  0.18347  0.75420  0.31326  1.0000
  C   C175      1.0  0.37139  0.72042  0.01509  1.0000
  C   C176      1.0  0.10176  0.49307  0.26284  1.0000
  C   C177      1.0  0.31177  0.95282  0.29034  1.0000
  H   H170      1.0  0.48547  0.65736  0.13246  1.0000
  H   H171      1.0  0.11027  0.70847  0.28792  1.0000
  C   C178      1.0  0.45388  0.79866  0.17107  1.0000
  H   H172      1.0  0.47969  0.69040  0.08910  1.0000
  H   H173      1.0  0.40587  0.79948  0.24094  1.0000
  H   H174      1.0  0.38940  0.82559  0.19680  1.0000
  H   H175      1.0  0.17354  0.71668  0.29209  1.0000
  H   H176      1.0  0.29414  0.89622  0.29280  1.0000
  C   C179      1.0  0.41958  0.79913  0.22140  1.0000
  C   C180      1.0  0.26901  0.74188  0.30122  1.0000
  H   H177      1.0  0.02620  0.58404  0.22907  1.0000
  H   H178      1.0  0.39328  0.82927  0.14523  1.0000
  C   C181      1.0  0.41725  0.82865  0.14555  1.0000
  H   H179      1.0  0.42616  0.81791  0.12623  1.0000
  C   C182      1.0  0.25048  0.68347  0.25591  1.0000
  C   C183      1.0  0.26097  0.73414  0.24461  1.0000
  H   H180      1.0  0.27012  0.77924  0.23662  1.0000
  H   H181      1.0  0.24709  0.72867  0.07128  1.0000
  C   C184      1.0  0.99631  0.61896  0.24158  1.0000
  H   H182      1.0  0.25815  0.73118  0.22237  1.0000
  N   N15       1.0  0.42714  0.81284  0.17148  1.0000
  C   C185      1.0  0.19968  0.70484  0.32763  1.0000
  C   C186      1.0  0.48499  0.72467  0.15924  1.0000
  H   H183      1.0  0.42415  0.85115  0.14430  1.0000
  C   C187      1.0  0.09707  0.71274  0.30787  1.0000
  H   H184      1.0  0.10397  0.73275  0.31635  1.0000
  H   H185      1.0  0.27200  0.74475  0.32344  1.0000
  H   H186      1.0  0.10540  0.52492  0.20526  1.0000
  C   C188      1.0  0.12295  0.51804  0.21956  1.0000
  N   N16       1.0  0.32261  0.92724  0.30281  1.0000
  H   H187      1.0  0.32440  0.90125  0.26730  1.0000
  H   H188      1.0  0.12592  0.53590  0.23343  1.0000
  C   C189      1.0  0.99372  0.64650  0.25204  1.0000
  C   C190      1.0  0.33707  0.92693  0.32721  1.0000
  H   H189      1.0  0.21192  0.48847  0.21472  1.0000
  C   C191      1.0  0.31571  0.97904  0.30201  1.0000
  C   C192      1.0  0.33029  0.97893  0.32693  1.0000
  C   C193      1.0  0.08096  0.66701  0.33123  1.0000
  H   H190      1.0  0.14054  0.70106  0.34155  1.0000
  S   S68       1.0  0.26298  0.77990  0.63999  1.0000
  Fe  Fe33      1.0  0.25328  0.86367  0.63029  1.0000
  S   S69       1.0  0.29058  0.83786  0.60968  1.0000
  H   H191      1.0  0.13417  0.70555  0.64124  1.0000
  Fe  Fe34      1.0  0.25713  0.80801  0.59977  1.0000
  S   S70       1.0  0.24799  0.78927  0.55843  1.0000
  S   S71       1.0  0.21972  0.83449  0.61874  1.0000
  C   C194      1.0  0.17111  0.71391  0.61230  1.0000
  H   H192      1.0  0.25630  0.97024  0.59495  1.0000
  S   S72       1.0  0.30033  0.86670  0.36042  1.0000
  H   H193      1.0  0.21418  0.86949  0.45650  1.0000
  C   C195      1.0  0.22988  0.87492  0.55162  1.0000
  S   S73       1.0  0.27299  0.80305  0.37074  1.0000
  C   C196      1.0  0.25011  0.93875  0.66217  1.0000
  Fe  Fe35      1.0  0.27372  0.84302  0.39516  1.0000
  S   S74       1.0  0.28959  0.84949  0.43870  1.0000
  H   H194      1.0  0.22100  0.85319  0.55465  1.0000
  S   S75       1.0  0.23119  0.86271  0.38046  1.0000
  H   H195      1.0  0.23471  0.73170  0.59030  1.0000
  C   C197      1.0  0.22014  0.87164  0.50139  1.0000
  H   H196      1.0  0.21633  0.70197  0.57913  1.0000
  C   C198      1.0  0.25509  0.96827  0.61797  1.0000
  H   H197      1.0  0.27187  0.93182  0.47827  1.0000
  H   H198      1.0  0.15983  0.79321  0.63204  1.0000
  C   C199      1.0  0.25215  0.90606  0.51344  1.0000
  N   N17       1.0  0.18955  0.73406  0.60076  1.0000
  C   C200      1.0  0.16237  0.77102  0.62601  1.0000
  C   C201      1.0  0.21370  0.74514  0.35313  1.0000
  H   H199      1.0  0.20629  0.85406  0.50760  1.0000
  H   H200      1.0  0.21246  0.73709  0.56033  1.0000
  C   C202      1.0  0.25801  0.96020  0.34483  1.0000
  H   H201      1.0  0.17480  0.69132  0.60789  1.0000
  C   C203      1.0  0.21423  0.71531  0.34955  1.0000
  N   N18       1.0  0.23425  0.88426  0.52139  1.0000
  C   C204      1.0  0.14366  0.75059  0.63810  1.0000
  C   C205      1.0  0.27170  0.95651  0.37047  1.0000
  H   H202      1.0  0.21503  0.89079  0.56272  1.0000
  H   H203      1.0  0.34512  0.90665  0.33752  1.0000
  H   H204      1.0  0.25077  0.87325  0.56202  1.0000
  C   C206      1.0  0.26035  0.80547  0.52515  1.0000
  C   C207      1.0  0.24904  0.79751  0.50012  1.0000
  C   C208      1.0  0.25800  0.81049  0.47335  1.0000
  C   C209      1.0  0.27855  0.83136  0.47146  1.0000
  C   C210      1.0  0.28997  0.83914  0.49649  1.0000
  C   C211      1.0  0.28086  0.82634  0.52323  1.0000
  H   H205      1.0  0.23324  0.78129  0.50141  1.0000
  H   H206      1.0  0.24908  0.80436  0.45420  1.0000
  H   H207      1.0  0.30591  0.85523  0.49516  1.0000
  H   H208      1.0  0.28995  0.83243  0.54229  1.0000
  H   H209      1.0  0.22460  0.75297  0.37037  1.0000
  C   C212      1.0  0.08527  0.64223  0.34951  1.0000
  S   S76       1.0  0.25060  0.91039  0.61238  1.0000
  C   C213      1.0  0.25195  0.94100  0.63241  1.0000
  H   H210      1.0  0.27659  0.93494  0.37986  1.0000
  H   H211      1.0  0.14981  0.65740  0.37321  1.0000
  H   H212      1.0  0.20003  0.77820  0.59820  1.0000
  C   C214      1.0  0.18528  0.76234  0.60718  1.0000
  H   H213      1.0  0.26315  0.91611  0.52941  1.0000
  C   C215      1.0  0.34105  0.95273  0.33967  1.0000
  C   C216      1.0  0.11004  0.63876  0.36493  1.0000
  C   C217      1.0  0.14790  0.72187  0.63111  1.0000
  C   C218      1.0  0.21438  0.72562  0.58171  1.0000
  C   C219      1.0  0.12998  0.66014  0.36208  1.0000
  Fe  Fe36      1.0  0.29211  0.81279  0.65238  1.0000
  H   H214      1.0  0.29046  0.97775  0.40338  1.0000
  S   S77       1.0  0.19395  0.80176  0.34139  1.0000
  Fe  Fe37      1.0  0.23263  0.82455  0.35309  1.0000
  C   C220      1.0  0.24304  0.90213  0.46411  1.0000
  H   H215      1.0  0.30495  0.90559  0.65343  1.0000
  C   C221      1.0  0.25699  0.91517  0.48468  1.0000
  C   C222      1.0  0.22434  0.88036  0.47247  1.0000
  H   H216      1.0  0.06994  0.62547  0.35096  1.0000
  H   H217      1.0  0.22581  0.70028  0.36399  1.0000
  H   H218      1.0  0.24737  0.90820  0.44163  1.0000
  Fe  Fe38      1.0  0.22801  0.80853  0.65973  1.0000
  H   H219      1.0  0.35165  0.95235  0.35951  1.0000
  H   H220      1.0  0.12652  0.75683  0.65359  1.0000
  Fe  Fe39      1.0  0.29564  0.82871  0.33466  1.0000
  C   C223      1.0  0.12482  0.68473  0.34380  1.0000
  C   C224      1.0  0.27959  0.98079  0.38370  1.0000
  H   H221      1.0  0.22335  0.74111  0.65873  1.0000
  Fe  Fe40      1.0  0.25790  0.88408  0.34454  1.0000
  H   H222      1.0  0.11415  0.61925  0.37850  1.0000
  H   H223      1.0  0.21373  0.68958  0.65780  1.0000
  C   C225      1.0  0.19798  0.76467  0.33523  1.0000
  H   H224      1.0  0.34022  0.86332  0.64801  1.0000
  Fe  Fe41      1.0  0.16874  0.62489  0.78667  1.0000
  S   S78       1.0  0.19322  0.60760  0.74859  1.0000
  S   S79       1.0  0.18884  0.64603  0.82181  1.0000
  Fe  Fe42      1.0  0.11085  0.60643  0.76812  1.0000
  S   S80       1.0  0.13124  0.58839  0.72797  1.0000
  S   S81       1.0  0.06486  0.60090  0.78625  1.0000
  Fe  Fe43      1.0  0.16599  0.56911  0.75589  1.0000
  S   S82       1.0  0.18895  0.52438  0.75614  1.0000
  Fe  Fe44      1.0  0.15657  0.62864  0.72453  1.0000
  N   N19       1.0  0.34518  0.87167  0.71818  1.0000
  S   S83       1.0  0.14439  0.58483  0.79623  1.0000
  S   S84       1.0  0.13328  0.64810  0.76233  1.0000
  Fe  Fe45      1.0  0.37199  0.71289  0.88529  1.0000
  S   S85       1.0  0.38833  0.67535  0.85958  1.0000
  S   S86       1.0  0.38155  0.70213  0.93190  1.0000
  Fe  Fe46      1.0  0.35893  0.75017  0.83073  1.0000
  S   S87       1.0  0.37627  0.71565  0.80263  1.0000
  S   S88       1.0  0.33605  0.78946  0.80886  1.0000
  Fe  Fe47      1.0  0.35043  0.68651  0.83283  1.0000
  S   S89       1.0  0.32422  0.65689  0.80974  1.0000
  Fe  Fe48      1.0  0.41242  0.70843  0.83218  1.0000
  S   S90       1.0  0.45895  0.69679  0.81693  1.0000
  S   S91       1.0  0.33185  0.72115  0.86056  1.0000
  S   S92       1.0  0.39734  0.74569  0.85823  1.0000
  C   C226      1.0  0.22616  0.58019  0.84479  1.0000
  C   C227      1.0  0.32592  0.89493  0.72138  1.0000
  H   H225      1.0  0.46074  0.65089  0.87125  1.0000
  C   C228      1.0  0.10390  0.63928  0.84373  1.0000
  H   H226      1.0  0.02538  0.58120  0.71051  1.0000
  C   C229      1.0  0.25448  0.56111  0.77199  1.0000
  H   H227      1.0  0.34506  0.85568  0.76166  1.0000
  H   H228      1.0  0.37123  0.83758  0.73877  1.0000
  C   C230      1.0  0.36851  0.71823  0.96361  1.0000
  C   C231      1.0  0.34590  0.73960  0.96416  1.0000
  C   C232      1.0  0.07123  0.66745  0.81208  1.0000
  H   H229      1.0  0.33593  0.74707  0.94466  1.0000
  C   C233      1.0  0.33460  0.78997  0.77148  1.0000
  C   C234      1.0  0.35702  0.77717  0.75455  1.0000
  C   C235      1.0  0.35597  0.77896  0.72474  1.0000
  C   C236      1.0  0.33237  0.79329  0.71158  1.0000
  C   C237      1.0  0.30987  0.80602  0.72851  1.0000
  C   C238      1.0  0.31110  0.80454  0.75831  1.0000
  H   H230      1.0  0.37570  0.76671  0.76430  1.0000
  H   H231      1.0  0.37364  0.76932  0.71183  1.0000
  H   H232      1.0  0.29168  0.81730  0.71873  1.0000
  H   H233      1.0  0.29378  0.81474  0.77122  1.0000
  H   H234      1.0  0.20326  0.58360  0.83914  1.0000
  C   C239      1.0  0.28610  0.65911  0.81219  1.0000
  C   C240      1.0  0.27143  0.65231  0.78873  1.0000
  C   C241      1.0  0.24144  0.64946  0.79113  1.0000
  C   C242      1.0  0.22582  0.65332  0.81706  1.0000
  C   C243      1.0  0.24025  0.66162  0.84014  1.0000
  C   C244      1.0  0.27032  0.66455  0.83773  1.0000
  H   H235      1.0  0.28344  0.64830  0.76882  1.0000
  H   H236      1.0  0.23059  0.64374  0.77299  1.0000
  H   H237      1.0  0.22833  0.66489  0.86026  1.0000
  H   H238      1.0  0.28144  0.66977  0.85598  1.0000
  H   H239      1.0  0.12635  0.72601  0.79613  1.0000
  C   C245      1.0  0.16222  0.70888  0.70849  1.0000
  C   C246      1.0  0.16776  0.73829  0.70899  1.0000
  H   H240      1.0  0.24682  0.55114  0.75396  1.0000
  H   H241      1.0  0.31288  0.59239  0.79336  1.0000
  H   H242      1.0  0.25026  0.96180  0.70035  1.0000
  H   H243      1.0  0.14452  0.70017  0.72168  1.0000
  H   H244      1.0  0.15448  0.75198  0.72287  1.0000
  C   C247      1.0  0.00941  0.64431  0.73243  1.0000
  C   C248      1.0  0.29156  0.58391  0.79417  1.0000
  H   H245      1.0  0.13692  0.68376  0.82959  1.0000
  C   C249      1.0  0.03497  0.63366  0.74503  1.0000
  C   C250      1.0  0.03347  0.61557  0.77000  1.0000
  C   C251      1.0  0.00645  0.57092  0.72007  1.0000
  N   N20       1.0  0.09717  0.66466  0.82446  1.0000
  H   H246      1.0  0.05578  0.63934  0.73535  1.0000
  H   H247      1.0  0.05561  0.65108  0.81652  1.0000
  C   C252      1.0  0.16884  0.49346  0.75459  1.0000
  C   C253      1.0  0.48633  0.73344  0.84896  1.0000
  H   H248      1.0  0.46509  0.74291  0.85472  1.0000
  N   N21       1.0  0.28539  0.73402  0.76636  1.0000
  C   C254      1.0  0.26455  0.74823  0.75053  1.0000
  C   C255      1.0  0.30928  0.72068  0.75327  1.0000
  C   C256      1.0  0.26741  0.74955  0.72077  1.0000
  C   C257      1.0  0.31290  0.72171  0.72355  1.0000
  C   C258      1.0  0.29186  0.73634  0.70725  1.0000
  C   C259      1.0  0.28224  0.73395  0.79747  1.0000
  H   H249      1.0  0.24574  0.75901  0.76089  1.0000
  H   H250      1.0  0.32588  0.70948  0.76577  1.0000
  H   H251      1.0  0.25105  0.76125  0.70831  1.0000
  H   H252      1.0  0.33226  0.71184  0.71326  1.0000
  H   H253      1.0  0.36631  0.84256  0.68931  1.0000
  H   H254      1.0  0.28310  0.75633  0.80419  1.0000
  H   H255      1.0  0.26148  0.72492  0.80555  1.0000
  H   H256      1.0  0.29989  0.72057  0.80768  1.0000
  C   C260      1.0  0.47134  0.66443  0.88468  1.0000
  C   C261      1.0  0.27287  0.58661  0.81845  1.0000
  H   H257      1.0  0.21482  0.55633  0.79731  1.0000
  H   H258      1.0  0.28017  0.59707  0.83630  1.0000
  N   N22       1.0  0.24547  0.57731  0.81918  1.0000
  C   C262      1.0  0.25185  0.96357  0.67732  1.0000
  H   H259      1.0  0.12764  0.63439  0.84407  1.0000
  H   H260      1.0  0.22858  0.56045  0.85935  1.0000
  C   C263      1.0  0.45105  0.72676  0.92939  1.0000
  C   C264      1.0  0.00915  0.55260  0.74476  1.0000
  C   C265      1.0  0.38117  0.70874  0.98919  1.0000
  H   H261      1.0  0.29628  0.56941  0.75162  1.0000
  H   H262      1.0  0.12739  0.51690  0.75426  1.0000
  H   H263      1.0  0.46424  0.74447  0.93475  1.0000
  H   H264      1.0  0.23086  0.59940  0.85609  1.0000
  H   H265      1.0  0.01068  0.65829  0.71307  1.0000
  C   C266      1.0  0.23636  0.56419  0.79659  1.0000
  C   C267      1.0  0.11060  0.70976  0.80063  1.0000
  H   H266      1.0  0.43406  0.73670  0.91556  1.0000
  C   C268      1.0  0.45521  0.68565  0.89945  1.0000
  C   C269      1.0  0.28218  0.57124  0.77075  1.0000
  H   H267      1.0  0.04447  0.69255  0.78251  1.0000
  H   H268      1.0  0.29487  0.73799  0.68420  1.0000
  C   C270      1.0  0.20663  0.73235  0.67295  1.0000
  H   H269      1.0  0.00496  0.59465  0.80185  1.0000
  H   H270      1.0  0.44010  0.71715  0.94917  1.0000
  H   H271      1.0  0.09497  0.64311  0.86563  1.0000
  H   H272      1.0  0.43203  0.68775  0.89791  1.0000
  H   H273      1.0  0.39857  0.69211  0.98900  1.0000
  C   C271      1.0  0.00630  0.60852  0.78242  1.0000
  C   C272      1.0  0.06472  0.69102  0.79294  1.0000
  C   C273      1.0  0.18964  0.75029  0.69082  1.0000
  C   C274      1.0  0.36045  0.85911  0.74281  1.0000
  H   H274      1.0  0.09462  0.61973  0.83653  1.0000
  N   N23       1.0  0.46853  0.70425  0.91476  1.0000
  S   S93       1.0  0.16859  0.65611  0.68456  1.0000
  C   C275      1.0  0.17850  0.69131  0.68971  1.0000
  C   C276      1.0  0.33587  0.75105  0.99015  1.0000
  H   H275      1.0  0.37711  0.87364  0.74804  1.0000
  S   S94       1.0  0.19375  0.78800  0.68964  1.0000
  H   H276      1.0  0.32170  0.90381  0.74200  1.0000
  H   H277      1.0  0.08001  0.73046  0.77204  1.0000
  C   C277      1.0  0.11647  0.68578  0.81954  1.0000
  H   H278      1.0  0.02988  0.54903  0.75423  1.0000
  C   C278      1.0  0.08464  0.71222  0.78709  1.0000
  C   C279      1.0  0.13876  0.49584  0.75388  1.0000
  H   H279      1.0  0.29623  0.92616  0.70074  1.0000
  C   C280      1.0  0.31136  0.90761  0.69814  1.0000
  C   C281      1.0  0.33629  0.87266  0.66846  1.0000
  C   C282      1.0  0.20106  0.70304  0.67237  1.0000
  C   C283      1.0  0.35088  0.86087  0.69202  1.0000
  H   H280      1.0  0.31820  0.76740  0.99043  1.0000
  S   S95       1.0  0.25741  0.84087  0.67381  1.0000
  H   H281      1.0  0.24710  0.91797  0.67351  1.0000
  C   C284      1.0  0.31641  0.89621  0.67157  1.0000
  S   S96       1.0  0.33246  0.79595  0.67398  1.0000
  C   C285      1.0  0.48938  0.71142  0.83008  1.0000
  Fe  Fe49      1.0  0.92835  0.32581  0.21813  1.0000
  S   S97       1.0  0.91143  0.35188  0.25454  1.0000
  S   S98       1.0  0.97479  0.30880  0.20980  1.0000
  Fe  Fe50      1.0  0.86712  0.32274  0.19627  1.0000
  S   S99       1.0  0.84642  0.34966  0.23038  1.0000
  S   S100      1.0  0.84154  0.30472  0.16298  1.0000
  Fe  Fe51      1.0  0.88452  0.37730  0.22208  1.0000
  S   S101      1.0  0.88479  0.42501  0.20730  1.0000
  Fe  Fe52      1.0  0.87507  0.32128  0.25892  1.0000
  S   S102      1.0  0.85733  0.29857  0.29991  1.0000
  S   S103      1.0  0.90327  0.35215  0.18545  1.0000
  S   S104      1.0  0.89432  0.29348  0.22493  1.0000
  Fe  Fe53      1.0  0.67282  0.20787  0.16317  1.0000
  S   S105      1.0  0.65373  0.24272  0.18998  1.0000
  S   S106      1.0  0.69171  0.16754  0.18704  1.0000
  Fe  Fe54      1.0  0.65994  0.24369  0.10771  1.0000
  S   S107      1.0  0.64146  0.28127  0.13227  1.0000
  S   S108      1.0  0.65297  0.25581  0.06098  1.0000
  Fe  Fe55      1.0  0.67924  0.27192  0.15951  1.0000
  S   S109      1.0  0.70494  0.30350  0.18034  1.0000
  Fe  Fe56      1.0  0.61828  0.24774  0.15984  1.0000
  S   S110      1.0  0.57180  0.25464  0.17725  1.0000
  S   S111      1.0  0.69966  0.23694  0.13323  1.0000
  S   S112      1.0  0.63518  0.21048  0.13474  1.0000
  H   H282      1.0  0.63636  0.13774  0.23654  1.0000
  C   C286      1.0  0.91495  0.22329  0.29910  1.0000
  S   S113      1.0  0.70488  0.16481  0.32016  1.0000
  C   C287      1.0  0.54290  0.24079  0.16091  1.0000
  C   C288      1.0  0.54780  0.22006  0.14082  1.0000
  C   C289      1.0  0.52444  0.21003  0.12764  1.0000
  C   C290      1.0  0.51440  0.25117  0.16788  1.0000
  H   H283      1.0  0.56957  0.21182  0.13528  1.0000
  H   H284      1.0  0.52849  0.19412  0.11195  1.0000
  H   H285      1.0  0.84036  0.47790  0.28774  1.0000
  C   C291      1.0  0.69907  0.16803  0.22342  1.0000
  C   C292      1.0  0.70874  0.14231  0.23828  1.0000
  C   C293      1.0  0.71257  0.14153  0.26772  1.0000
  C   C294      1.0  0.70641  0.16644  0.28258  1.0000
  C   C295      1.0  0.69792  0.19239  0.26754  1.0000
  C   C296      1.0  0.69455  0.19324  0.23810  1.0000
  H   H286      1.0  0.71260  0.12271  0.22716  1.0000
  H   H287      1.0  0.71895  0.12133  0.27915  1.0000
  H   H288      1.0  0.69331  0.21180  0.27882  1.0000
  H   H289      1.0  0.68824  0.21342  0.22704  1.0000
  H   H290      1.0  0.93211  0.29141  0.31010  1.0000
  C   C297      1.0  0.96274  0.23876  0.23342  1.0000
  H   H291      1.0  0.85454  0.43313  0.26297  1.0000
  C   C298      1.0  0.77208  0.01413  0.32340  1.0000
  C   C299      1.0  0.80385  0.30201  0.16934  1.0000
  C   C300      1.0  0.78903  0.31296  0.19339  1.0000
  C   C301      1.0  0.75873  0.31333  0.19643  1.0000
  C   C302      1.0  0.74300  0.30192  0.17593  1.0000
  C   C303      1.0  0.75781  0.29019  0.15226  1.0000
  C   C304      1.0  0.78813  0.29043  0.14889  1.0000
  H   H292      1.0  0.80078  0.32175  0.20937  1.0000
  H   H293      1.0  0.74743  0.32245  0.21481  1.0000
  H   H294      1.0  0.74590  0.28158  0.13618  1.0000
  H   H295      1.0  0.79939  0.28196  0.13018  1.0000
  C   C305      1.0  0.84836  0.26214  0.29875  1.0000
  H   H296      1.0  0.64827  0.14245  0.28637  1.0000
  C   C306      1.0  0.55541  0.30239  0.11595  1.0000
  C   C307      1.0  0.84066  0.20226  0.29856  1.0000
  C   C308      1.0  0.84670  0.21872  0.27305  1.0000
  C   C309      1.0  0.84997  0.24859  0.27310  1.0000
  N   N24       1.0  0.55298  0.28021  0.09578  1.0000
  H   H297      1.0  0.96041  0.28455  0.26458  1.0000
  H   H298      1.0  0.85386  0.26096  0.25322  1.0000
  C   C310      1.0  0.67856  0.20936  0.03268  1.0000
  C   C311      1.0  0.66237  0.23578  0.03088  1.0000
  H   H299      1.0  0.79696  0.35305  0.12397  1.0000
  H   H300      1.0  0.68571  0.20048  0.05304  1.0000
  H   H301      1.0  0.76223  0.25445  0.27911  1.0000
  H   H302      1.0  0.59856  0.27422  0.08736  1.0000
  H   H303      1.0  0.61133  0.22975  0.28134  1.0000
  C   C312      1.0  0.87405  0.45589  0.22600  1.0000
  C   C313      1.0  0.85965  0.45403  0.25296  1.0000
  H   H304      1.0  0.84880  0.20837  0.25312  1.0000
  N   N25       1.0  0.75794  0.21774  0.22023  1.0000
  C   C314      1.0  0.75606  0.24047  0.23729  1.0000
  C   C315      1.0  0.76796  0.19085  0.23038  1.0000
  C   C316      1.0  0.76363  0.23643  0.26558  1.0000
  C   C317      1.0  0.77557  0.18603  0.25860  1.0000
  C   C318      1.0  0.77315  0.20895  0.27629  1.0000
  C   C319      1.0  0.75036  0.22263  0.19053  1.0000
  H   H305      1.0  0.74850  0.26184  0.22911  1.0000
  H   H306      1.0  0.76965  0.17284  0.21683  1.0000
  H   H307      1.0  0.98398  0.24864  0.23277  1.0000
  H   H308      1.0  0.69858  0.17420  0.00940  1.0000
  C   C320      1.0  0.60907  0.17672  0.20238  1.0000
  H   H309      1.0  0.74373  0.20248  0.18209  1.0000
  H   H310      1.0  0.73177  0.23884  0.18863  1.0000
  H   H311      1.0  0.76912  0.23065  0.17716  1.0000
  C   C321      1.0  0.63005  0.18620  0.28734  1.0000
  C   C322      1.0  0.61628  0.20926  0.27187  1.0000
  H   H312      1.0  0.53728  0.30204  0.13255  1.0000
  H   H313      1.0  0.77898  0.20546  0.29819  1.0000
  H   H314      1.0  0.60000  0.19722  0.19190  1.0000
  H   H315      1.0  0.96931  0.48703  0.21123  1.0000
  H   H316      1.0  0.75987  0.36994  0.15991  1.0000
  H   H317      1.0  0.84660  0.34454  0.10997  1.0000
  C   C323      1.0  0.57741  0.26792  0.08268  1.0000
  H   H318      1.0  0.54674  0.22190  0.04239  1.0000
  H   H319      1.0  0.86022  0.39925  0.16002  1.0000
  H   H320      1.0  0.82389  0.41638  0.19653  1.0000
  C   C324      1.0  0.57556  0.24683  0.06327  1.0000
  H   H321      1.0  0.87359  0.35903  0.12868  1.0000
  N   N26       1.0  0.94702  0.24190  0.26110  1.0000
  N   N27       1.0  0.61638  0.18032  0.23162  1.0000
  C   C325      1.0  0.62998  0.15766  0.24660  1.0000
  C   C326      1.0  0.60936  0.20587  0.24391  1.0000
  N   N28       1.0  0.94258  0.47384  0.24775  1.0000
  C   C327      1.0  0.91586  0.24886  0.31273  1.0000
  H   H322      1.0  0.59869  0.22395  0.23199  1.0000
  C   C328      1.0  0.76776  0.98985  0.30823  1.0000
  H   H323      1.0  0.50240  0.24506  0.06580  1.0000
  C   C329      1.0  0.94786  0.26713  0.27426  1.0000
  S   S114      1.0  0.83859  0.16448  0.29784  1.0000
  C   C330      1.0  0.85274  0.36473  0.11875  1.0000
  H   H324      1.0  0.63636  0.18866  0.30878  1.0000
  H   H325      1.0  0.77331  0.40146  0.19685  1.0000
  C   C331      1.0  0.93042  0.22032  0.27292  1.0000
  C   C332      1.0  0.54846  0.23860  0.05702  1.0000
  H   H326      1.0  0.97933  0.36087  0.24000  1.0000
  H   H327      1.0  0.85589  0.38160  0.10114  1.0000
  S   S115      1.0  0.77502  0.11425  0.31616  1.0000
  H   H328      1.0  0.95005  0.25000  0.21627  1.0000
  H   H329      1.0  0.91527  0.46666  0.28547  1.0000
  C   C333      1.0  0.94577  0.44319  0.24178  1.0000
  C   C334      1.0  0.88054  0.48316  0.21325  1.0000
  C   C335      1.0  0.63675  0.16015  0.27474  1.0000
  C   C336      1.0  0.78929  0.39454  0.18054  1.0000
  H   H330      1.0  0.62875  0.16962  0.18941  1.0000
  C   C337      1.0  0.52629  0.27276  0.08929  1.0000
  N   N29       1.0  0.83076  0.37503  0.14001  1.0000
  C   C338      1.0  0.80283  0.36747  0.13946  1.0000
  C   C339      1.0  0.83817  0.39292  0.15979  1.0000
  C   C340      1.0  0.78172  0.37698  0.15977  1.0000
  C   C341      1.0  0.81763  0.40281  0.18044  1.0000
  H   H331      1.0  0.50687  0.28234  0.09975  1.0000
  H   H332      1.0  0.59279  0.16029  0.20230  1.0000
  H   H333      1.0  0.94437  0.44064  0.21864  1.0000
  H   H334      1.0  0.57553  0.29836  0.12753  1.0000
  H   H335      1.0  0.78332  0.16468  0.26677  1.0000
  H   H336      1.0  0.55555  0.32410  0.10448  1.0000
  H   H337      1.0  0.51041  0.26717  0.18349  1.0000
  H   H338      1.0  0.59511  0.23688  0.05329  1.0000
  H   H339      1.0  0.64080  0.26754  0.00270  1.0000
  H   H340      1.0  0.96705  0.21570  0.22886  1.0000
  H   H341      1.0  0.92819  0.43073  0.25287  1.0000
  C   C342      1.0  0.92664  0.48230  0.27149  1.0000
  C   C343      1.0  0.93218  0.27105  0.30016  1.0000
  H   H342      1.0  0.76381  0.99278  0.28583  1.0000
  C   C344      1.0  0.52362  0.25176  0.06994  1.0000
  C   C345      1.0  0.83731  0.21602  0.32412  1.0000
  C   C346      1.0  0.84133  0.24583  0.32421  1.0000
  H   H343      1.0  0.77144  0.03556  0.31272  1.0000
  H   H344      1.0  0.92881  0.20073  0.26208  1.0000
  C   C347      1.0  0.85163  0.47941  0.26691  1.0000
  C   C348      1.0  0.68584  0.19454  0.00792  1.0000
  C   C349      1.0  0.65329  0.24707  0.00425  1.0000
  Fe  Fe57      1.0  0.80760  0.14309  0.33053  1.0000
  H   H345      1.0  0.89174  0.48474  0.19240  1.0000
  H   H346      1.0  0.90158  0.20625  0.30831  1.0000
  H   H347      1.0  0.96687  0.43345  0.24861  1.0000
  C   C350      1.0  0.49605  0.22105  0.13391  1.0000
  C   C351      1.0  0.84051  0.39696  0.64407  1.0000
  Fe  Fe58      1.0  0.74241  0.12520  0.59499  1.0000
  S   S116      1.0  0.78755  0.10932  0.60475  1.0000
  S   S117      1.0  0.72373  0.12702  0.55166  1.0000
  Fe  Fe59      1.0  0.76588  0.08388  0.64174  1.0000
  H   H348      1.0  0.81610  0.20977  0.57076  1.0000
  Fe  Fe60      1.0  0.78543  0.14614  0.63384  1.0000
  C   C352      1.0  0.81716  0.38410  0.65909  1.0000
  S   S118      1.0  0.72069  0.09775  0.63035  1.0000
  S   S119      1.0  0.74211  0.16402  0.62081  1.0000
  Fe  Fe61      1.0  0.78030  0.08793  0.35782  1.0000
  S   S120      1.0  0.74585  0.11423  0.38214  1.0000
  H   H349      1.0  0.81124  0.07378  0.50971  1.0000
  H   H350      1.0  0.73946  0.19503  0.56344  1.0000
  S   S121      1.0  0.77591  0.17217  0.35406  1.0000
  Fe  Fe62      1.0  0.78207  0.14086  0.39206  1.0000
  S   S122      1.0  0.79532  0.15291  0.43498  1.0000
  H   H351      1.0  0.78133  0.20893  0.58901  1.0000
  S   S123      1.0  0.81666  0.11380  0.36925  1.0000
  S   S124      1.0  0.82256  0.17477  0.63771  1.0000
  C   C353      1.0  0.74468  0.13158  0.51940  1.0000
  C   C354      1.0  0.73112  0.13172  0.49367  1.0000
  C   C355      1.0  0.74674  0.13696  0.46748  1.0000
  C   C356      1.0  0.77595  0.14245  0.46696  1.0000
  C   C357      1.0  0.78974  0.14146  0.49267  1.0000
  C   C358      1.0  0.77421  0.13583  0.51885  1.0000
  H   H352      1.0  0.70827  0.12836  0.49401  1.0000
  H   H353      1.0  0.73595  0.13778  0.44776  1.0000
  H   H354      1.0  0.81241  0.14561  0.49231  1.0000
  H   H355      1.0  0.78486  0.13555  0.53859  1.0000
  C   C359      1.0  0.77742  0.01056  0.35233  1.0000
  C   C360      1.0  0.75529  0.20818  0.49273  1.0000
  Fe  Fe63      1.0  0.74352  0.14255  0.34121  1.0000
  C   C361      1.0  0.80898  0.07431  0.46437  1.0000
  H   H356      1.0  0.82087  0.20991  0.51985  1.0000
  H   H357      1.0  0.79937  0.17583  0.57742  1.0000
  N   N30       1.0  0.76953  0.06382  0.49832  1.0000
  H   H358      1.0  0.80008  0.07331  0.42017  1.0000
  H   H359      1.0  0.73477  0.06653  0.53019  1.0000
  C   C362      1.0  0.75021  0.00929  0.61879  1.0000
  C   C363      1.0  0.76877  0.00683  0.64112  1.0000
  H   H360      1.0  0.76111  0.03639  0.53560  1.0000
  H   H361      1.0  0.71599  0.19928  0.51783  1.0000
  C   C364      1.0  0.79520  0.19929  0.57161  1.0000
  C   C365      1.0  0.84792  0.42419  0.65085  1.0000
  H   H362      1.0  0.83269  0.20352  0.34396  1.0000
  H   H363      1.0  0.73016  0.05432  0.48113  1.0000
  C   C366      1.0  0.75811  0.05951  0.52797  1.0000
  C   C367      1.0  0.76317  0.06302  0.44818  1.0000
  H   H364      1.0  0.74257  0.03049  0.61037  1.0000
  C   C368      1.0  0.81832  0.21010  0.64993  1.0000
  H   H365      1.0  0.83094  0.08065  0.45972  1.0000
  H   H366      1.0  0.74966  0.05996  0.43083  1.0000
  H   H367      1.0  0.79802  0.21405  0.47359  1.0000
  C   C369      1.0  0.79763  0.07057  0.49254  1.0000
  C   C370      1.0  0.79160  0.07044  0.44212  1.0000
  H   H368      1.0  0.76907  0.07279  0.54225  1.0000
  H   H369      1.0  0.74537  0.20893  0.47246  1.0000
  S   S125      1.0  0.78361  0.04006  0.37245  1.0000
  C   C371      1.0  0.75239  0.05979  0.47659  1.0000
  N   N31       1.0  0.78133  0.20342  0.54445  1.0000
  C   C372      1.0  0.79770  0.20848  0.51960  1.0000
  C   C373      1.0  0.75229  0.20032  0.54394  1.0000
  C   C374      1.0  0.78492  0.21108  0.49339  1.0000
  C   C375      1.0  0.73882  0.20282  0.51814  1.0000
  H   H370      1.0  0.83973  0.25611  0.34417  1.0000
  C   C376      1.0  0.79178  0.22617  0.65004  1.0000
  Fe  Fe64      1.0  0.72479  0.13512  0.65730  1.0000
  H   H371      1.0  0.77291  0.21674  0.64328  1.0000
  C   C377      1.0  0.78980  0.25488  0.65824  1.0000
  S   S126      1.0  0.78052  0.03770  0.65595  1.0000
  H   H372      1.0  0.81188  0.36270  0.65403  1.0000
  H   H373      1.0  0.76937  0.26739  0.65765  1.0000
  H   H374      1.0  0.85315  0.38552  0.62777  1.0000
  H   H375      1.0  0.86638  0.43415  0.63988  1.0000
  C   C378      1.0  0.84251  0.22265  0.65904  1.0000
  H   H376      1.0  0.86314  0.21040  0.65902  1.0000
  H   H377      1.0  0.90306  0.25192  0.33249  1.0000
  Fe  Fe65      1.0  0.84000  0.31874  0.70882  1.0000
  S   S127      1.0  0.87197  0.29076  0.73350  1.0000
  H   H378      1.0  0.88071  0.42654  0.72546  1.0000
  Fe  Fe66      1.0  0.84470  0.37062  0.74570  1.0000
  S   S128      1.0  0.87610  0.34579  0.77399  1.0000
  S   S129      1.0  0.82428  0.41535  0.75359  1.0000
  Fe  Fe67      1.0  0.89753  0.33058  0.73296  1.0000
  S   S130      1.0  0.94455  0.33608  0.71785  1.0000
  Fe  Fe68      1.0  0.84756  0.30851  0.77194  1.0000
  S   S131      1.0  0.82984  0.27709  0.80656  1.0000
  S   S132      1.0  0.86710  0.35746  0.70476  1.0000
  S   S133      1.0  0.81465  0.33452  0.74720  1.0000
  Fe  Fe69      1.0  0.61995  0.21088  0.86902  1.0000
  S   S134      1.0  0.64597  0.17078  0.88398  1.0000
  S   S135      1.0  0.57196  0.20411  0.87582  1.0000
  Fe  Fe70      1.0  0.67449  0.24371  0.85521  1.0000
  S   S136      1.0  0.70350  0.20619  0.87008  1.0000
  S   S137      1.0  0.69478  0.28492  0.83801  1.0000
  Fe  Fe71      1.0  0.67574  0.18052  0.84569  1.0000
  S   S138      1.0  0.69763  0.14583  0.81928  1.0000
  Fe  Fe72      1.0  0.67096  0.20057  0.90695  1.0000
  S   S139      1.0  0.68705  0.18695  0.95063  1.0000
  S   S140      1.0  0.64793  0.21833  0.82874  1.0000
  S   S141      1.0  0.64359  0.24039  0.89422  1.0000
  C   C379      1.0  0.82899  0.47412  0.75212  1.0000
  S   S142      1.0  0.68972  0.15647  0.68548  1.0000
  C   C380      1.0  0.54321  0.21431  0.85384  1.0000
  C   C381      1.0  0.51620  0.20328  0.86157  1.0000
  H   H379      1.0  0.52390  0.25827  0.79629  1.0000
  H   H380      1.0  0.64157  0.11503  0.75266  1.0000
  C   C382      1.0  0.52178  0.24277  0.81445  1.0000
  C   C383      1.0  0.54604  0.23400  0.83009  1.0000
  H   H381      1.0  0.51380  0.18809  0.87995  1.0000
  H   H382      1.0  0.80779  0.47468  0.76308  1.0000
  H   H383      1.0  0.56673  0.24279  0.82405  1.0000
  C   C384      1.0  0.67675  0.20585  0.98130  1.0000
  H   H384      1.0  0.77979  0.36002  0.69516  1.0000
  C   C385      1.0  0.66036  0.23216  0.97957  1.0000
  H   H385      1.0  0.95253  0.30071  0.77112  1.0000
  H   H386      1.0  0.65326  0.24109  0.95923  1.0000
  C   C386      1.0  0.69717  0.15056  0.78192  1.0000
  C   C387      1.0  0.71362  0.13107  0.76510  1.0000
  C   C388      1.0  0.71196  0.13300  0.73538  1.0000
  C   C389      1.0  0.69350  0.15420  0.72240  1.0000
  C   C390      1.0  0.67714  0.17375  0.73917  1.0000
  C   C391      1.0  0.67921  0.17214  0.76880  1.0000
  H   H387      1.0  0.72741  0.11417  0.77513  1.0000
  H   H388      1.0  0.72438  0.11758  0.72264  1.0000
  H   H389      1.0  0.66277  0.19015  0.72920  1.0000
  H   H390      1.0  0.66619  0.18701  0.78149  1.0000
  H   H391      1.0  0.77832  0.38773  0.71974  1.0000
  C   C392      1.0  0.79197  0.27952  0.81282  1.0000
  C   C393      1.0  0.77720  0.25416  0.81843  1.0000
  C   C394      1.0  0.74719  0.25559  0.82477  1.0000
  C   C395      1.0  0.73181  0.28239  0.82652  1.0000
  C   C396      1.0  0.74649  0.30776  0.82022  1.0000
  C   C397      1.0  0.77644  0.30635  0.81322  1.0000
  H   H392      1.0  0.78897  0.23332  0.81772  1.0000
  H   H393      1.0  0.73611  0.23588  0.82838  1.0000
  H   H394      1.0  0.73478  0.32861  0.82126  1.0000
  H   H395      1.0  0.78765  0.32606  0.80903  1.0000
  C   C398      1.0  0.62508  0.12898  0.82176  1.0000
  C   C399      1.0  0.60758  0.14532  0.76759  1.0000
  C   C400      1.0  0.87002  0.44695  0.73099  1.0000
  C   C401      1.0  0.84267  0.44741  0.74524  1.0000
  H   H396      1.0  0.79606  0.43603  0.70336  1.0000
  C   C402      1.0  0.54938  0.27246  0.89536  1.0000
  H   H397      1.0  0.55980  0.27263  0.87346  1.0000
  N   N32       1.0  0.74052  0.26564  0.90529  1.0000
  C   C403      1.0  0.73453  0.24121  0.92201  1.0000
  C   C404      1.0  0.76605  0.26696  0.88918  1.0000
  C   C405      1.0  0.75380  0.21680  0.92201  1.0000
  C   C406      1.0  0.78582  0.24294  0.88861  1.0000
  C   C407      1.0  0.77949  0.21764  0.90499  1.0000
  C   C408      1.0  0.71962  0.29066  0.90536  1.0000
  H   H398      1.0  0.71446  0.24028  0.93508  1.0000
  H   H399      1.0  0.77100  0.28637  0.87605  1.0000
  H   H400      1.0  0.74846  0.19722  0.93476  1.0000
  H   H401      1.0  0.80564  0.24388  0.87508  1.0000
  H   H402      1.0  0.79437  0.19867  0.90438  1.0000
  H   H403      1.0  0.72419  0.30658  0.88710  1.0000
  H   H404      1.0  0.69752  0.28366  0.90300  1.0000
  H   H405      1.0  0.71999  0.30148  0.92555  1.0000
  C   C409      1.0  0.60253  0.14997  0.81754  1.0000
  H   H406      1.0  0.55145  0.29370  0.90415  1.0000
  C   C410      1.0  0.63878  0.11589  0.79838  1.0000
  C   C411      1.0  0.63010  0.12414  0.77108  1.0000
  H   H407      1.0  0.65704  0.10039  0.80132  1.0000
  N   N33       1.0  0.59377  0.15755  0.79073  1.0000
  H   H408      1.0  0.60154  0.15217  0.74620  1.0000
  H   H409      1.0  0.63257  0.12348  0.84290  1.0000
  C   C412      1.0  0.57063  0.18018  0.78676  1.0000
  H   H410      1.0  0.57958  0.20180  0.78658  1.0000
  H   H411      1.0  0.59229  0.16039  0.83581  1.0000
  H   H412      1.0  0.56164  0.25546  0.90829  1.0000
  H   H413      1.0  0.56007  0.17860  0.76650  1.0000
  H   H414      1.0  0.55345  0.17828  0.80425  1.0000
  H   H415      1.0  0.90458  0.47245  0.71251  1.0000
  N   N34       1.0  0.77009  0.20730  0.72524  1.0000
  C   C413      1.0  0.79533  0.22086  0.72556  1.0000
  C   C414      1.0  0.74498  0.21928  0.73734  1.0000
  C   C415      1.0  0.79558  0.24776  0.73709  1.0000
  C   C416      1.0  0.74448  0.24610  0.74918  1.0000
  C   C417      1.0  0.76991  0.26057  0.74860  1.0000
  C   C418      1.0  0.76989  0.17927  0.71287  1.0000
  H   H416      1.0  0.81539  0.21116  0.71649  1.0000
  H   H417      1.0  0.72518  0.20809  0.73780  1.0000
  H   H418      1.0  0.81552  0.25871  0.73695  1.0000
  H   H419      1.0  0.72458  0.25555  0.75889  1.0000
  H   H420      1.0  0.76985  0.28152  0.75741  1.0000
  H   H421      1.0  0.75093  0.17871  0.69974  1.0000
  H   H422      1.0  0.78951  0.17492  0.69862  1.0000
  H   H423      1.0  0.76879  0.16165  0.73007  1.0000
  S   S143      1.0  0.76825  0.11923  0.67180  1.0000
  C   C419      1.0  0.84033  0.25100  0.66807  1.0000
  C   C420      1.0  0.97350  0.30575  0.76140  1.0000
  C   C421      1.0  0.88348  0.47301  0.72365  1.0000
  H   H424      1.0  0.96212  0.37621  0.77162  1.0000
  C   C422      1.0  0.81407  0.26743  0.66726  1.0000
  H   H425      1.0  0.83729  0.45949  0.67783  1.0000
  C   C423      1.0  0.97546  0.32174  0.73514  1.0000
  N   N35       1.0  0.51882  0.26640  0.89511  1.0000
  S   S144      1.0  0.81114  0.30393  0.67637  1.0000
  C   C424      1.0  0.80833  0.42500  0.68654  1.0000
  N   N36       1.0  0.80190  0.39785  0.68052  1.0000
  H   H426      1.0  0.98738  0.35328  0.81312  1.0000
  C   C425      1.0  0.49458  0.23214  0.82262  1.0000
  C   C426      1.0  0.77801  0.38389  0.69673  1.0000
  H   H427      1.0  0.85923  0.26043  0.67482  1.0000
  H   H428      1.0  0.51992  0.23617  0.93139  1.0000
  C   C427      1.0  0.50230  0.28035  0.87476  1.0000
  H   H429      1.0  0.75708  0.39265  0.68868  1.0000
  C   C428      1.0  0.50675  0.24770  0.91562  1.0000
  H   H430      1.0  0.51195  0.29463  0.85810  1.0000
  C   C429      1.0  0.83160  0.43844  0.67207  1.0000
  C   C430      1.0  0.98529  0.37750  0.77252  1.0000
  H   H431      1.0  0.99021  0.39962  0.73123  1.0000
  Fe  Fe73      1.0  0.91862  0.61581  0.24212  1.0000
  S   S145      1.0  0.89661  0.60210  0.28442  1.0000
  S   S146      1.0  0.96581  0.60093  0.23309  1.0000
  Fe  Fe74      1.0  0.86062  0.63487  0.21662  1.0000
  S   S147      1.0  0.83526  0.62150  0.25670  1.0000
  S   S148      1.0  0.83829  0.65498  0.17804  1.0000
  Fe  Fe75      1.0  0.86869  0.64327  0.27817  1.0000
  C   C431      1.0  0.87295  0.50845  0.22737  1.0000
  Fe  Fe76      1.0  0.86544  0.58182  0.25871  1.0000
  S   S149      1.0  0.84850  0.53792  0.27271  1.0000
  S   S150      1.0  0.89300  0.65884  0.23778  1.0000
  S   S151      1.0  0.88840  0.59335  0.21668  1.0000
  Fe  Fe77      1.0  0.67489  0.69870  0.15529  1.0000
  S   S152      1.0  0.69026  0.73755  0.12881  1.0000
  S   S153      1.0  0.70265  0.65983  0.17139  1.0000
  Fe  Fe78      1.0  0.61291  0.72527  0.16324  1.0000
  S   S154      1.0  0.62437  0.76662  0.13892  1.0000
  S   S155      1.0  0.56806  0.71532  0.18214  1.0000
  Fe  Fe79      1.0  0.64812  0.73775  0.10746  1.0000
  S   S156      1.0  0.63413  0.74873  0.06221  1.0000
  Fe  Fe80      1.0  0.66513  0.76243  0.16260  1.0000
  S   S157      1.0  0.68799  0.79782  0.18112  1.0000
  S   S158      1.0  0.63488  0.69646  0.13118  1.0000
  S   S159      1.0  0.65164  0.72360  0.18975  1.0000
  H   H432      1.0  0.68977  0.79460  0.04959  1.0000
  S   S160      1.0  0.76725  0.84923  0.29840  1.0000
  N   N37       1.0  0.55140  0.69443  0.09554  1.0000
  C   C432      1.0  0.53674  0.72756  0.16449  1.0000
  H   H433      1.0  0.91059  0.51828  0.29598  1.0000
  C   C433      1.0  0.53830  0.74660  0.14022  1.0000
  C   C434      1.0  0.57632  0.70937  0.08254  1.0000
  H   H434      1.0  0.55871  0.75527  0.13284  1.0000
  C   C435      1.0  0.64903  0.73661  0.02931  1.0000
  C   C436      1.0  0.67700  0.72375  0.02627  1.0000
  H   H435      1.0  0.72623  0.72747  0.20637  1.0000
  H   H436      1.0  0.68951  0.71915  0.04479  1.0000
  C   C437      1.0  0.84715  0.87579  0.27315  1.0000
  C   C438      1.0  0.69157  0.79670  0.21823  1.0000
  C   C439      1.0  0.71691  0.80590  0.22835  1.0000
  C   C440      1.0  0.71923  0.80850  0.25761  1.0000
  C   C441      1.0  0.69602  0.80245  0.27706  1.0000
  C   C442      1.0  0.67096  0.79238  0.26703  1.0000
  C   C443      1.0  0.66876  0.78938  0.23773  1.0000
  H   H437      1.0  0.73470  0.81147  0.21344  1.0000
  H   H438      1.0  0.73890  0.81547  0.26493  1.0000
  H   H439      1.0  0.65295  0.78737  0.28190  1.0000
  H   H440      1.0  0.64907  0.78233  0.23015  1.0000
  C   C444      1.0  0.55470  0.67656  0.11961  1.0000
  H   H441      1.0  0.74301  0.90990  0.24998  1.0000
  H   H442      1.0  0.71035  0.90162  0.29273  1.0000
  S   S161      1.0  0.84988  0.66986  0.31396  1.0000
  H   H443      1.0  0.82449  0.69323  0.25581  1.0000
  H   H444      1.0  0.51506  0.76846  0.10608  1.0000
  C   C445      1.0  0.84739  0.70801  0.31117  1.0000
  H   H445      1.0  0.78975  0.72486  0.28674  1.0000
  H   H446      1.0  0.87846  0.52924  0.21745  1.0000
  C   C446      1.0  0.63310  0.74253  0.00500  1.0000
  C   C447      1.0  0.80026  0.65983  0.17826  1.0000
  C   C448      1.0  0.78752  0.67323  0.15415  1.0000
  C   C449      1.0  0.75731  0.67529  0.15266  1.0000
  C   C450      1.0  0.73968  0.66355  0.17515  1.0000
  C   C451      1.0  0.75233  0.65117  0.19970  1.0000
  C   C452      1.0  0.78248  0.64955  0.20137  1.0000
  H   H447      1.0  0.80110  0.68137  0.13621  1.0000
  H   H448      1.0  0.74777  0.68463  0.13352  1.0000
  H   H449      1.0  0.73878  0.64204  0.21716  1.0000
  H   H450      1.0  0.79186  0.63933  0.22008  1.0000
  H   H451      1.0  0.64266  0.81458  0.03285  1.0000
  C   C453      1.0  0.86706  0.87660  0.32000  1.0000
  H   H452      1.0  0.67431  0.87063  0.31663  1.0000
  Fe  Fe81      1.0  0.76476  0.88726  0.32521  1.0000
  N   N38       1.0  0.68127  0.87785  0.27164  1.0000
  N   N39       1.0  0.78695  0.71799  0.24281  1.0000
  C   C454      1.0  0.77584  0.72526  0.26910  1.0000
  C   C455      1.0  0.76961  0.71929  0.22033  1.0000
  C   C456      1.0  0.74643  0.73325  0.27361  1.0000
  C   C457      1.0  0.74004  0.72682  0.22416  1.0000
  C   C458      1.0  0.72842  0.73359  0.25105  1.0000
  C   C459      1.0  0.81784  0.70970  0.23879  1.0000
  C   C460      1.0  0.95449  0.52301  0.23558  1.0000
  H   H453      1.0  0.93631  0.55445  0.26410  1.0000
  H   H454      1.0  0.97256  0.65730  0.25538  1.0000
  H   H455      1.0  0.72835  0.77765  0.01448  1.0000
  C   C461      1.0  0.52490  0.69920  0.08443  1.0000
  H   H456      1.0  0.87575  0.85448  0.31812  1.0000
  C   C462      1.0  0.53117  0.66263  0.13302  1.0000
  H   H457      1.0  0.61144  0.75248  0.00716  1.0000
  H   H458      1.0  0.70553  0.73943  0.25430  1.0000
  C   C463      1.0  0.70525  0.89322  0.27288  1.0000
  H   H459      1.0  0.83066  0.72896  0.23960  1.0000
  H   H460      1.0  0.77849  0.71432  0.19930  1.0000
  C   C464      1.0  0.71751  0.88734  0.22305  1.0000
  H   H461      1.0  0.84788  0.89097  0.25386  1.0000
  C   C465      1.0  0.93811  0.53181  0.25960  1.0000
  C   C466      1.0  0.82565  0.75297  0.32893  1.0000
  C   C467      1.0  0.70791  0.78706  0.00727  1.0000
  C   C468      1.0  0.95656  0.49373  0.22997  1.0000
  C   C469      1.0  0.92402  0.51142  0.27767  1.0000
  C   C470      1.0  0.85838  0.50668  0.25425  1.0000
  H   H462      1.0  0.59484  0.69366  0.07808  1.0000
  H   H463      1.0  0.50854  0.70241  0.19317  1.0000
  H   H464      1.0  0.82664  0.92869  0.28531  1.0000
  H   H465      1.0  0.53376  0.64930  0.15265  1.0000
  C   C471      1.0  0.51350  0.75414  0.12519  1.0000
  N   N40       1.0  0.78520  0.56887  0.21620  1.0000
  C   C472      1.0  0.81289  0.57142  0.20505  1.0000
  C   C473      1.0  0.76230  0.57781  0.20022  1.0000
  C   C474      1.0  0.81829  0.58355  0.17736  1.0000
  C   C475      1.0  0.76691  0.58974  0.17230  1.0000
  C   C476      1.0  0.79512  0.59279  0.16094  1.0000
  C   C477      1.0  0.78044  0.55696  0.24565  1.0000
  H   H466      1.0  0.83096  0.56455  0.21784  1.0000
  H   H467      1.0  0.74029  0.57650  0.20915  1.0000
  H   H468      1.0  0.84027  0.58677  0.16904  1.0000
  H   H469      1.0  0.74873  0.59792  0.16010  1.0000
  H   H470      1.0  0.79903  0.60334  0.13987  1.0000
  H   H471      1.0  0.79084  0.53474  0.24817  1.0000
  H   H472      1.0  0.79028  0.57060  0.26041  1.0000
  H   H473      1.0  0.75715  0.55592  0.25230  1.0000
  S   S162      1.0  0.83924  0.80727  0.30647  1.0000
  H   H474      1.0  0.86386  0.85792  0.26967  1.0000
  H   H475      1.0  0.57539  0.67378  0.12917  1.0000
  H   H476      1.0  0.73767  0.73924  0.29443  1.0000
  S   S163      1.0  0.76383  0.93175  0.30213  1.0000
  C   C478      1.0  0.72380  0.89806  0.24868  1.0000
  H   H477      1.0  0.87828  0.71296  0.27537  1.0000
  C   C479      1.0  0.69265  0.87229  0.22181  1.0000
  H   H478      1.0  0.58313  0.72499  0.09718  1.0000
  H   H479      1.0  0.57156  0.72167  0.06213  1.0000
  C   C480      1.0  0.76853  0.96192  0.32189  1.0000
  C   C481      1.0  0.66189  0.87337  0.29715  1.0000
  H   H480      1.0  0.52191  0.71427  0.06606  1.0000
  H   H481      1.0  0.82334  0.70006  0.21809  1.0000
  C   C482      1.0  0.67461  0.86781  0.24644  1.0000
  H   H482      1.0  0.65571  0.85546  0.24542  1.0000
  C   C483      1.0  0.82862  0.72261  0.33057  1.0000
  C   C484      1.0  0.86346  0.72402  0.29020  1.0000
  H   H483      1.0  0.68781  0.86331  0.20213  1.0000
  C   C485      1.0  0.84188  0.76904  0.30821  1.0000
  S   S164      1.0  0.69695  0.80859  0.31362  1.0000
  H   H484      1.0  0.73195  0.89051  0.20421  1.0000
  C   C486      1.0  0.86085  0.75447  0.28887  1.0000
  H   H485      1.0  0.87367  0.76675  0.27291  1.0000
  C   C487      1.0  0.65984  0.80795  0.01753  1.0000
  C   C488      1.0  0.83961  0.91793  0.30171  1.0000
  C   C489      1.0  0.50990  0.71706  0.17428  1.0000
  H   H486      1.0  0.64588  0.89203  0.29891  1.0000
  N   N41       1.0  0.85188  0.89064  0.29867  1.0000
  H   H487      1.0  0.96541  0.53893  0.22147  1.0000
  H   H488      1.0  0.82581  0.86616  0.27566  1.0000
  C   C490      1.0  0.50412  0.66722  0.12174  1.0000
  Fe  Fe82      1.0  0.73433  0.83060  0.32984  1.0000
  H   H489      1.0  0.65042  0.85313  0.29661  1.0000
  C   C491      1.0  0.84301  0.93219  0.32630  1.0000
  Fe  Fe83      1.0  0.79927  0.82840  0.32808  1.0000
  C   C492      1.0  0.50089  0.68563  0.09730  1.0000
  C   C493      1.0  0.68635  0.79670  0.02696  1.0000
  H   H490      1.0  0.83304  0.95376  0.32868  1.0000
  C   C494      1.0  0.68932  0.71812  0.99896  1.0000
  H   H491      1.0  0.82783  0.79814  0.58938  1.0000
  S   S165      1.0  0.75047  0.85465  0.66078  1.0000
  H   H492      1.0  0.86093  0.92879  0.36746  1.0000
  H   H493      1.0  0.77763  0.93291  0.64883  1.0000
  S   S166      1.0  0.72887  0.87064  0.35471  1.0000
  C   C495      1.0  0.76851  0.74100  0.58059  1.0000
  Fe  Fe84      1.0  0.76444  0.84950  0.38081  1.0000
  S   S167      1.0  0.77034  0.86091  0.42612  1.0000
  S   S168      1.0  0.76653  0.80768  0.35883  1.0000
  S   S169      1.0  0.80002  0.86835  0.35195  1.0000
  Fe  Fe85      1.0  0.73783  0.82343  0.58786  1.0000
  S   S170      1.0  0.77706  0.84697  0.59475  1.0000
  S   S171      1.0  0.72893  0.80365  0.54692  1.0000
  H   H494      1.0  0.81632  0.71036  0.34700  1.0000
  Fe  Fe86      1.0  0.74618  0.87830  0.61761  1.0000
  S   S172      1.0  0.73961  0.92591  0.60280  1.0000
  Fe  Fe87      1.0  0.77739  0.82083  0.63708  1.0000
  C   C496      1.0  0.82073  0.72843  0.60529  1.0000
  S   S173      1.0  0.70677  0.85551  0.60869  1.0000
  S   S174      1.0  0.74049  0.79492  0.62814  1.0000
  C   C497      1.0  0.75125  0.95656  0.61814  1.0000
  C   C498      1.0  0.74155  0.98426  0.60735  1.0000
  H   H495      1.0  0.84094  0.72339  0.61535  1.0000
  H   H496      1.0  0.85281  0.77239  0.60534  1.0000
  C   C499      1.0  0.87080  0.89018  0.34493  1.0000
  Fe  Fe88      1.0  0.71359  0.82950  0.64987  1.0000
  H   H497      1.0  0.67971  0.89841  0.44401  1.0000
  H   H498      1.0  0.77444  0.93698  0.36158  1.0000
  C   C500      1.0  0.77336  0.71447  0.59590  1.0000
  C   C501      1.0  0.83777  0.77583  0.58783  1.0000
  C   C502      1.0  0.76972  0.95406  0.64054  1.0000
  H   H499      1.0  0.71798  0.89780  0.43409  1.0000
  H   H500      1.0  0.75669  0.69903  0.59837  1.0000
  H   H501      1.0  0.88241  0.87878  0.36198  1.0000
  C   C503      1.0  0.76135  0.84199  0.45905  1.0000
  C   C504      1.0  0.77085  0.85218  0.48395  1.0000
  C   C505      1.0  0.76177  0.84003  0.51096  1.0000
  C   C506      1.0  0.74296  0.81759  0.51332  1.0000
  C   C507      1.0  0.73405  0.80682  0.48842  1.0000
  C   C508      1.0  0.74323  0.81894  0.46134  1.0000
  H   H502      1.0  0.78492  0.86997  0.48235  1.0000
  H   H503      1.0  0.76884  0.84849  0.52992  1.0000
  H   H504      1.0  0.71958  0.78935  0.49008  1.0000
  H   H505      1.0  0.73580  0.81088  0.44231  1.0000
  N   N42       1.0  0.81550  0.75469  0.59085  1.0000
  H   H506      1.0  0.78599  0.78154  0.56628  1.0000
  H   H507      1.0  0.98287  0.58320  0.66376  1.0000
  S   S175      1.0  0.81762  0.79735  0.65417  1.0000
  H   H508      1.0  0.74810  0.74633  0.57092  1.0000
  C   C509      1.0  0.79972  0.70799  0.60816  1.0000
  C   C510      1.0  0.79001  0.76091  0.57814  1.0000
  C   C511      1.0  0.77373  0.95838  0.35082  1.0000
  H   H509      1.0  0.80366  0.68756  0.62044  1.0000
  H   H510      1.0  0.85020  0.77432  0.56703  1.0000
  N   N43       1.0  0.70666  0.88988  0.47861  1.0000
  C   C512      1.0  0.72462  0.90994  0.48606  1.0000
  C   C513      1.0  0.69298  0.87238  0.49911  1.0000
  C   C514      1.0  0.72939  0.91271  0.51471  1.0000
  C   C515      1.0  0.69725  0.87460  0.52794  1.0000
  C   C516      1.0  0.71555  0.89493  0.53570  1.0000
  C   C517      1.0  0.70108  0.88769  0.44863  1.0000
  H   H511      1.0  0.73584  0.92348  0.46980  1.0000
  H   H512      1.0  0.67926  0.85603  0.49323  1.0000
  H   H513      1.0  0.74400  0.92821  0.52072  1.0000
  H   H514      1.0  0.68716  0.86000  0.54408  1.0000
  H   H515      1.0  0.71942  0.89660  0.55791  1.0000
  H   H516      1.0  0.70157  0.86464  0.44358  1.0000
  C   C518      1.0  0.77843  0.97912  0.65193  1.0000
  H   H517      1.0  0.81137  0.76386  0.34424  1.0000
  H   H518      1.0  0.78247  0.97963  0.38824  1.0000
  C   C519      1.0  0.85867  0.91817  0.34804  1.0000
  C   C520      1.0  0.77830  0.98258  0.36589  1.0000
  H   H519      1.0  0.69442  0.90683  0.65058  1.0000
  H   H520      1.0  0.72719  0.98640  0.59010  1.0000
  Fe  Fe89      1.0  0.61608  0.73117  0.86331  1.0000
  S   S176      1.0  0.64216  0.76510  0.88007  1.0000
  S   S177      1.0  0.56770  0.73962  0.87343  1.0000
  Fe  Fe90      1.0  0.67090  0.69606  0.84353  1.0000
  S   S178      1.0  0.69938  0.72710  0.85976  1.0000
  S   S179      1.0  0.69166  0.65736  0.82150  1.0000
  Fe  Fe91      1.0  0.66905  0.72737  0.89869  1.0000
  S   S180      1.0  0.69144  0.72134  0.94048  1.0000
  Fe  Fe92      1.0  0.66979  0.76118  0.83932  1.0000
  S   S181      1.0  0.69362  0.79582  0.81283  1.0000
  S   S182      1.0  0.64215  0.69355  0.88398  1.0000
  S   S183      1.0  0.64213  0.73013  0.82120  1.0000
  Fe  Fe93      1.0  0.85187  0.62158  0.77523  1.0000
  S   S184      1.0  0.83001  0.60052  0.74191  1.0000
  S   S185      1.0  0.82744  0.63255  0.81638  1.0000
  Fe  Fe94      1.0  0.90647  0.63162  0.73692  1.0000
  S   S186      1.0  0.88749  0.61268  0.70032  1.0000
  S   S187      1.0  0.95093  0.64903  0.72676  1.0000
  Fe  Fe95      1.0  0.84624  0.63755  0.71312  1.0000
  H   H521      1.0  0.64821  0.79442  0.93620  1.0000
  Fe  Fe96      1.0  0.87342  0.57748  0.73270  1.0000
  S   S188      1.0  0.88775  0.53181  0.72065  1.0000
  S   S189      1.0  0.86613  0.65952  0.74687  1.0000
  S   S190      1.0  0.89432  0.59554  0.76884  1.0000
  C   C521      1.0  0.51724  0.69961  0.82254  1.0000
  H   H522      1.0  0.93555  0.56784  0.71172  1.0000
  C   C522      1.0  0.98224  0.63658  0.74440  1.0000
  H   H523      1.0  0.51980  0.68269  0.80780  1.0000
  H   H524      1.0  0.63829  0.86184  0.72513  1.0000
  H   H525      1.0  0.70529  0.60645  0.86402  1.0000
  H   H526      1.0  0.95998  0.61274  0.77900  1.0000
  H   H527      1.0  0.68294  0.63286  0.88179  1.0000
  H   H528      1.0  0.83186  0.52058  0.75051  1.0000
  H   H529      1.0  0.79765  0.69409  0.74220  1.0000
  C   C523      1.0  0.95629  0.56376  0.72095  1.0000
  H   H530      1.0  0.79433  0.74252  0.76127  1.0000
  C   C524      1.0  0.70127  0.91768  0.66906  1.0000
  H   H531      1.0  0.65521  0.88600  0.67933  1.0000
  C   C525      1.0  0.53855  0.73028  0.85416  1.0000
  C   C526      1.0  0.51081  0.74286  0.86085  1.0000
  H   H532      1.0  0.68519  0.78448  0.92747  1.0000
  C   C527      1.0  0.54174  0.70893  0.83455  1.0000
  C   C528      1.0  0.84086  0.71421  0.68032  1.0000
  C   C529      1.0  0.81586  0.76069  0.66704  1.0000
  H   H533      1.0  0.56295  0.69908  0.82920  1.0000
  C   C530      1.0  0.68956  0.79942  0.77575  1.0000
  C   C531      1.0  0.71142  0.81150  0.75759  1.0000
  C   C532      1.0  0.70826  0.81568  0.72809  1.0000
  C   C533      1.0  0.68278  0.80868  0.71668  1.0000
  C   C534      1.0  0.66103  0.79642  0.73483  1.0000
  C   C535      1.0  0.66453  0.79148  0.76421  1.0000
  H   H534      1.0  0.73081  0.81783  0.76636  1.0000
  H   H535      1.0  0.72511  0.82525  0.71437  1.0000
  H   H536      1.0  0.64119  0.79107  0.72619  1.0000
  H   H537      1.0  0.64741  0.78244  0.77801  1.0000
  C   C536      1.0  0.72971  0.65216  0.81724  1.0000
  C   C537      1.0  0.74794  0.67310  0.82412  1.0000
  C   C538      1.0  0.77805  0.66758  0.82230  1.0000
  C   C539      1.0  0.79026  0.64117  0.81330  1.0000
  C   C540      1.0  0.77218  0.62064  0.80523  1.0000
  C   C541      1.0  0.74200  0.62610  0.80729  1.0000
  H   H538      1.0  0.73906  0.69353  0.83099  1.0000
  H   H539      1.0  0.79190  0.68357  0.82853  1.0000
  H   H540      1.0  0.78142  0.60007  0.79845  1.0000
  H   H541      1.0  0.72815  0.60981  0.80168  1.0000
  H   H542      1.0  0.79553  0.67471  0.89944  1.0000
  C   C542      1.0  0.67371  0.72496  0.97456  1.0000
  C   C543      1.0  0.64529  0.73659  0.97776  1.0000
  H   H543      1.0  0.80080  0.62719  0.87795  1.0000
  H   H544      1.0  0.63299  0.74182  0.95918  1.0000
  H   H545      1.0  0.69840  0.60191  0.90238  1.0000
  C   C544      1.0  0.70715  0.90446  0.71969  1.0000
  C   C545      1.0  0.65724  0.87445  0.72402  1.0000
  C   C546      1.0  0.69810  0.89084  0.74591  1.0000
  C   C547      1.0  0.67295  0.87576  0.74803  1.0000
  H   H546      1.0  0.72670  0.91620  0.71817  1.0000
  H   H547      1.0  0.71895  0.77997  0.96329  1.0000
  H   H548      1.0  0.71069  0.89157  0.76438  1.0000
  H   H549      1.0  0.66613  0.86433  0.76800  1.0000
  N   N44       1.0  0.72795  0.63359  0.88821  1.0000
  C   C548      1.0  0.72487  0.65952  0.90048  1.0000
  C   C549      1.0  0.75487  0.62169  0.88079  1.0000
  C   C550      1.0  0.74908  0.67468  0.90477  1.0000
  C   C551      1.0  0.77956  0.63617  0.88495  1.0000
  C   C552      1.0  0.77657  0.66295  0.89680  1.0000
  C   C553      1.0  0.70241  0.61782  0.88408  1.0000
  H   H550      1.0  0.70359  0.66885  0.90675  1.0000
  H   H551      1.0  0.75737  0.60130  0.87076  1.0000
  H   H552      1.0  0.74638  0.69551  0.91400  1.0000
  C   C554      1.0  0.66707  0.88803  0.69807  1.0000
  C   C555      1.0  0.72648  0.69906  0.76051  1.0000
  N   N45       1.0  0.69182  0.90267  0.69615  1.0000
  H   H553      1.0  0.74686  0.76299  0.78095  1.0000
  C   C556      1.0  0.84258  0.50018  0.74503  1.0000
  C   C557      1.0  0.81477  0.70064  0.68130  1.0000
  H   H554      1.0  0.93896  0.53558  0.75532  1.0000
  S   S191      1.0  0.81350  0.66272  0.68604  1.0000
  S   S192      1.0  0.67617  0.81776  0.68058  1.0000
  H   H555      1.0  0.50815  0.75951  0.87585  1.0000
  H   H556      1.0  0.86075  0.70149  0.68411  1.0000
  C   C558      1.0  0.95816  0.54537  0.74564  1.0000
  H   H557      1.0  0.95562  0.60626  0.68169  1.0000
  C   C559      1.0  0.74855  0.74193  0.77219  1.0000
  H   H558      1.0  0.70730  0.68691  0.76049  1.0000
  C   C560      1.0  0.72401  0.72627  0.77168  1.0000
  C   C561      1.0  0.77689  0.70300  0.75057  1.0000
  H   H559      1.0  0.73746  0.64557  0.74742  1.0000
  H   H560      1.0  0.75422  0.66208  0.71501  1.0000
  H   H561      1.0  0.77586  0.64733  0.74353  1.0000
  N   N46       1.0  0.75279  0.68759  0.75056  1.0000
  C   C562      1.0  0.75507  0.65926  0.73853  1.0000
  H   H562      1.0  0.70322  0.73512  0.78001  1.0000
  C   C563      1.0  0.77516  0.73038  0.76137  1.0000
  C   C564      1.0  0.98077  0.61870  0.76952  1.0000
  C   C565      1.0  0.70244  0.78842  0.97836  1.0000
  C   C566      1.0  0.86989  0.49972  0.73071  1.0000
  C   C567      1.0  0.50130  0.66206  0.88597  1.0000
  H   H563      1.0  0.53806  0.67971  0.90253  1.0000
  C   C568      1.0  0.98475  0.53994  0.75771  1.0000
  H   H564      1.0  0.67379  0.82230  0.92908  1.0000
  C   C569      1.0  0.84141  0.74415  0.67301  1.0000
  C   C570      1.0  0.67061  0.80025  0.93905  1.0000
  N   N47       1.0  0.67617  0.79903  0.96937  1.0000
  H   H565      1.0  0.86178  0.75436  0.67129  1.0000
  N   N48       1.0  0.98014  0.57665  0.70878  1.0000
  C   C571      1.0  0.49785  0.70160  0.91675  1.0000
  C   C572      1.0  0.97776  0.59573  0.68279  1.0000
  C   C573      1.0  0.65515  0.80915  0.98846  1.0000
  C   C574      1.0  0.51468  0.68057  0.90229  1.0000
  C   C575      1.0  0.78914  0.71737  0.67654  1.0000
  H   H566      1.0  0.76881  0.70714  0.67759  1.0000
  H   H567      1.0  0.50860  0.71661  0.92843  1.0000
  H   H568      1.0  0.98640  0.52613  0.77714  1.0000
  H   H569      1.0  0.71132  0.70906  0.99668  1.0000
  C   C576      1.0  0.78965  0.74729  0.66986  1.0000
  H   H570      1.0  0.51416  0.64663  0.87349  1.0000
  H   H571      1.0  0.69225  0.94044  0.66791  1.0000
  H   H572      1.0  0.79294  0.97707  0.66909  1.0000
  H   H573      1.0  0.63426  0.81736  0.98138  1.0000
  H   H574      1.0  0.72520  0.91776  0.66662  1.0000
  H   H575      1.0  0.99253  0.61365  0.68257  1.0000
  H   H576      1.0  0.76972  0.75982  0.66666  1.0000
