data_image0
_chemical_formula_structural       CHCFeS2CHCFe2HC2S2FeSHFeS2FeSFeS3C6H4C6H4C6H5CHSNCNHC5SH2CFeS2HCNH2NHCHFeC2FeH2CHCH2NC6H10CHC2HC2HSCHCH2CHSCHFeSCH2C4SHC2HCHCH4CHCS2H8FeH2C4FeHSHCFeSC2HSNCSC2HNHC2HSHFeS2FeSFeS3CSH2CNH2CHCFeS2FeS2FeSFeS4FeC3HFeSFeSHSH3FeC9H4C2HSC4H2CH2C4NH2C3HC3HCH2C6H4C3H5CHC2FeCSC2H2C2HN2C3H2C3FeNCH2CSH2FeH4C2HCHSH3CHCH4NC3HFeH2NH2C4H2SHC2H3SHCHSCH4SCHCHCSC2H2CHC2NHCFeSHSFeS2FeSFeSFeCS2HCH2CH3NH2C6HCH2C11H2FeCH3CSHSHCHC2H5CH3CHNCSHC2HCHC2HCH3CH2FeCHCSHNHFeS2FeS2FeSFeS3CHC2SH4C2HSFeS2FeSHFeSFeS4HC5HCHCH2CFeC2HC7H4C6H4C3H2CH2CH3C3H4CHCFeC2H3CHNCSHCHCH5NCHCHC2H2CHC2HNHC2NC6H7NC4HSH2C2H2CH3C4H2C2HC3SC2SHC3FeHC2H3CH3CNCNHNH2SCH2CH10CFeSCFeS2FeSFeHS2CSHCH2SH2CSC2HC2S2FeSFeS2FeS2FeSFeS3C6H4C2HC7H4C7H4SCHCH2SC6H4C6H4CNHFeHNC6H8CSC2NC6H8NC2H2FeCHCFeH2CH5C2H2CH2CHFeH2NC2NH2CH2CH3SCH2C4HCFeSNH2CH3CH2C2HC3HCSCSC2H2CH2CH2NFeS2FeS2FeSFeS5FeSFeNCH3S2C2H3FeSHC2H4C2H3CSHS2HC3HSH3CH2SC3H3CH4C2SCHFeCFeCHC7H3FeC2HSC6H4C3NHCH3C7H4CFeC2H2SCH4CH2FeHSCHC2H2C3FeCHSC3HSH2CH4NHSNSCFeCSNFeCHC2HC3H2SCHC2HSHCFeC2FeNHSC2H4CHCH2S3HC3H2SHSHCNFeHCNSHCFeC4NHSCFe2S2FeHFeHS2CSCSFeS2FeS2FeSFeS3C2SHCH2N2FeS2FeS2FeSFeS3C2HNHSC5HNH2CH2CHC6H4C6HC7H7C4HFeH2CHFeH2C6H4C6H5NH3C2H3FeNC6H8CH3NC6H8C3H6C3H3SH3CH4SC2SC3SHSHC4SHCHCHS2CNCH2CHC2H2CHCHC2H4SHC2H3CH2C2HCFeH2CHS2C2SCHCFeCH2CSNCH2FeCHC5HC3SC2HCNCHFeC2H2C2NH5CH2S2C3H2CH3SCH2CSCH2CHCH4CH3S2HFeH2CH2C2HCNCNH2SH3C2SH3C2FeNH2FeCHCHSHSH2CS2HSHCH2C2H2C3SHCS2HC5H3FeCFeSCHC3HCHC3HCHCHCFeS2H3CFeCSC2HC2HSHNC5H3FeCH5NSFeSFeSFeS2HC2FeSH2SHC3NHC2H2C3H3C3H2C2H3FeCFeHCFeH2C2HC2HCSHSHCHSH2C2H4C6HC2HC3HSNHCH2C2HCNSHCHFe3CHCFeSCNCHFeH2C2HSCSCHSHS2HC2NH2CSCHC9H3FeCH2CH2CH3CHSHCS2HNC2HC2H2SC2H2SFeH2CFeCSHCHSC2HCNCS2C2HSH4FeS2FeSFeHFeS4FeSFeS2FeS2FeSFeS3C6H4CH2C6H5CHCH4CHC3NHC6H3C7H3C4H2C3H3SCH3CSCH2SH2C2H4C2HFeHC2HCHNC2HSH2CHFeH3C4HCFeCSH4CNCHCHCH2CHCH2CHCSH2SCHNHCH2C5SHCH4C3H4FeCFeS2FeS2FeSFeS3HCH2FeS2FeS2FeSFeS3NC2FeCH3Fe2SFeS2HC2FeH2SC3HCH3S2HC3NH2C8H6C4FeSH2C2NH2CHFeC2HCHC6H4C3HC7H5C3H2NHC2HNC2HCNC6H10CS2CHCH3CSNHC2H3C3FeCH3C4HC2NC2H2CHSCH2FeH2C4HCH5SH2CHCHCH2C2SHCH5CNHC3H2SH2C2H2C2H2C2H2C3Fe2SFeS2C3HS2FeS2FeS2FeSFeHS2FeSFeS2FeSFeS3H3C2SHCS2CHSCHC7H3SC3H3FeC3HC5H3C6H2CHC6H4CHNC2H2CHCH2CNH2NCFeSNC2NH3FeHC5FeHCSCH3C2H7SH3S3CHNC6H11SC3HC2HC2H4CS2H4SH2C2HCH2C2SC3NH2NC2HC3HCFeS2FeS2FeSFeS3CHCNSCSCFeS2HFeSFeS3HCSC2NH2C4HFeH2CSC6H4C2H2CH2C8H4C6H3CH2C5NSHC2HC2NCH4C2HCSH2CHCH3CH2C2H3SHC2NHFeC3SH2CH6CH4C2HCH3CHFeC2H2CHC2HCSFeS2FeSFeSFeHSHCNC4H6CHCHSHC4HSC2H3NC5H3NH3C3HC3H2CH6SH2CHSH3CH3CHS2CHFeHC3HCHCSC2HCFeSHCFeHCSHN2CHC2FeCSHSH3C2HSHNCFeHSFeHSHFeS2FeS2FeSFeS3FeS2FeS2FeSFeS3NH2SC2H6CSCHCH3FeSFeS2FeSFeS3H4CHCNHC2NHSNCHCHCHSC8H4C6HSH3NHC6HCH2SC7H5FeCHC6H5CH2C2H2C3NC7H4CH4C2FeCHCH3CSHC4H3NC2NCHCH3CH4CHC5H5C2H4C2SCH2FeS2FeS2FeSFeS3HFeS2HCSHFeSCHC2FeSFeSHSCSH5NHCFeHSC3NCSH2C4HC7H4C6H4C6H4CSCHC2H4CHC4FeC2FeHSCH2CH6FeCHNC6H4NC2H4CSCSH2CHFeHCHS2C2HNC6H6CNH3CHSHFe2HCH2SC2SH2CS2FeS2FeS2FeSFeS3CH2SFeS2FeS2FeSFeS3C3H4C2HC6H3NC2H3C8H5C6H5C6H4C6H3CNCHC2HFeH4SHCH2CH4SC2FeNC5H2NHCHCHCNC6H8NHC3HCH2CHFeH3NC6H7C2HC2FeCH5C2H3CH2CH5C3H2CHCH2SC3HCSC2HCFeHCHCFeHCHCSHFeSFeSFeS2FeSCS2HFeSFeS2FeSHFeCFeS3HFeS2FeS2FeSFeHS2CSCH2CH3CHCHCHCHC6H2CH2NHC3HCH2FeCHC4H3SC2HCH5C6H3SC4HC8H4CHNHCHC6H4CHNC3HC2H2SHCSNCNC5H7CHNCH3SH2CHC5HNC6H2C2HFeHCNH2S2HSNSC2HC3HSFeCHC2HCH2FeH5CHCHSH2SCH4CH2CH3SCHS2C2H5CH4C2H2SCHC2SH2C2FeS2CHCSCHNHC2FeHCHSCHFeCHSCH2CSHC6SH4C2SHC2HCHSC6H4FeCS2H2FeCH3SCHCFeH3CHCHCHCHCHCHC4H2CHSCFeCSHC2H2CSNHCS2H3FeC4HC2H2FeH2CHCFeHSHCNCH2CFeSCH2SNFeSCHFeS2C2SFeSH2SHCS2HSH2SHNHFeS2FeS2FeHFeS3FeSCFeSCFeSFeS3CFeHCHCH4SNFeC4H4SC7H4CH2C4H2CH2CH7C6H4C6H4C6H4CHNC2H3NC5SHNH2C2HCSC4HCHC2NC6H9SC2H3CHC2H3CSHC3S2FeH2C3H2C2HC2HC2H2C2FeC4H3CH3CHCSFeS2FeS2Fe2CS2CFeS3HSH2CH2FeHC2FeSC2SFeS2CHCSC6H4CSCH2FeCH2CNSH2CHC6H3SC4H3CH2CSHC2HCH2C2NFeC2HSHSCH3CFeC2S2HCHSC3H2C2H2CFeC2NH2CH3C2H2CH3C3H2FeCH2C3HCHSC2HCSHCHC3HCHSCSH2NFeH4NHSH2C2H3C3H2CNCHCHCHSC2FeC2
_chemical_formula_sum              "C1728 H1728 Fe288 S576 N144"
_cell_length_a       64.2141
_cell_length_b       64.8846
_cell_length_c       97.8207
_cell_angle_alpha    76.8465
_cell_angle_beta     77.2935
_cell_angle_gamma    101.893

_space_group_name_H-M_alt    "P 1"
_space_group_IT_number       1

loop_
  _space_group_symop_operation_xyz
  'x, y, z'

loop_
  _atom_site_type_symbol
  _atom_site_label
  _atom_site_symmetry_multiplicity
  _atom_site_fract_x
  _atom_site_fract_y
  _atom_site_fract_z
  _atom_site_occupancy
  C   C1        1.0  0.21863  0.28717  0.01116  1.0000
  H   H1        1.0  0.41343  0.23750  0.01104  1.0000
  C   C2        1.0  0.04045  0.13611  0.20043  1.0000
  Fe  Fe1       1.0  0.01972  0.07296  0.11597  1.0000
  S   S1        1.0  0.03621  0.05780  0.13234  1.0000
  S   S2        1.0  0.03753  0.09475  0.09298  1.0000
  C   C3        1.0  0.40300  0.30751  0.02692  1.0000
  H   H2        1.0  0.44035  0.29101  0.99681  1.0000
  C   C4        1.0  0.05344  0.03549  0.16800  1.0000
  Fe  Fe2       1.0  0.49613  0.29242  0.04892  1.0000
  Fe  Fe3       1.0  0.00866  0.06279  0.14890  1.0000
  H   H3        1.0  0.03814  0.02975  0.20444  1.0000
  C   C5        1.0  0.42242  0.24211  0.01856  1.0000
  C   C6        1.0  0.44480  0.24266  0.01619  1.0000
  S   S3        1.0  0.06529  0.12419  0.23259  1.0000
  S   S4        1.0  0.08380  0.10656  0.19655  1.0000
  Fe  Fe4       1.0  0.13723  0.24137  0.02694  1.0000
  S   S5        1.0  0.16983  0.23437  0.01964  1.0000
  H   H4        1.0  0.49887  0.26014  0.07305  1.0000
  Fe  Fe5       1.0  0.12396  0.20648  0.05657  1.0000
  S   S6        1.0  0.15599  0.19714  0.05148  1.0000
  S   S7        1.0  0.10077  0.19011  0.07933  1.0000
  Fe  Fe6       1.0  0.17183  0.23328  0.04234  1.0000
  S   S8        1.0  0.20256  0.25276  0.04554  1.0000
  Fe  Fe7       1.0  0.15046  0.19910  0.02942  1.0000
  S   S9        1.0  0.14046  0.24283  0.04907  1.0000
  S   S10       1.0  0.11723  0.20587  0.03505  1.0000
  S   S11       1.0  0.28634  0.22057  0.02300  1.0000
  C   C7        1.0  0.22572  0.24350  0.03960  1.0000
  C   C8        1.0  0.24677  0.25843  0.03430  1.0000
  C   C9        1.0  0.26545  0.25140  0.02920  1.0000
  C   C10       1.0  0.26317  0.22925  0.02990  1.0000
  C   C11       1.0  0.24213  0.21427  0.03526  1.0000
  C   C12       1.0  0.22334  0.22148  0.03987  1.0000
  H   H5        1.0  0.24862  0.27549  0.03405  1.0000
  H   H6        1.0  0.28166  0.26304  0.02498  1.0000
  H   H7        1.0  0.24033  0.19717  0.03568  1.0000
  H   H8        1.0  0.20709  0.20991  0.04397  1.0000
  C   C13       1.0  0.05286  0.12213  0.08967  1.0000
  C   C14       1.0  0.05834  0.13001  0.10093  1.0000
  C   C15       1.0  0.07254  0.15120  0.09766  1.0000
  C   C16       1.0  0.08159  0.16443  0.08312  1.0000
  C   C17       1.0  0.07581  0.15668  0.07189  1.0000
  C   C18       1.0  0.06125  0.13570  0.07519  1.0000
  H   H9        1.0  0.05195  0.11967  0.11212  1.0000
  H   H10       1.0  0.07693  0.15720  0.10639  1.0000
  H   H11       1.0  0.08252  0.16685  0.06068  1.0000
  H   H12       1.0  0.05690  0.12975  0.06644  1.0000
  C   C19       1.0  0.06281  0.09502  0.18928  1.0000
  C   C20       1.0  0.04145  0.08407  0.19833  1.0000
  C   C21       1.0  0.02467  0.07572  0.19247  1.0000
  C   C22       1.0  0.02884  0.07835  0.17745  1.0000
  C   C23       1.0  0.05017  0.08929  0.16822  1.0000
  C   C24       1.0  0.06715  0.09761  0.17416  1.0000
  H   H13       1.0  0.03750  0.08279  0.20978  1.0000
  H   H14       1.0  0.01446  0.00510  0.10849  1.0000
  H   H15       1.0  0.05352  0.09162  0.15656  1.0000
  H   H16       1.0  0.08359  0.10630  0.16702  1.0000
  H   H17       1.0  0.00512  0.06528  0.23349  1.0000
  C   C25       1.0  0.45624  0.24928  0.02572  1.0000
  H   H18       1.0  0.49288  0.25267  0.18608  1.0000
  S   S12       1.0  0.33361  0.27824  0.00966  1.0000
  N   N1        1.0  0.21099  0.30393  0.01482  1.0000
  C   C26       1.0  0.38226  0.30392  0.21481  1.0000
  N   N2        1.0  0.02016  0.00619  0.18016  1.0000
  H   H19       1.0  0.44468  0.28750  0.22516  1.0000
  C   C27       1.0  0.42593  0.31201  0.02539  1.0000
  C   C28       1.0  0.43926  0.30569  0.01460  1.0000
  C   C29       1.0  0.45186  0.31262  0.20477  1.0000
  C   C30       1.0  0.41181  0.24832  0.03046  1.0000
  C   C31       1.0  0.06554  0.02254  0.23269  1.0000
  S   S13       1.0  0.47280  0.30964  0.09693  1.0000
  H   H20       1.0  0.19301  0.29632  0.03708  1.0000
  H   H21       1.0  0.00822  0.06755  0.19959  1.0000
  C   C32       1.0  0.03777  0.02665  0.19406  1.0000
  Fe  Fe8       1.0  0.01180  0.02629  0.13418  1.0000
  S   S14       1.0  0.46300  0.29274  0.06193  1.0000
  S   S15       1.0  0.12958  0.26874  0.01180  1.0000
  H   H22       1.0  0.28614  0.19847  0.99843  1.0000
  C   C33       1.0  0.44514  0.25551  0.03745  1.0000
  N   N3        1.0  0.42328  0.25523  0.03958  1.0000
  H   H23       1.0  0.45694  0.30917  0.01320  1.0000
  H   H24       1.0  0.39452  0.24824  0.03201  1.0000
  N   N4        1.0  0.40632  0.30737  0.21159  1.0000
  H   H25       1.0  0.02043  0.12657  0.22285  1.0000
  C   C34       1.0  0.06081  0.01015  0.22315  1.0000
  H   H26       1.0  0.49878  0.27715  0.10047  1.0000
  Fe  Fe9       1.0  0.48227  0.31418  0.07254  1.0000
  C   C35       1.0  0.23914  0.29149  0.00095  1.0000
  C   C36       1.0  0.03597  0.01894  0.16756  1.0000
  Fe  Fe10      1.0  0.31180  0.24914  0.00622  1.0000
  H   H27       1.0  0.02151  0.12535  0.17236  1.0000
  H   H28       1.0  0.17816  0.28377  0.02616  1.0000
  C   C37       1.0  0.41990  0.32225  0.19885  1.0000
  H   H29       1.0  0.37584  0.29363  0.01910  1.0000
  C   C38       1.0  0.14671  0.31276  0.00692  1.0000
  H   H30       1.0  0.07655  0.03900  0.22835  1.0000
  H   H31       1.0  0.19813  0.20193  0.99440  1.0000
  N   N5        1.0  0.11372  0.12901  0.06875  1.0000
  C   C39       1.0  0.12104  0.13884  0.05399  1.0000
  C   C40       1.0  0.09760  0.10947  0.07435  1.0000
  C   C41       1.0  0.11157  0.12956  0.04445  1.0000
  C   C42       1.0  0.08767  0.09978  0.06515  1.0000
  C   C43       1.0  0.09466  0.10998  0.05011  1.0000
  C   C44       1.0  0.12365  0.13928  0.07854  1.0000
  H   H32       1.0  0.13408  0.15411  0.04948  1.0000
  H   H33       1.0  0.09151  0.10176  0.08607  1.0000
  H   H34       1.0  0.11724  0.13770  0.03277  1.0000
  H   H35       1.0  0.07407  0.08489  0.06977  1.0000
  H   H36       1.0  0.08684  0.10285  0.04287  1.0000
  H   H37       1.0  0.12632  0.15740  0.07499  1.0000
  H   H38       1.0  0.11250  0.13355  0.08989  1.0000
  H   H39       1.0  0.13978  0.13564  0.07857  1.0000
  H   H40       1.0  0.05578  0.14270  0.20283  1.0000
  H   H41       1.0  0.37517  0.29167  0.20962  1.0000
  C   C45       1.0  0.39349  0.29699  0.01774  1.0000
  H   H42       1.0  0.33396  0.28427  0.23371  1.0000
  C   C46       1.0  0.41497  0.29489  0.22094  1.0000
  C   C47       1.0  0.05445  0.03913  0.18139  1.0000
  H   H43       1.0  0.21996  0.22282  0.00729  1.0000
  C   C48       1.0  0.15068  0.17968  0.00101  1.0000
  C   C49       1.0  0.02100  0.12637  0.18335  1.0000
  H   H44       1.0  0.47365  0.24974  0.02406  1.0000
  S   S16       1.0  0.04750  0.07183  0.23520  1.0000
  C   C50       1.0  0.02071  0.01007  0.19326  1.0000
  H   H45       1.0  0.46964  0.31464  0.20205  1.0000
  C   C51       1.0  0.18998  0.29894  0.02614  1.0000
  H   H46       1.0  0.40966  0.24942  0.06237  1.0000
  H   H47       1.0  0.05607  0.14246  0.17748  1.0000
  C   C52       1.0  0.13400  0.19011  0.99933  1.0000
  H   H48       1.0  0.39580  0.26447  0.05105  1.0000
  S   S17       1.0  0.15771  0.17443  0.01758  1.0000
  C   C53       1.0  0.41215  0.26200  0.05191  1.0000
  H   H49       1.0  0.25983  0.22488  0.00329  1.0000
  Fe  Fe11      1.0  0.07603  0.10007  0.22127  1.0000
  S   S18       1.0  0.39585  0.27801  0.99475  1.0000
  C   C54       1.0  0.48562  0.32817  0.11745  1.0000
  H   H50       1.0  0.37422  0.29782  0.22678  1.0000
  H   H51       1.0  0.45421  0.26068  0.04476  1.0000
  C   C55       1.0  0.04060  0.13605  0.18616  1.0000
  C   C56       1.0  0.17173  0.29425  0.99569  1.0000
  C   C57       1.0  0.42981  0.29550  0.00526  1.0000
  C   C58       1.0  0.22780  0.21446  0.00006  1.0000
  S   S19       1.0  0.09851  0.09207  0.23531  1.0000
  H   H52       1.0  0.20892  0.27030  0.01622  1.0000
  C   C59       1.0  0.25168  0.31317  0.99424  1.0000
  C   C60       1.0  0.40689  0.29110  0.00674  1.0000
  H   H53       1.0  0.12462  0.19418  0.00844  1.0000
  C   C61       1.0  0.02070  0.12694  0.21165  1.0000
  H   H54       1.0  0.17506  0.27934  0.99372  1.0000
  C   C62       1.0  0.25025  0.21532  0.99794  1.0000
  H   H55       1.0  0.39252  0.31234  0.03522  1.0000
  H   H56       1.0  0.29541  0.27299  0.23232  1.0000
  H   H57       1.0  0.47111  0.31634  0.12532  1.0000
  H   H58       1.0  0.06787  0.05190  0.18194  1.0000
  C   C63       1.0  0.15101  0.29338  0.00459  1.0000
  H   H59       1.0  0.48751  0.26654  0.12643  1.0000
  C   C64       1.0  0.43786  0.29737  0.21770  1.0000
  S   S20       1.0  0.43731  0.32691  0.03643  1.0000
  S   S21       1.0  0.00628  0.06864  0.17101  1.0000
  H   H60       1.0  0.42229  0.27799  0.05211  1.0000
  H   H61       1.0  0.06847  0.01712  0.21152  1.0000
  H   H62       1.0  0.06598  0.04560  0.15802  1.0000
  H   H63       1.0  0.40413  0.28299  0.23103  1.0000
  H   H64       1.0  0.41301  0.33216  0.19145  1.0000
  H   H65       1.0  0.45328  0.23809  0.00693  1.0000
  H   H66       1.0  0.37804  0.31956  0.21075  1.0000
  H   H67       1.0  0.13070  0.31223  0.01369  1.0000
  Fe  Fe12      1.0  0.46796  0.32370  0.04424  1.0000
  H   H68       1.0  0.03519  0.01628  0.15711  1.0000
  H   H69       1.0  0.49004  0.27486  0.14966  1.0000
  C   C65       1.0  0.44286  0.32521  0.19530  1.0000
  C   C66       1.0  0.21552  0.20257  0.99291  1.0000
  C   C67       1.0  0.16310  0.33284  0.00070  1.0000
  C   C68       1.0  0.22336  0.32526  0.00844  1.0000
  Fe  Fe13      1.0  0.36039  0.27336  0.99265  1.0000
  H   H70       1.0  0.18176  0.31240  0.02428  1.0000
  S   S22       1.0  0.50053  0.32231  0.03069  1.0000
  H   H71       1.0  0.24534  0.27809  0.99838  1.0000
  C   C69       1.0  0.48997  0.32884  0.10263  1.0000
  Fe  Fe14      1.0  0.32514  0.29750  0.99050  1.0000
  S   S23       1.0  0.31751  0.32988  0.98975  1.0000
  C   C70       1.0  0.37801  0.33634  0.99015  1.0000
  C   C71       1.0  0.24371  0.33023  0.99789  1.0000
  H   H72       1.0  0.34241  0.32832  0.01335  1.0000
  S   S24       1.0  0.33890  0.24250  0.99048  1.0000
  N   N6        1.0  0.00169  0.11741  0.19442  1.0000
  C   C72       1.0  0.18361  0.33389  0.99156  1.0000
  S   S25       1.0  0.30008  0.26906  0.98912  1.0000
  C   C73       1.0  0.18788  0.31456  0.98896  1.0000
  C   C74       1.0  0.16244  0.17414  0.98917  1.0000
  H   H73       1.0  0.17510  0.16575  0.99047  1.0000
  N   N7        1.0  0.26005  0.20416  0.98928  1.0000
  H   H74       1.0  0.36342  0.33050  0.98679  1.0000
  C   C75       1.0  0.28353  0.20515  0.98759  1.0000
  C   C76       1.0  0.50128  0.27955  0.12632  1.0000
  H   H75       1.0  0.26779  0.33061  0.37749  1.0000
  S   S26       1.0  0.34701  0.29593  0.37482  1.0000
  H   H76       1.0  0.41408  0.32539  0.32053  1.0000
  Fe  Fe15      1.0  0.38568  0.28498  0.34298  1.0000
  S   S27       1.0  0.36137  0.25762  0.36161  1.0000
  S   S28       1.0  0.40535  0.27917  0.32307  1.0000
  Fe  Fe16      1.0  0.33751  0.27835  0.35865  1.0000
  S   S29       1.0  0.30223  0.27218  0.35611  1.0000
  Fe  Fe17      1.0  0.37373  0.27831  0.37557  1.0000
  S   S30       1.0  0.38288  0.26707  0.39686  1.0000
  S   S31       1.0  0.36155  0.30454  0.33944  1.0000
  S   S32       1.0  0.39972  0.30387  0.35688  1.0000
  C   C77       1.0  0.29967  0.26587  0.24211  1.0000
  S   S33       1.0  0.47202  0.31334  0.48404  1.0000
  H   H77       1.0  0.33478  0.28253  0.32017  1.0000
  H   H78       1.0  0.45622  0.23246  0.48365  1.0000
  C   C78       1.0  0.19451  0.15832  0.27244  1.0000
  N   N8        1.0  0.26723  0.29741  0.37842  1.0000
  H   H79       1.0  0.46847  0.03443  0.29006  1.0000
  H   H80       1.0  0.47071  0.27436  0.39369  1.0000
  C   C79       1.0  0.48124  0.02540  0.29107  1.0000
  H   H81       1.0  0.14766  0.22890  0.32777  1.0000
  C   C80       1.0  0.38858  0.32461  0.41390  1.0000
  Fe  Fe18      1.0  0.22871  0.22052  0.30859  1.0000
  S   S34       1.0  0.24138  0.25323  0.29187  1.0000
  S   S35       1.0  0.25089  0.21283  0.32333  1.0000
  Fe  Fe19      1.0  0.18872  0.20656  0.29603  1.0000
  S   S36       1.0  0.19878  0.23933  0.27912  1.0000
  S   S37       1.0  0.15900  0.17834  0.29709  1.0000
  Fe  Fe20      1.0  0.23312  0.23531  0.27603  1.0000
  S   S38       1.0  0.25566  0.24430  0.25342  1.0000
  Fe  Fe21      1.0  0.20614  0.25436  0.29675  1.0000
  S   S39       1.0  0.20117  0.28791  0.29679  1.0000
  S   S40       1.0  0.22325  0.20199  0.29207  1.0000
  S   S41       1.0  0.19305  0.22199  0.31439  1.0000
  S   S42       1.0  0.45938  0.28787  0.45264  1.0000
  Fe  Fe22      1.0  0.37264  0.32032  0.35551  1.0000
  C   C81       1.0  0.34337  0.29651  0.31015  1.0000
  C   C82       1.0  0.25864  0.31512  0.37674  1.0000
  C   C83       1.0  0.14004  0.23985  0.27925  1.0000
  H   H82       1.0  0.15620  0.27761  0.29645  1.0000
  Fe  Fe23      1.0  0.08593  0.11458  0.24793  1.0000
  S   S43       1.0  0.11113  0.14271  0.25195  1.0000
  Fe  Fe24      1.0  0.06827  0.06560  0.25024  1.0000
  S   S44       1.0  0.06209  0.02900  0.25988  1.0000
  H   H83       1.0  0.20700  0.27073  0.32555  1.0000
  S   S45       1.0  0.05665  0.08722  0.26368  1.0000
  H   H84       1.0  0.48433  0.21182  0.48508  1.0000
  H   H85       1.0  0.15232  0.27521  0.27224  1.0000
  H   H86       1.0  0.43612  0.22846  0.43569  1.0000
  Fe  Fe25      1.0  0.48320  0.30648  0.46225  1.0000
  C   C84       1.0  0.21752  0.33412  0.31740  1.0000
  C   C85       1.0  0.13462  0.22093  0.29093  1.0000
  C   C86       1.0  0.21382  0.29878  0.33391  1.0000
  C   C87       1.0  0.14541  0.16916  0.28440  1.0000
  C   C88       1.0  0.12932  0.14867  0.28922  1.0000
  C   C89       1.0  0.11851  0.14043  0.27961  1.0000
  C   C90       1.0  0.12338  0.15265  0.26495  1.0000
  C   C91       1.0  0.13914  0.17339  0.26022  1.0000
  C   C92       1.0  0.15013  0.18153  0.26979  1.0000
  H   H87       1.0  0.12530  0.13890  0.30048  1.0000
  H   H88       1.0  0.10644  0.12454  0.28355  1.0000
  H   H89       1.0  0.14307  0.18312  0.24896  1.0000
  H   H90       1.0  0.16228  0.19735  0.26581  1.0000
  C   C93       1.0  0.20890  0.30071  0.30977  1.0000
  C   C94       1.0  0.21001  0.28838  0.32319  1.0000
  H   H91       1.0  0.31052  0.27790  0.28581  1.0000
  S   S46       1.0  0.47178  0.23516  0.44942  1.0000
  C   C95       1.0  0.43901  0.31281  0.39442  1.0000
  C   C96       1.0  0.21297  0.32363  0.30685  1.0000
  C   C97       1.0  0.48722  0.21731  0.45511  1.0000
  C   C98       1.0  0.17855  0.13847  0.27518  1.0000
  H   H92       1.0  0.29042  0.30837  0.38953  1.0000
  H   H93       1.0  0.38101  0.31384  0.42495  1.0000
  C   C99       1.0  0.32706  0.26316  0.25557  1.0000
  H   H94       1.0  0.49800  0.04466  0.30907  1.0000
  H   H95       1.0  0.22668  0.26059  0.37276  1.0000
  C   C100      1.0  0.28322  0.25078  0.25411  1.0000
  C   C101      1.0  0.28874  0.24165  0.26678  1.0000
  C   C102      1.0  0.31074  0.24754  0.26741  1.0000
  C   C103      1.0  0.29104  0.29384  0.27377  1.0000
  N   N9        1.0  0.47899  0.01537  0.30653  1.0000
  H   H96       1.0  0.27611  0.22995  0.27610  1.0000
  H   H97       1.0  0.31496  0.24043  0.27722  1.0000
  C   C104      1.0  0.23804  0.31356  0.37395  1.0000
  C   C105      1.0  0.40541  0.28280  0.40118  1.0000
  C   C106      1.0  0.42145  0.30061  0.39064  1.0000
  H   H98       1.0  0.45154  0.27905  0.37509  1.0000
  C   C107      1.0  0.44087  0.30737  0.40877  1.0000
  C   C108      1.0  0.42515  0.28927  0.41926  1.0000
  C   C109      1.0  0.40748  0.27711  0.41549  1.0000
  H   H99       1.0  0.42035  0.30512  0.37958  1.0000
  C   C110      1.0  0.13753  0.22272  0.30441  1.0000
  H   H100      1.0  0.42626  0.28497  0.43039  1.0000
  H   H101      1.0  0.39524  0.26335  0.42374  1.0000
  C   C111      1.0  0.28963  0.25690  0.34562  1.0000
  C   C112      1.0  0.27081  0.26152  0.34178  1.0000
  C   C113      1.0  0.25941  0.24892  0.33432  1.0000
  C   C114      1.0  0.26638  0.23116  0.33089  1.0000
  C   C115      1.0  0.28543  0.22686  0.33449  1.0000
  C   C116      1.0  0.29718  0.23981  0.34161  1.0000
  H   H102      1.0  0.26480  0.27474  0.34476  1.0000
  H   H103      1.0  0.24472  0.25238  0.33173  1.0000
  H   H104      1.0  0.29094  0.21312  0.33196  1.0000
  H   H105      1.0  0.31153  0.23593  0.34451  1.0000
  C   C117      1.0  0.40929  0.30200  0.30824  1.0000
  C   C118      1.0  0.40752  0.29907  0.29476  1.0000
  C   C119      1.0  0.16990  0.13397  0.26395  1.0000
  H   H106      1.0  0.30825  0.30178  0.32808  1.0000
  H   H107      1.0  0.24947  0.31145  0.26408  1.0000
  H   H108      1.0  0.13344  0.25026  0.32610  1.0000
  H   H109      1.0  0.40452  0.28274  0.29337  1.0000
  H   H110      1.0  0.13372  0.20779  0.31330  1.0000
  C   C120      1.0  0.28916  0.29989  0.38096  1.0000
  H   H111      1.0  0.29263  0.28372  0.38456  1.0000
  C   C121      1.0  0.26688  0.31040  0.26123  1.0000
  C   C122      1.0  0.32053  0.31711  0.32193  1.0000
  Fe  Fe26      1.0  0.47782  0.31259  0.43105  1.0000
  C   C123      1.0  0.45545  0.25222  0.41524  1.0000
  S   S47       1.0  0.39776  0.33030  0.24220  1.0000
  C   C124      1.0  0.15020  0.26159  0.29496  1.0000
  C   C125      1.0  0.43717  0.23518  0.42424  1.0000
  H   H112      1.0  0.25113  0.31586  0.28743  1.0000
  H   H113      1.0  0.12846  0.20488  0.28953  1.0000
  C   C126      1.0  0.22641  0.29385  0.37255  1.0000
  C   C127      1.0  0.05662  0.01341  0.24780  1.0000
  H   H114      1.0  0.40847  0.22983  0.39940  1.0000
  N   N10       1.0  0.14531  0.24290  0.30627  1.0000
  N   N11       1.0  0.43980  0.25286  0.39501  1.0000
  C   C128      1.0  0.42189  0.23599  0.40374  1.0000
  C   C129      1.0  0.45655  0.26091  0.40054  1.0000
  C   C130      1.0  0.42025  0.22698  0.41849  1.0000
  H   H115      1.0  0.33746  0.29302  0.30088  1.0000
  H   H116      1.0  0.46048  0.18857  0.45903  1.0000
  C   C131      1.0  0.44145  0.26163  0.37948  1.0000
  C   C132      1.0  0.48866  0.02762  0.31430  1.0000
  C   C133      1.0  0.21733  0.32165  0.33115  1.0000
  Fe  Fe27      1.0  0.48565  0.27075  0.44719  1.0000
  N   N12       1.0  0.27403  0.30359  0.27439  1.0000
  C   C134      1.0  0.14745  0.24478  0.32059  1.0000
  H   H117      1.0  0.16327  0.25694  0.31932  1.0000
  H   H118      1.0  0.29943  0.29157  0.26357  1.0000
  C   C135      1.0  0.28682  0.28931  0.29948  1.0000
  S   S48       1.0  0.35396  0.27227  0.25702  1.0000
  H   H119      1.0  0.47952  0.01278  0.28506  1.0000
  H   H120      1.0  0.22635  0.20246  0.24466  1.0000
  Fe  Fe28      1.0  0.03750  0.09499  0.24726  1.0000
  H   H121      1.0  0.36133  0.29728  0.30783  1.0000
  H   H122      1.0  0.26182  0.30285  0.30998  1.0000
  H   H123      1.0  0.15682  0.11907  0.26607  1.0000
  H   H124      1.0  0.29126  0.28298  0.30936  1.0000
  C   C136      1.0  0.23538  0.27590  0.37410  1.0000
  C   C137      1.0  0.14791  0.26035  0.28125  1.0000
  H   H125      1.0  0.13821  0.23856  0.26868  1.0000
  C   C138      1.0  0.27021  0.30026  0.29986  1.0000
  H   H126      1.0  0.48027  0.16248  0.46906  1.0000
  S   S49       1.0  0.46164  0.32494  0.41336  1.0000
  H   H127      1.0  0.01713  0.02542  0.24481  1.0000
  H   H128      1.0  0.17224  0.12711  0.28610  1.0000
  H   H129      1.0  0.26279  0.26393  0.37823  1.0000
  C   C139      1.0  0.29752  0.28631  0.28632  1.0000
  H   H130      1.0  0.40584  0.21390  0.42545  1.0000
  C   C140      1.0  0.32149  0.27230  0.24292  1.0000
  H   H131      1.0  0.01967  0.04015  0.26469  1.0000
  H   H132      1.0  0.21063  0.29271  0.37003  1.0000
  H   H133      1.0  0.20045  0.16209  0.28139  1.0000
  H   H134      1.0  0.36456  0.30807  0.40488  1.0000
  N   N13       1.0  0.20188  0.17313  0.25883  1.0000
  C   C141      1.0  0.25589  0.27794  0.37714  1.0000
  C   C142      1.0  0.26410  0.30747  0.28709  1.0000
  C   C143      1.0  0.47715  0.19470  0.45964  1.0000
  H   H135      1.0  0.21218  0.33331  0.29648  1.0000
  Fe  Fe29      1.0  0.36309  0.30880  0.25243  1.0000
  H   H136      1.0  0.45107  0.32678  0.38623  1.0000
  H   H137      1.0  0.23134  0.32771  0.37255  1.0000
  N   N14       1.0  0.33958  0.31726  0.31227  1.0000
  H   H138      1.0  0.40659  0.31468  0.27304  1.0000
  H   H139      1.0  0.20926  0.20545  0.26097  1.0000
  C   C144      1.0  0.17734  0.14924  0.25015  1.0000
  C   C145      1.0  0.48830  0.17994  0.46535  1.0000
  C   C146      1.0  0.40867  0.31713  0.28328  1.0000
  C   C147      1.0  0.48690  0.01830  0.32904  1.0000
  H   H140      1.0  0.42477  0.26138  0.37787  1.0000
  H   H141      1.0  0.44907  0.25166  0.37307  1.0000
  S   S50       1.0  0.35617  0.32419  0.27058  1.0000
  H   H142      1.0  0.23106  0.19195  0.26188  1.0000
  C   C148      1.0  0.21785  0.19423  0.25645  1.0000
  C   C149      1.0  0.37933  0.32138  0.40265  1.0000
  H   H143      1.0  0.21354  0.28896  0.34451  1.0000
  H   H144      1.0  0.46857  0.25877  0.41970  1.0000
  H   H145      1.0  0.27786  0.32673  0.25429  1.0000
  S   S51       1.0  0.34767  0.32921  0.23817  1.0000
  H   H146      1.0  0.38304  0.33176  0.37960  1.0000
  C   C150      1.0  0.41284  0.32309  0.31010  1.0000
  H   H147      1.0  0.26756  0.29823  0.25486  1.0000
  S   S52       1.0  0.49924  0.33344  0.44113  1.0000
  C   C151      1.0  0.19338  0.16890  0.24777  1.0000
  H   H148      1.0  0.30216  0.30971  0.37066  1.0000
  H   H149      1.0  0.49797  0.03699  0.28555  1.0000
  H   H150      1.0  0.16999  0.14620  0.24155  1.0000
  H   H151      1.0  0.49478  0.02801  0.33513  1.0000
  S   S53       1.0  0.21825  0.33348  0.34572  1.0000
  C   C152      1.0  0.38993  0.33472  0.38835  1.0000
  H   H152      1.0  0.19860  0.18094  0.23712  1.0000
  C   C153      1.0  0.24120  0.31984  0.61222  1.0000
  H   H153      1.0  0.09597  0.08981  0.71739  1.0000
  C   C154      1.0  0.16211  0.31649  0.71692  1.0000
  S   S54       1.0  0.19128  0.25932  0.73359  1.0000
  C   C155      1.0  0.46874  0.23688  0.48913  1.0000
  C   C156      1.0  0.42777  0.29937  0.62165  1.0000
  H   H154      1.0  0.06052  0.13416  0.67935  1.0000
  H   H155      1.0  0.04363  0.05753  0.70248  1.0000
  C   C157      1.0  0.48580  0.32272  0.50723  1.0000
  H   H156      1.0  0.21238  0.30513  0.71576  1.0000
  C   C158      1.0  0.44654  0.29364  0.62441  1.0000
  C   C159      1.0  0.05867  0.09216  0.69141  1.0000
  N   N15       1.0  0.44585  0.31111  0.59583  1.0000
  H   H157      1.0  0.41371  0.29801  0.63064  1.0000
  C   C160      1.0  0.08773  0.10991  0.69960  1.0000
  Fe  Fe30      1.0  0.02135  0.10019  0.72637  1.0000
  S   S55       1.0  0.04152  0.13293  0.70990  1.0000
  H   H158      1.0  0.15645  0.30780  0.70961  1.0000
  S   S56       1.0  0.14216  0.30458  0.68482  1.0000
  Fe  Fe31      1.0  0.15141  0.22770  0.70250  1.0000
  S   S57       1.0  0.18722  0.23319  0.70257  1.0000
  S   S58       1.0  0.13138  0.19197  0.71395  1.0000
  Fe  Fe32      1.0  0.15800  0.27750  0.69127  1.0000
  S   S59       1.0  0.19349  0.28653  0.69126  1.0000
  Fe  Fe33      1.0  0.19516  0.25893  0.68118  1.0000
  S   S60       1.0  0.22352  0.26579  0.66116  1.0000
  Fe  Fe34      1.0  0.18221  0.26017  0.71261  1.0000
  C   C161      1.0  0.28229  0.32873  0.72968  1.0000
  S   S61       1.0  0.16000  0.25125  0.67988  1.0000
  S   S62       1.0  0.14617  0.25355  0.71378  1.0000
  H   H159      1.0  0.10405  0.14914  0.73092  1.0000
  C   C162      1.0  0.46479  0.29631  0.61273  1.0000
  H   H160      1.0  0.43399  0.33088  0.58027  1.0000
  H   H161      1.0  0.04779  0.09286  0.68437  1.0000
  C   C163      1.0  0.29548  0.32186  0.70654  1.0000
  H   H162      1.0  0.24958  0.32141  0.65407  1.0000
  H   H163      1.0  0.08548  0.13041  0.66840  1.0000
  H   H164      1.0  0.30296  0.30274  0.64547  1.0000
  N   N16       1.0  0.07430  0.11067  0.69050  1.0000
  H   H165      1.0  0.00591  0.02635  0.70655  1.0000
  H   H166      1.0  0.23222  0.29418  0.63245  1.0000
  C   C164      1.0  0.24896  0.27649  0.66421  1.0000
  C   C165      1.0  0.26812  0.28575  0.65240  1.0000
  C   C166      1.0  0.28823  0.29559  0.65464  1.0000
  C   C167      1.0  0.28933  0.29578  0.66874  1.0000
  C   C168      1.0  0.27024  0.28612  0.68058  1.0000
  C   C169      1.0  0.25005  0.27672  0.67830  1.0000
  H   H167      1.0  0.26742  0.28547  0.64149  1.0000
  C   C170      1.0  0.19831  0.32328  0.62132  1.0000
  H   H168      1.0  0.27099  0.28585  0.69154  1.0000
  H   H169      1.0  0.23539  0.26937  0.68749  1.0000
  C   C171      1.0  0.22660  0.30628  0.62561  1.0000
  C   C172      1.0  0.07698  0.13120  0.67937  1.0000
  C   C173      1.0  0.06986  0.07123  0.71090  1.0000
  C   C174      1.0  0.06564  0.14977  0.71182  1.0000
  C   C175      1.0  0.07599  0.14211  0.72236  1.0000
  C   C176      1.0  0.09603  0.15534  0.72286  1.0000
  C   C177      1.0  0.10579  0.17647  0.71298  1.0000
  C   C178      1.0  0.09529  0.18425  0.70257  1.0000
  C   C179      1.0  0.07537  0.17089  0.70196  1.0000
  C   C180      1.0  0.15400  0.32375  0.66738  1.0000
  C   C181      1.0  0.46904  0.25417  0.49542  1.0000
  H   H170      1.0  0.10262  0.20045  0.69490  1.0000
  H   H171      1.0  0.06748  0.17698  0.69377  1.0000
  Fe  Fe35      1.0  0.01369  0.05065  0.73480  1.0000
  C   C182      1.0  0.22327  0.32199  0.73074  1.0000
  H   H172      1.0  0.41326  0.31315  0.60523  1.0000
  H   H173      1.0  0.44704  0.28745  0.63557  1.0000
  H   H174      1.0  0.06874  0.12589  0.72999  1.0000
  C   C183      1.0  0.08564  0.09023  0.70998  1.0000
  S   S63       1.0  0.02399  0.02053  0.73137  1.0000
  H   H175      1.0  0.12194  0.32447  0.66439  1.0000
  S   S64       1.0  0.35971  0.32042  0.63261  1.0000
  H   H176      1.0  0.17363  0.29606  0.64606  1.0000
  C   C184      1.0  0.05624  0.07217  0.70159  1.0000
  H   H177      1.0  0.46218  0.33102  0.57397  1.0000
  C   C185      1.0  0.19067  0.29387  0.64413  1.0000
  C   C186      1.0  0.44555  0.32029  0.58075  1.0000
  H   H178      1.0  0.46942  0.32472  0.51114  1.0000
  H   H179      1.0  0.18944  0.27630  0.64476  1.0000
  H   H180      1.0  0.09985  0.12468  0.69908  1.0000
  H   H181      1.0  0.08670  0.14565  0.68168  1.0000
  H   H182      1.0  0.06778  0.05588  0.71903  1.0000
  C   C187      1.0  0.16072  0.30448  0.73107  1.0000
  H   H183      1.0  0.47954  0.29197  0.61470  1.0000
  H   H184      1.0  0.26168  0.33067  0.67470  1.0000
  H   H185      1.0  0.48565  0.27300  0.50730  1.0000
  C   C188      1.0  0.49144  0.31696  0.49416  1.0000
  H   H186      1.0  0.45670  0.26333  0.49496  1.0000
  N   N17       1.0  0.20545  0.30811  0.62997  1.0000
  C   C189      1.0  0.42766  0.30804  0.60721  1.0000
  S   S65       1.0  0.31416  0.30864  0.67170  1.0000
  H   H187      1.0  0.18820  0.32727  0.66728  1.0000
  C   C190      1.0  0.48548  0.25982  0.50219  1.0000
  C   C191      1.0  0.28006  0.31566  0.72025  1.0000
  H   H188      1.0  0.44055  0.30684  0.57590  1.0000
  C   C192      1.0  0.23400  0.33531  0.60333  1.0000
  H   H189      1.0  0.19728  0.29761  0.65313  1.0000
  C   C193      1.0  0.48494  0.22548  0.48975  1.0000
  C   C194      1.0  0.46412  0.30500  0.59843  1.0000
  H   H190      1.0  0.49722  0.33137  0.52498  1.0000
  C   C195      1.0  0.21360  0.30345  0.72679  1.0000
  H   H191      1.0  0.25796  0.31833  0.60872  1.0000
  H   H192      1.0  0.18159  0.32487  0.62474  1.0000
  H   H193      1.0  0.29428  0.31164  0.69925  1.0000
  C   C196      1.0  0.13970  0.33098  0.65971  1.0000
  H   H194      1.0  0.15441  0.28670  0.73457  1.0000
  H   H195      1.0  0.47849  0.30721  0.58945  1.0000
  Fe  Fe36      1.0  0.33924  0.32991  0.65071  1.0000
  C   C197      1.0  0.17704  0.33251  0.66128  1.0000
  H   H196      1.0  0.26659  0.30072  0.72363  1.0000
  C   C198      1.0  0.50149  0.32644  0.51510  1.0000
  S   S66       1.0  0.00179  0.07337  0.71918  1.0000
  H   H197      1.0  0.14991  0.20394  0.73621  1.0000
  N   N18       1.0  0.50145  0.23163  0.49597  1.0000
  H   H198      1.0  0.39979  0.32783  0.97340  1.0000
  Fe  Fe37      1.0  0.20184  0.23245  0.91137  1.0000
  S   S67       1.0  0.21760  0.20555  0.90774  1.0000
  S   S68       1.0  0.21941  0.26708  0.89770  1.0000
  Fe  Fe38      1.0  0.16719  0.20257  0.93851  1.0000
  S   S69       1.0  0.18089  0.17390  0.93711  1.0000
  S   S70       1.0  0.13735  0.19940  0.95658  1.0000
  Fe  Fe39      1.0  0.21424  0.19813  0.93192  1.0000
  S   S71       1.0  0.24159  0.19151  0.94242  1.0000
  Fe  Fe40      1.0  0.18228  0.18450  0.91319  1.0000
  S   S72       1.0  0.16789  0.15685  0.90392  1.0000
  S   S73       1.0  0.20007  0.22588  0.93515  1.0000
  S   S74       1.0  0.16702  0.21233  0.91501  1.0000
  C   C199      1.0  0.21633  0.29917  0.75544  1.0000
  H   H199      1.0  0.05000  0.09669  0.76605  1.0000
  C   C200      1.0  0.28178  0.30112  0.92875  1.0000
  C   C201      1.0  0.17501  0.29164  0.95788  1.0000
  S   S75       1.0  0.32150  0.25742  0.95262  1.0000
  H   H200      1.0  0.18959  0.26692  0.95143  1.0000
  H   H201      1.0  0.18459  0.21734  0.75505  1.0000
  H   H202      1.0  0.04762  0.15831  0.78994  1.0000
  H   H203      1.0  0.31325  0.29384  0.92810  1.0000
  C   C202      1.0  0.18176  0.20376  0.74991  1.0000
  C   C203      1.0  0.02380  0.02911  0.85557  1.0000
  H   H204      1.0  0.14928  0.32446  0.95557  1.0000
  S   S76       1.0  0.35308  0.29440  0.97349  1.0000
  Fe  Fe41      1.0  0.08037  0.11990  0.85680  1.0000
  S   S77       1.0  0.09583  0.10325  0.84075  1.0000
  S   S78       1.0  0.09874  0.14638  0.86559  1.0000
  Fe  Fe42      1.0  0.03327  0.10010  0.85486  1.0000
  S   S79       1.0  0.04596  0.08272  0.83903  1.0000
  H   H205      1.0  0.18645  0.21129  0.73786  1.0000
  Fe  Fe43      1.0  0.06692  0.07358  0.85346  1.0000
  S   S80       1.0  0.06634  0.03755  0.85800  1.0000
  Fe  Fe44      1.0  0.07285  0.11348  0.82768  1.0000
  S   S81       1.0  0.07978  0.12433  0.80287  1.0000
  S   S82       1.0  0.05283  0.08936  0.87031  1.0000
  S   S83       1.0  0.05911  0.13199  0.84267  1.0000
  S   S84       1.0  0.00353  0.07232  0.78188  1.0000
  H   H206      1.0  0.20018  0.26496  0.75970  1.0000
  C   C204      1.0  0.05884  0.11045  0.79651  1.0000
  C   C205      1.0  0.06328  0.10915  0.78204  1.0000
  C   C206      1.0  0.04644  0.09790  0.77713  1.0000
  C   C207      1.0  0.02084  0.08950  0.80103  1.0000
  C   C208      1.0  0.03739  0.10097  0.80580  1.0000
  H   H207      1.0  0.07980  0.11648  0.77469  1.0000
  C   C209      1.0  0.12919  0.19507  0.98584  1.0000
  H   H208      1.0  0.03322  0.10309  0.81657  1.0000
  C   C210      1.0  0.20668  0.28081  0.75154  1.0000
  H   H209      1.0  0.01716  0.13999  0.78143  1.0000
  H   H210      1.0  0.04465  0.05985  0.81606  1.0000
  C   C211      1.0  0.18108  0.29638  0.92117  1.0000
  Fe  Fe45      1.0  0.00558  0.07424  0.75827  1.0000
  C   C212      1.0  0.19562  0.31693  0.91897  1.0000
  C   C213      1.0  0.13919  0.27882  0.97479  1.0000
  H   H211      1.0  0.15781  0.23595  0.96761  1.0000
  C   C214      1.0  0.26613  0.24640  0.91233  1.0000
  C   C215      1.0  0.14970  0.15472  0.89248  1.0000
  C   C216      1.0  0.14250  0.17251  0.88602  1.0000
  C   C217      1.0  0.12737  0.16969  0.87759  1.0000
  C   C218      1.0  0.11909  0.14910  0.87549  1.0000
  C   C219      1.0  0.12647  0.13137  0.88183  1.0000
  C   C220      1.0  0.14166  0.13420  0.89021  1.0000
  H   H212      1.0  0.14851  0.18842  0.88756  1.0000
  H   H213      1.0  0.12190  0.18358  0.87273  1.0000
  H   H214      1.0  0.12037  0.11543  0.88034  1.0000
  H   H215      1.0  0.14714  0.12031  0.89506  1.0000
  C   C221      1.0  0.26289  0.21057  0.94562  1.0000
  C   C222      1.0  0.28369  0.20636  0.94407  1.0000
  C   C223      1.0  0.30109  0.22026  0.94688  1.0000
  C   C224      1.0  0.29787  0.23820  0.95193  1.0000
  C   C225      1.0  0.27681  0.24219  0.95399  1.0000
  C   C226      1.0  0.25943  0.22859  0.95066  1.0000
  H   H216      1.0  0.28655  0.19243  0.94033  1.0000
  H   H217      1.0  0.31730  0.21723  0.94493  1.0000
  H   H218      1.0  0.27420  0.25628  0.95758  1.0000
  H   H219      1.0  0.24335  0.23184  0.95216  1.0000
  C   C227      1.0  0.21005  0.28625  0.90579  1.0000
  C   C228      1.0  0.22457  0.30686  0.90350  1.0000
  C   C229      1.0  0.03149  0.14977  0.79762  1.0000
  H   H220      1.0  0.30416  0.26215  0.91841  1.0000
  H   H221      1.0  0.29377  0.22247  0.98290  1.0000
  C   C230      1.0  0.18843  0.28087  0.91486  1.0000
  H   H222      1.0  0.24132  0.31104  0.89650  1.0000
  H   H223      1.0  0.12320  0.15378  0.78654  1.0000
  C   C231      1.0  0.02520  0.08780  0.78676  1.0000
  H   H224      1.0  0.17718  0.26497  0.91667  1.0000
  H   H225      1.0  0.25578  0.18353  0.97534  1.0000
  H   H226      1.0  0.24011  0.27120  0.91952  1.0000
  C   C232      1.0  0.15841  0.18012  0.97548  1.0000
  C   C233      1.0  0.14176  0.19059  0.97380  1.0000
  C   C234      1.0  0.02727  0.03420  0.80870  1.0000
  H   H227      1.0  0.28563  0.31517  0.93288  1.0000
  H   H228      1.0  0.24896  0.30378  0.92845  1.0000
  H   H229      1.0  0.16815  0.17652  0.96629  1.0000
  H   H230      1.0  0.26355  0.25209  0.90135  1.0000
  C   C235      1.0  0.12901  0.16470  0.77545  1.0000
  H   H231      1.0  0.25057  0.23438  0.91970  1.0000
  C   C236      1.0  0.15617  0.31856  0.96475  1.0000
  Fe  Fe46      1.0  0.32823  0.26420  0.97337  1.0000
  C   C237      1.0  0.13937  0.25702  0.97572  1.0000
  C   C238      1.0  0.04226  0.02104  0.85602  1.0000
  H   H232      1.0  0.18904  0.30504  0.95091  1.0000
  H   H233      1.0  0.00605  0.01660  0.79201  1.0000
  H   H234      1.0  0.31750  0.33232  0.93943  1.0000
  C   C239      1.0  0.15759  0.25270  0.96726  1.0000
  H   H235      1.0  0.27918  0.23749  0.91144  1.0000
  N   N19       1.0  0.15696  0.29579  0.96603  1.0000
  C   C240      1.0  0.17552  0.27009  0.95825  1.0000
  S   S85       1.0  0.18612  0.33591  0.92719  1.0000
  H   H236      1.0  0.01584  0.04331  0.80561  1.0000
  C   C241      1.0  0.29734  0.28935  0.92588  1.0000
  H   H237      1.0  0.14186  0.14154  0.93493  1.0000
  C   C242      1.0  0.26113  0.29466  0.92634  1.0000
  H   H238      1.0  0.17301  0.32960  0.96249  1.0000
  H   H239      1.0  0.00444  0.08219  0.80839  1.0000
  H   H240      1.0  0.21728  0.29735  0.76655  1.0000
  H   H241      1.0  0.20381  0.31520  0.98207  1.0000
  H   H242      1.0  0.19297  0.19327  0.75214  1.0000
  N   N20       1.0  0.15851  0.19081  0.75565  1.0000
  C   C243      1.0  0.11438  0.16638  0.76688  1.0000
  H   H243      1.0  0.11080  0.18202  0.74584  1.0000
  C   C244      1.0  0.31786  0.33144  0.96148  1.0000
  H   H244      1.0  0.09720  0.15671  0.77128  1.0000
  C   C245      1.0  0.01419  0.13938  0.79289  1.0000
  C   C246      1.0  0.04348  0.04364  0.81461  1.0000
  H   H245      1.0  0.07020  0.03881  0.82388  1.0000
  H   H246      1.0  0.14589  0.32003  0.97504  1.0000
  C   C247      1.0  0.21750  0.32202  0.91035  1.0000
  H   H247      1.0  0.27059  0.32353  0.74047  1.0000
  C   C248      1.0  0.20501  0.28288  0.73731  1.0000
  C   C249      1.0  0.15114  0.17716  0.76965  1.0000
  H   H248      1.0  0.16413  0.29241  0.92782  1.0000
  N   N21       1.0  0.02572  0.01368  0.80693  1.0000
  H   H249      1.0  0.02301  0.04408  0.85840  1.0000
  C   C250      1.0  0.24806  0.19223  0.98235  1.0000
  C   C251      1.0  0.12196  0.18057  0.75268  1.0000
  N   N22       1.0  0.11477  0.15264  0.93021  1.0000
  C   C252      1.0  0.10681  0.13935  0.92243  1.0000
  C   C253      1.0  0.11240  0.17353  0.92796  1.0000
  C   C254      1.0  0.09572  0.14672  0.91228  1.0000
  C   C255      1.0  0.10175  0.18158  0.91769  1.0000
  C   C256      1.0  0.09333  0.16803  0.90985  1.0000
  C   C257      1.0  0.12624  0.14434  0.94079  1.0000
  H   H250      1.0  0.10955  0.12315  0.92376  1.0000
  H   H251      1.0  0.11897  0.18421  0.93398  1.0000
  H   H252      1.0  0.08991  0.13634  0.90586  1.0000
  H   H253      1.0  0.10034  0.19831  0.91571  1.0000
  H   H254      1.0  0.08550  0.17415  0.90158  1.0000
  H   H255      1.0  0.13052  0.15610  0.94709  1.0000
  H   H256      1.0  0.11559  0.12861  0.94874  1.0000
  N   N23       1.0  0.27171  0.26512  0.91812  1.0000
  C   C258      1.0  0.25629  0.27638  0.92114  1.0000
  C   C259      1.0  0.29207  0.27138  0.92041  1.0000
  C   C260      1.0  0.22570  0.19150  0.98390  1.0000
  C   C261      1.0  0.14419  0.19286  0.74724  1.0000
  H   H257      1.0  0.12547  0.24362  0.98297  1.0000
  S   S86       1.0  0.03566  0.07760  0.74034  1.0000
  H   H258      1.0  0.21643  0.18246  0.97807  1.0000
  H   H259      1.0  0.16240  0.17582  0.77641  1.0000
  C   C262      1.0  0.22440  0.31984  0.74516  1.0000
  C   C263      1.0  0.16831  0.31547  0.74048  1.0000
  H   H260      1.0  0.12494  0.28202  0.98141  1.0000
  H   H261      1.0  0.11614  0.20295  0.98464  1.0000
  C   C264      1.0  0.05797  0.03187  0.81889  1.0000
  H   H262      1.0  0.32684  0.31912  0.96236  1.0000
  H   H263      1.0  0.04181  0.15512  0.81637  1.0000
  H   H264      1.0  0.16799  0.30627  0.75133  1.0000
  C   C265      1.0  0.02827  0.14790  0.81249  1.0000
  C   C266      1.0  0.39858  0.33513  0.98239  1.0000
  C   C267      1.0  0.00627  0.01787  0.85145  1.0000
  C   C268      1.0  0.05606  0.01081  0.81723  1.0000
  H   H265      1.0  0.28966  0.19571  0.98016  1.0000
  H   H266      1.0  0.26755  0.31667  0.98626  1.0000
  C   C269      1.0  0.00823  0.00400  0.80103  1.0000
  C   C270      1.0  0.00779  0.13595  0.82239  1.0000
  H   H267      1.0  0.00524  0.13394  0.83403  1.0000
  C   C271      1.0  0.47297  0.38689  0.19003  1.0000
  C   C272      1.0  0.46087  0.38716  0.17976  1.0000
  C   C273      1.0  0.44548  0.42438  0.21244  1.0000
  S   S87       1.0  0.48469  0.34558  0.05606  1.0000
  C   C274      1.0  0.42641  0.37410  0.19940  1.0000
  C   C275      1.0  0.46978  0.41624  0.22678  1.0000
  S   S88       1.0  0.39731  0.36670  0.20496  1.0000
  H   H268      1.0  0.44279  0.43100  0.20193  1.0000
  C   C276      1.0  0.50000  0.34280  0.12213  1.0000
  C   C277      1.0  0.43855  0.37320  0.20966  1.0000
  C   C278      1.0  0.39461  0.35200  0.00617  1.0000
  Fe  Fe47      1.0  0.38194  0.35225  0.22920  1.0000
  H   H269      1.0  0.34777  0.35651  0.00294  1.0000
  C   C279      1.0  0.43761  0.38090  0.18445  1.0000
  C   C280      1.0  0.35425  0.34493  0.01003  1.0000
  H   H270      1.0  0.46944  0.39293  0.16820  1.0000
  H   H271      1.0  0.42828  0.38160  0.17647  1.0000
  H   H272      1.0  0.43008  0.36809  0.22120  1.0000
  C   C281      1.0  0.46180  0.37968  0.20497  1.0000
  H   H273      1.0  0.47113  0.37938  0.21294  1.0000
  H   H274      1.0  0.25313  0.34721  0.99257  1.0000
  H   H275      1.0  0.45362  0.33728  0.18530  1.0000
  C   C282      1.0  0.06408  0.65632  0.99898  1.0000
  N   N24       1.0  0.46646  0.42504  0.21357  1.0000
  C   C283      1.0  0.42713  0.41470  0.22473  1.0000
  N   N25       1.0  0.37619  0.34443  0.00197  1.0000
  H   H276      1.0  0.39324  0.35818  0.01565  1.0000
  N   N26       1.0  0.07496  0.64976  0.98776  1.0000
  H   H277      1.0  0.42995  0.35648  0.00227  1.0000
  H   H278      1.0  0.35456  0.35001  0.02010  1.0000
  S   S89       1.0  0.01369  0.66775  0.01049  1.0000
  C   C284      1.0  0.41550  0.35124  0.99857  1.0000
  H   H279      1.0  0.49983  0.42919  0.20145  1.0000
  H   H280      1.0  0.49646  0.34226  0.13354  1.0000
  C   C285      1.0  0.48551  0.43613  0.20069  1.0000
  H   H281      1.0  0.15974  0.34765  0.00285  1.0000
  H   H282      1.0  0.49059  0.45398  0.19957  1.0000
  H   H283      1.0  0.21725  0.33862  0.01120  1.0000
  H   H284      1.0  0.06182  0.61519  0.99731  1.0000
  H   H285      1.0  0.04902  0.64536  0.00694  1.0000
  H   H286      1.0  0.48147  0.43370  0.19058  1.0000
  H   H287      1.0  0.41049  0.41385  0.22374  1.0000
  H   H288      1.0  0.49637  0.40180  0.08900  1.0000
  H   H289      1.0  0.48639  0.41664  0.22768  1.0000
  H   H290      1.0  0.50076  0.39495  0.06462  1.0000
  C   C286      1.0  0.41742  0.34261  0.98666  1.0000
  Fe  Fe48      1.0  0.27316  0.38185  0.36006  1.0000
  S   S90       1.0  0.23730  0.37983  0.36321  1.0000
  C   C287      1.0  0.21272  0.58594  0.36196  1.0000
  Fe  Fe49      1.0  0.28439  0.40048  0.32733  1.0000
  S   S91       1.0  0.24928  0.40066  0.32775  1.0000
  S   S92       1.0  0.31372  0.41242  0.30753  1.0000
  Fe  Fe50      1.0  0.24969  0.41372  0.34736  1.0000
  S   S93       1.0  0.23607  0.44143  0.35300  1.0000
  Fe  Fe51      1.0  0.24074  0.36677  0.34355  1.0000
  H   H291      1.0  0.29219  0.66526  0.37639  1.0000
  S   S94       1.0  0.28547  0.41614  0.34540  1.0000
  S   S95       1.0  0.27596  0.36619  0.34187  1.0000
  C   C288      1.0  0.26992  0.65813  0.46060  1.0000
  S   S96       1.0  0.31042  0.35125  0.26572  1.0000
  H   H292      1.0  0.31681  0.38925  0.35048  1.0000
  C   C289      1.0  0.32360  0.37852  0.35733  1.0000
  H   H293      1.0  0.02217  0.60290  0.37289  1.0000
  H   H294      1.0  0.36402  0.37201  0.30007  1.0000
  S   S97       1.0  0.04929  0.61697  0.32918  1.0000
  H   H295      1.0  0.41748  0.35750  0.29995  1.0000
  H   H296      1.0  0.41584  0.34338  0.41933  1.0000
  C   C290      1.0  0.40807  0.34122  0.41076  1.0000
  S   S98       1.0  0.16088  0.65214  0.36440  1.0000
  C   C291      1.0  0.41815  0.35433  0.39634  1.0000
  C   C292      1.0  0.43039  0.40578  0.23823  1.0000
  H   H297      1.0  0.05179  0.57657  0.35034  1.0000
  C   C293      1.0  0.23927  0.65401  0.35605  1.0000
  C   C294      1.0  0.35294  0.36110  0.36013  1.0000
  S   S99       1.0  0.28943  0.61076  0.47304  1.0000
  S   S100      1.0  0.12159  0.63093  0.39597  1.0000
  Fe  Fe52      1.0  0.15293  0.62442  0.38478  1.0000
  S   S101      1.0  0.15214  0.59094  0.38217  1.0000
  Fe  Fe53      1.0  0.28028  0.54853  0.41617  1.0000
  S   S102      1.0  0.30108  0.56322  0.39284  1.0000
  S   S103      1.0  0.29475  0.54349  0.43534  1.0000
  Fe  Fe54      1.0  0.23743  0.54271  0.40754  1.0000
  S   S104      1.0  0.25434  0.55722  0.38358  1.0000
  S   S105      1.0  0.20060  0.53101  0.41639  1.0000
  Fe  Fe55      1.0  0.27765  0.53654  0.38787  1.0000
  S   S106      1.0  0.29122  0.51644  0.37348  1.0000
  Fe  Fe56      1.0  0.27585  0.58224  0.39082  1.0000
  S   S107      1.0  0.28126  0.61856  0.38112  1.0000
  S   S108      1.0  0.25907  0.52023  0.41150  1.0000
  S   S109      1.0  0.25664  0.56925  0.41440  1.0000
  C   C295      1.0  0.16494  0.57533  0.39303  1.0000
  C   C296      1.0  0.18543  0.58473  0.39492  1.0000
  C   C297      1.0  0.19681  0.57118  0.40188  1.0000
  C   C298      1.0  0.18705  0.54847  0.40762  1.0000
  C   C299      1.0  0.16621  0.53935  0.40624  1.0000
  C   C300      1.0  0.15544  0.55267  0.39865  1.0000
  H   H298      1.0  0.19296  0.60222  0.39039  1.0000
  H   H299      1.0  0.21311  0.57822  0.40272  1.0000
  H   H300      1.0  0.15868  0.52182  0.41063  1.0000
  H   H301      1.0  0.13970  0.54535  0.39712  1.0000
  C   C301      1.0  0.31570  0.62823  0.39327  1.0000
  C   C302      1.0  0.30141  0.63628  0.38587  1.0000
  H   H302      1.0  0.31452  0.61083  0.39617  1.0000
  C   C303      1.0  0.45178  0.40632  0.23928  1.0000
  C   C304      1.0  0.29152  0.59232  0.46245  1.0000
  C   C305      1.0  0.28653  0.59673  0.44902  1.0000
  C   C306      1.0  0.28796  0.58210  0.44046  1.0000
  C   C307      1.0  0.29401  0.56280  0.44541  1.0000
  C   C308      1.0  0.29950  0.55871  0.45870  1.0000
  C   C309      1.0  0.29835  0.57348  0.46717  1.0000
  H   H303      1.0  0.28178  0.61157  0.44516  1.0000
  H   H304      1.0  0.28468  0.58588  0.42996  1.0000
  H   H305      1.0  0.30458  0.54402  0.46245  1.0000
  H   H306      1.0  0.41056  0.37671  0.36722  1.0000
  C   C310      1.0  0.06380  0.63128  0.33938  1.0000
  C   C311      1.0  0.05523  0.64548  0.34643  1.0000
  C   C312      1.0  0.33793  0.63478  0.43979  1.0000
  C   C313      1.0  0.08767  0.65281  0.35588  1.0000
  C   C314      1.0  0.09622  0.63856  0.34884  1.0000
  C   C315      1.0  0.08446  0.62807  0.34054  1.0000
  C   C316      1.0  0.21379  0.61861  0.41479  1.0000
  H   H307      1.0  0.03848  0.62467  0.38755  1.0000
  H   H308      1.0  0.11198  0.63577  0.34970  1.0000
  H   H309      1.0  0.09139  0.61729  0.33505  1.0000
  H   H310      1.0  0.33004  0.37191  0.31822  1.0000
  S   S110      1.0  0.37817  0.35635  0.35248  1.0000
  C   C317      1.0  0.33388  0.66546  0.39272  1.0000
  H   H311      1.0  0.25283  0.60562  0.36299  1.0000
  C   C318      1.0  0.32103  0.35431  0.38084  1.0000
  H   H312      1.0  0.21704  0.57562  0.37110  1.0000
  H   H313      1.0  0.34604  0.61155  0.45593  1.0000
  S   S111      1.0  0.37595  0.37194  0.24507  1.0000
  C   C319      1.0  0.25120  0.46157  0.35937  1.0000
  C   C320      1.0  0.24048  0.47548  0.36559  1.0000
  C   C321      1.0  0.25238  0.49231  0.37010  1.0000
  C   C322      1.0  0.27518  0.49554  0.36822  1.0000
  C   C323      1.0  0.28585  0.48172  0.36194  1.0000
  C   C324      1.0  0.27392  0.46473  0.35769  1.0000
  H   H314      1.0  0.22292  0.47331  0.36688  1.0000
  H   H315      1.0  0.24396  0.50288  0.37491  1.0000
  H   H316      1.0  0.30348  0.48411  0.36043  1.0000
  H   H317      1.0  0.28253  0.45450  0.35276  1.0000
  C   C325      1.0  0.31162  0.36772  0.27766  1.0000
  C   C326      1.0  0.33154  0.38260  0.27646  1.0000
  C   C327      1.0  0.33202  0.39649  0.28555  1.0000
  C   C328      1.0  0.31273  0.39508  0.29615  1.0000
  C   C329      1.0  0.29296  0.37968  0.29769  1.0000
  C   C330      1.0  0.29234  0.36623  0.28831  1.0000
  H   H318      1.0  0.34644  0.38385  0.26827  1.0000
  H   H319      1.0  0.34735  0.40831  0.28439  1.0000
  H   H320      1.0  0.27802  0.37845  0.30588  1.0000
  H   H321      1.0  0.27457  0.63836  0.41513  1.0000
  C   C331      1.0  0.35173  0.35664  0.30635  1.0000
  N   N27       1.0  0.34573  0.66349  0.45646  1.0000
  H   H322      1.0  0.35312  0.38340  0.34006  1.0000
  Fe  Fe57      1.0  0.14364  0.65288  0.40487  1.0000
  H   H323      1.0  0.07449  0.62178  0.39198  1.0000
  N   N28       1.0  0.27667  0.48499  0.32262  1.0000
  C   C332      1.0  0.29763  0.49301  0.32352  1.0000
  C   C333      1.0  0.27190  0.46730  0.31733  1.0000
  C   C334      1.0  0.31435  0.48297  0.31934  1.0000
  C   C335      1.0  0.28832  0.45710  0.31284  1.0000
  C   C336      1.0  0.30962  0.46494  0.31393  1.0000
  C   C337      1.0  0.25954  0.49613  0.32660  1.0000
  H   H324      1.0  0.30140  0.50699  0.32777  1.0000
  H   H325      1.0  0.25523  0.46080  0.31673  1.0000
  H   H326      1.0  0.33084  0.48910  0.32032  1.0000
  H   H327      1.0  0.28458  0.44307  0.30863  1.0000
  H   H328      1.0  0.32238  0.45691  0.31066  1.0000
  H   H329      1.0  0.26239  0.50414  0.33519  1.0000
  H   H330      1.0  0.25946  0.50874  0.31682  1.0000
  H   H331      1.0  0.24285  0.48416  0.33123  1.0000
  C   C338      1.0  0.33545  0.65595  0.43555  1.0000
  S   S112      1.0  0.41193  0.36053  0.27129  1.0000
  C   C339      1.0  0.34833  0.64278  0.46067  1.0000
  C   C340      1.0  0.30308  0.65888  0.38219  1.0000
  N   N29       1.0  0.26198  0.43284  0.39186  1.0000
  C   C341      1.0  0.24704  0.44340  0.39719  1.0000
  C   C342      1.0  0.28367  0.43941  0.39181  1.0000
  C   C343      1.0  0.25384  0.46143  0.40229  1.0000
  C   C344      1.0  0.29107  0.45751  0.39671  1.0000
  C   C345      1.0  0.27604  0.46859  0.40194  1.0000
  C   C346      1.0  0.25455  0.41387  0.38667  1.0000
  H   H332      1.0  0.22987  0.43828  0.39716  1.0000
  H   H333      1.0  0.29545  0.43090  0.38771  1.0000
  H   H334      1.0  0.24217  0.47029  0.40604  1.0000
  H   H335      1.0  0.30840  0.46322  0.39621  1.0000
  H   H336      1.0  0.28170  0.48308  0.40533  1.0000
  H   H337      1.0  0.26810  0.41239  0.37798  1.0000
  H   H338      1.0  0.24914  0.39849  0.39584  1.0000
  H   H339      1.0  0.24065  0.41554  0.38180  1.0000
  N   N30       1.0  0.04845  0.58751  0.36941  1.0000
  C   C347      1.0  0.03756  0.60097  0.37518  1.0000
  C   C348      1.0  0.06815  0.58554  0.37201  1.0000
  H   H340      1.0  0.41639  0.39832  0.24791  1.0000
  H   H341      1.0  0.21996  0.35169  0.31519  1.0000
  Fe  Fe58      1.0  0.01261  0.61239  0.32985  1.0000
  C   C349      1.0  0.03896  0.57480  0.36056  1.0000
  H   H342      1.0  0.36972  0.33694  0.29644  1.0000
  C   C350      1.0  0.22728  0.63864  0.40503  1.0000
  Fe  Fe59      1.0  0.13023  0.65961  0.37597  1.0000
  H   H343      1.0  0.21045  0.57152  0.42937  1.0000
  H   H344      1.0  0.19209  0.61775  0.35723  1.0000
  C   C351      1.0  0.41983  0.36446  0.37022  1.0000
  H   H345      1.0  0.20978  0.66303  0.43251  1.0000
  H   H346      1.0  0.17986  0.65383  0.42101  1.0000
  H   H347      1.0  0.19684  0.61298  0.41445  1.0000
  H   H348      1.0  0.43357  0.36685  0.39398  1.0000
  H   H349      1.0  0.25214  0.65887  0.44426  1.0000
  C   C352      1.0  0.06721  0.65634  0.35447  1.0000
  C   C353      1.0  0.33210  0.64284  0.39649  1.0000
  H   H350      1.0  0.31214  0.34631  0.39222  1.0000
  H   H351      1.0  0.19431  0.58115  0.36456  1.0000
  C   C354      1.0  0.04661  0.61324  0.38355  1.0000
  H   H352      1.0  0.21158  0.58141  0.44509  1.0000
  H   H353      1.0  0.22095  0.64834  0.39718  1.0000
  C   C355      1.0  0.07769  0.59759  0.38033  1.0000
  H   H354      1.0  0.43738  0.37320  0.36858  1.0000
  Fe  Fe60      1.0  0.38924  0.34814  0.25882  1.0000
  H   H355      1.0  0.27689  0.35477  0.28927  1.0000
  H   H356      1.0  0.03947  0.64830  0.34558  1.0000
  N   N31       1.0  0.22189  0.60622  0.42457  1.0000
  C   C356      1.0  0.24345  0.61309  0.42474  1.0000
  C   C357      1.0  0.19360  0.66497  0.43704  1.0000
  N   N32       1.0  0.40918  0.35078  0.38533  1.0000
  H   H357      1.0  0.02545  0.58087  0.35701  1.0000
  H   H358      1.0  0.33468  0.62353  0.43334  1.0000
  C   C358      1.0  0.25196  0.63933  0.35873  1.0000
  H   H359      1.0  0.25011  0.60293  0.43215  1.0000
  H   H360      1.0  0.45425  0.39894  0.24974  1.0000
  C   C359      1.0  0.34418  0.37526  0.35143  1.0000
  H   H361      1.0  0.06045  0.66740  0.35976  1.0000
  H   H362      1.0  0.30268  0.57026  0.47735  1.0000
  H   H363      1.0  0.18992  0.58437  0.43659  1.0000
  S   S113      1.0  0.28600  0.37157  0.37921  1.0000
  C   C360      1.0  0.20779  0.58487  0.43438  1.0000
  H   H364      1.0  0.07689  0.57505  0.36732  1.0000
  H   H365      1.0  0.21967  0.58213  0.35169  1.0000
  C   C361      1.0  0.34130  0.35051  0.37482  1.0000
  C   C362      1.0  0.20898  0.62368  0.35764  1.0000
  C   C363      1.0  0.41486  0.34125  0.29844  1.0000
  C   C364      1.0  0.24279  0.61692  0.36087  1.0000
  H   H366      1.0  0.28784  0.66271  0.47635  1.0000
  C   C365      1.0  0.31209  0.36814  0.37205  1.0000
  Fe  Fe61      1.0  0.34334  0.34650  0.25558  1.0000
  S   S114      1.0  0.17405  0.64300  0.39574  1.0000
  N   N33       1.0  0.22153  0.60935  0.36036  1.0000
  H   H367      1.0  0.34359  0.63662  0.40179  1.0000
  H   H368      1.0  0.20788  0.65764  0.35321  1.0000
  C   C366      1.0  0.24911  0.64600  0.40535  1.0000
  H   H369      1.0  0.25972  0.66153  0.39782  1.0000
  H   H370      1.0  0.35333  0.63745  0.47049  1.0000
  H   H371      1.0  0.41973  0.35417  0.36253  1.0000
  C   C367      1.0  0.34445  0.62812  0.45242  1.0000
  H   H372      1.0  0.03218  0.55720  0.36686  1.0000
  H   H373      1.0  0.26607  0.64036  0.46416  1.0000
  C   C368      1.0  0.25735  0.63311  0.41518  1.0000
  C   C369      1.0  0.21769  0.64620  0.35543  1.0000
  H   H374      1.0  0.09370  0.59659  0.38196  1.0000
  C   C370      1.0  0.33264  0.35657  0.31648  1.0000
  C   C371      1.0  0.15557  0.66188  0.43632  1.0000
  C   C372      1.0  0.06685  0.61160  0.38606  1.0000
  H   H375      1.0  0.33050  0.66131  0.42571  1.0000
  C   C373      1.0  0.17662  0.65966  0.43051  1.0000
  S   S115      1.0  0.13442  0.65673  0.42770  1.0000
  C   C374      1.0  0.41249  0.33823  0.28509  1.0000
  S   S116      1.0  0.10147  0.66621  0.36678  1.0000
  C   C375      1.0  0.35489  0.33673  0.30433  1.0000
  C   C376      1.0  0.26219  0.66846  0.44939  1.0000
  H   H376      1.0  0.34797  0.33960  0.38161  1.0000
  H   H377      1.0  0.26883  0.64530  0.35914  1.0000
  C   C377      1.0  0.31683  0.33671  0.32425  1.0000
  H   H378      1.0  0.30186  0.33646  0.33206  1.0000
  H   H379      1.0  0.42231  0.66495  0.48627  1.0000
  C   C378      1.0  0.15151  0.66901  0.44895  1.0000
  H   H380      1.0  0.50149  0.35880  0.46754  1.0000
  H   H381      1.0  0.21346  0.46070  0.63211  1.0000
  N   N34       1.0  0.24847  0.47608  0.62440  1.0000
  Fe  Fe62      1.0  0.21408  0.39583  0.61090  1.0000
  S   S117      1.0  0.24521  0.38641  0.61244  1.0000
  S   S118      1.0  0.18001  0.37282  0.62168  1.0000
  Fe  Fe63      1.0  0.23882  0.44137  0.58953  1.0000
  S   S119      1.0  0.27207  0.43567  0.58919  1.0000
  S   S120      1.0  0.23534  0.47431  0.57806  1.0000
  Fe  Fe64      1.0  0.25679  0.40200  0.58823  1.0000
  S   S121      1.0  0.27476  0.38615  0.57323  1.0000
  Fe  Fe65      1.0  0.25750  0.42087  0.61323  1.0000
  S   S122      1.0  0.27822  0.43002  0.62749  1.0000
  S   S123      1.0  0.22456  0.40876  0.58635  1.0000
  S   S124      1.0  0.22524  0.42915  0.61396  1.0000
  S   S125      1.0  0.26160  0.37992  0.71101  1.0000
  S   S126      1.0  0.26490  0.43279  0.70593  1.0000
  Fe  Fe66      1.0  0.23967  0.40204  0.70738  1.0000
  S   S127      1.0  0.21860  0.39548  0.69257  1.0000
  Fe  Fe67      1.0  0.28539  0.40970  0.71187  1.0000
  N   N35       1.0  0.00868  0.57226  0.64774  1.0000
  C   C379      1.0  0.31604  0.34806  0.57916  1.0000
  H   H382      1.0  0.24427  0.46438  0.53988  1.0000
  H   H383      1.0  0.26565  0.50447  0.58851  1.0000
  H   H384      1.0  0.23674  0.62049  0.56159  1.0000
  S   S128      1.0  0.37725  0.37377  0.61518  1.0000
  S   S129      1.0  0.32557  0.59717  0.52647  1.0000
  C   C380      1.0  0.33029  0.42645  0.58210  1.0000
  C   C381      1.0  0.28720  0.49903  0.60223  1.0000
  H   H385      1.0  0.02851  0.59551  0.62726  1.0000
  H   H386      1.0  0.11606  0.61872  0.69702  1.0000
  H   H387      1.0  0.31798  0.43055  0.65129  1.0000
  Fe  Fe68      1.0  0.31337  0.57147  0.51597  1.0000
  S   S130      1.0  0.31410  0.53614  0.52365  1.0000
  H   H388      1.0  0.22985  0.44801  0.64218  1.0000
  C   C382      1.0  0.18554  0.34843  0.64745  1.0000
  C   C383      1.0  0.35369  0.41200  0.59511  1.0000
  H   H389      1.0  0.04347  0.58403  0.63919  1.0000
  H   H390      1.0  0.32259  0.44656  0.60206  1.0000
  H   H391      1.0  0.34680  0.44355  0.60789  1.0000
  H   H392      1.0  0.01812  0.57137  0.66741  1.0000
  C   C384      1.0  0.32056  0.35035  0.59216  1.0000
  C   C385      1.0  0.21780  0.63292  0.54757  1.0000
  H   H393      1.0  0.44976  0.66897  0.48886  1.0000
  H   H394      1.0  0.28347  0.38506  0.67569  1.0000
  H   H395      1.0  0.44533  0.38288  0.57493  1.0000
  C   C386      1.0  0.14811  0.34625  0.64587  1.0000
  S   S131      1.0  0.05800  0.62965  0.69207  1.0000
  H   H396      1.0  0.28827  0.54304  0.50098  1.0000
  S   S132      1.0  0.06507  0.60052  0.66036  1.0000
  S   S133      1.0  0.32127  0.41208  0.70227  1.0000
  H   H397      1.0  0.14515  0.65473  0.52746  1.0000
  C   C387      1.0  0.08589  0.64369  0.62008  1.0000
  C   C388      1.0  0.08044  0.62428  0.63151  1.0000
  C   C389      1.0  0.07573  0.62500  0.64604  1.0000
  H   H398      1.0  0.32400  0.33823  0.57327  1.0000
  S   S134      1.0  0.27515  0.61563  0.54280  1.0000
  H   H399      1.0  0.18843  0.35070  0.68985  1.0000
  H   H400      1.0  0.07924  0.60872  0.62909  1.0000
  H   H401      1.0  0.13676  0.35126  0.63993  1.0000
  C   C390      1.0  0.13683  0.64795  0.53939  1.0000
  H   H402      1.0  0.26948  0.47062  0.63821  1.0000
  H   H403      1.0  0.32149  0.42184  0.61535  1.0000
  S   S135      1.0  0.36741  0.35663  0.65096  1.0000
  C   C391      1.0  0.24495  0.48092  0.53392  1.0000
  C   C392      1.0  0.47742  0.36087  0.59421  1.0000
  C   C393      1.0  0.24732  0.48547  0.61065  1.0000
  H   H404      1.0  0.23147  0.48377  0.60819  1.0000
  H   H405      1.0  0.08876  0.64298  0.60893  1.0000
  H   H406      1.0  0.20678  0.34940  0.60123  1.0000
  C   C394      1.0  0.28821  0.48950  0.61629  1.0000
  H   H407      1.0  0.02958  0.60436  0.64325  1.0000
  H   H408      1.0  0.30498  0.37112  0.67261  1.0000
  H   H409      1.0  0.29711  0.39526  0.64750  1.0000
  H   H410      1.0  0.41868  0.37001  0.59964  1.0000
  C   C395      1.0  0.25128  0.63079  0.52458  1.0000
  C   C396      1.0  0.23352  0.63876  0.52166  1.0000
  S   S136      1.0  0.31142  0.63159  0.50202  1.0000
  C   C397      1.0  0.44115  0.35732  0.61037  1.0000
  H   H411      1.0  0.26402  0.62971  0.51570  1.0000
  Fe  Fe69      1.0  0.02794  0.64703  0.59547  1.0000
  C   C398      1.0  0.09831  0.64622  0.73078  1.0000
  Fe  Fe70      1.0  0.03640  0.60323  0.71214  1.0000
  C   C399      1.0  0.33213  0.43469  0.60523  1.0000
  H   H412      1.0  0.27597  0.52587  0.49100  1.0000
  C   C400      1.0  0.13346  0.62205  0.71328  1.0000
  C   C401      1.0  0.34109  0.41162  0.65450  1.0000
  C   C402      1.0  0.35120  0.40170  0.66447  1.0000
  C   C403      1.0  0.34537  0.40239  0.67902  1.0000
  C   C404      1.0  0.32877  0.41225  0.68383  1.0000
  C   C405      1.0  0.31863  0.42220  0.67386  1.0000
  C   C406      1.0  0.32524  0.42235  0.65913  1.0000
  H   H413      1.0  0.36408  0.39415  0.66087  1.0000
  H   H414      1.0  0.35381  0.39528  0.68652  1.0000
  H   H415      1.0  0.30613  0.43025  0.67742  1.0000
  Fe  Fe71      1.0  0.04483  0.60708  0.67982  1.0000
  C   C407      1.0  0.37723  0.65298  0.52042  1.0000
  C   C408      1.0  0.35090  0.40299  0.57284  1.0000
  H   H416      1.0  0.21614  0.48252  0.54938  1.0000
  S   S137      1.0  0.04828  0.59434  0.73252  1.0000
  C   C409      1.0  0.25833  0.49172  0.56372  1.0000
  C   C410      1.0  0.27538  0.48364  0.55726  1.0000
  C   C411      1.0  0.29277  0.49757  0.54519  1.0000
  C   C412      1.0  0.29327  0.51964  0.53959  1.0000
  C   C413      1.0  0.27657  0.52786  0.54634  1.0000
  C   C414      1.0  0.25910  0.51391  0.55834  1.0000
  H   H417      1.0  0.27481  0.46651  0.56120  1.0000
  H   H418      1.0  0.30566  0.49113  0.53999  1.0000
  H   H419      1.0  0.27692  0.54490  0.54222  1.0000
  H   H420      1.0  0.24600  0.52029  0.56332  1.0000
  C   C415      1.0  0.29168  0.37189  0.58095  1.0000
  C   C416      1.0  0.29578  0.37386  0.59414  1.0000
  C   C417      1.0  0.31025  0.36309  0.59975  1.0000
  N   N36       1.0  0.27972  0.36366  0.66239  1.0000
  H   H421      1.0  0.14414  0.63827  0.70702  1.0000
  C   C418      1.0  0.24794  0.52374  0.51910  1.0000
  H   H422      1.0  0.28861  0.38440  0.59967  1.0000
  H   H423      1.0  0.31397  0.36521  0.60965  1.0000
  H   H424      1.0  0.18577  0.36733  0.71766  1.0000
  C   C419      1.0  0.17846  0.34970  0.72140  1.0000
  C   C420      1.0  0.26155  0.42017  0.64551  1.0000
  C   C421      1.0  0.26933  0.42699  0.65643  1.0000
  C   C422      1.0  0.25623  0.41907  0.67094  1.0000
  C   C423      1.0  0.23506  0.40485  0.67448  1.0000
  C   C424      1.0  0.22709  0.39822  0.66352  1.0000
  C   C425      1.0  0.24044  0.40576  0.64901  1.0000
  H   H425      1.0  0.28530  0.43868  0.65369  1.0000
  H   H426      1.0  0.26241  0.42433  0.67932  1.0000
  H   H427      1.0  0.21067  0.38721  0.66623  1.0000
  H   H428      1.0  0.23430  0.40044  0.64060  1.0000
  C   C426      1.0  0.17096  0.35513  0.63968  1.0000
  Fe  Fe72      1.0  0.34102  0.61917  0.50358  1.0000
  C   C427      1.0  0.46248  0.35415  0.60829  1.0000
  C   C428      1.0  0.31429  0.35386  0.71202  1.0000
  H   H429      1.0  0.38410  0.65951  0.53990  1.0000
  H   H430      1.0  0.07512  0.64600  0.66020  1.0000
  S   S138      1.0  0.22273  0.39536  0.73108  1.0000
  C   C429      1.0  0.28688  0.36930  0.67461  1.0000
  H   H431      1.0  0.04519  0.65805  0.71366  1.0000
  H   H432      1.0  0.01766  0.65860  0.72267  1.0000
  H   H433      1.0  0.32847  0.41678  0.56255  1.0000
  H   H434      1.0  0.30409  0.49059  0.61862  1.0000
  C   C430      1.0  0.02847  0.58991  0.63888  1.0000
  H   H435      1.0  0.33471  0.66244  0.53025  1.0000
  H   H436      1.0  0.22517  0.47387  0.64413  1.0000
  Fe  Fe73      1.0  0.35541  0.37837  0.63493  1.0000
  H   H437      1.0  0.23251  0.64358  0.51056  1.0000
  S   S139      1.0  0.33214  0.59252  0.49307  1.0000
  C   C431      1.0  0.07828  0.64529  0.64904  1.0000
  H   H438      1.0  0.35494  0.39396  0.56499  1.0000
  C   C432      1.0  0.35986  0.40112  0.58468  1.0000
  C   C433      1.0  0.22821  0.46414  0.63627  1.0000
  H   H439      1.0  0.30228  0.50780  0.59350  1.0000
  H   H440      1.0  0.29855  0.35731  0.56334  1.0000
  C   C434      1.0  0.43503  0.36760  0.59825  1.0000
  C   C435      1.0  0.28183  0.52584  0.50088  1.0000
  C   C436      1.0  0.12496  0.66304  0.55972  1.0000
  Fe  Fe74      1.0  0.02721  0.64069  0.69174  1.0000
  C   C437      1.0  0.26855  0.47820  0.62734  1.0000
  H   H441      1.0  0.24899  0.54050  0.51337  1.0000
  S   S140      1.0  0.34743  0.41008  0.63638  1.0000
  C   C438      1.0  0.38359  0.66668  0.52889  1.0000
  C   C439      1.0  0.26664  0.49713  0.59940  1.0000
  C   C440      1.0  0.22910  0.49111  0.53924  1.0000
  H   H442      1.0  0.07762  0.63849  0.71693  1.0000
  S   S141      1.0  0.37315  0.64566  0.49443  1.0000
  H   H443      1.0  0.37317  0.63530  0.52484  1.0000
  H   H444      1.0  0.21845  0.52083  0.53594  1.0000
  C   C441      1.0  0.28661  0.37904  0.64903  1.0000
  H   H445      1.0  0.11892  0.64106  0.54069  1.0000
  H   H446      1.0  0.29618  0.51862  0.50023  1.0000
  H   H447      1.0  0.17288  0.36841  0.69628  1.0000
  H   H448      1.0  0.14408  0.63463  0.54382  1.0000
  N   N37       1.0  0.26371  0.51379  0.51415  1.0000
  H   H449      1.0  0.20325  0.35521  0.64272  1.0000
  S   S142      1.0  0.34012  0.33814  0.59809  1.0000
  N   N38       1.0  0.14010  0.66500  0.54690  1.0000
  S   S143      1.0  0.00621  0.61576  0.71272  1.0000
  C   C442      1.0  0.13484  0.61226  0.72724  1.0000
  Fe  Fe75      1.0  0.29501  0.60736  0.52402  1.0000
  C   C443      1.0  0.26694  0.35327  0.63887  1.0000
  S   S144      1.0  0.00362  0.61492  0.60943  1.0000
  N   N39       1.0  0.03984  0.65678  0.73604  1.0000
  Fe  Fe76      1.0  0.34884  0.34523  0.61780  1.0000
  C   C444      1.0  0.08145  0.63275  0.72711  1.0000
  H   H450      1.0  0.42537  0.66310  0.50410  1.0000
  C   C445      1.0  0.30152  0.36077  0.73568  1.0000
  C   C446      1.0  0.10370  0.59052  0.71604  1.0000
  H   H451      1.0  0.32784  0.36866  0.70880  1.0000
  C   C447      1.0  0.21677  0.63978  0.53317  1.0000
  C   C448      1.0  0.08500  0.66479  0.63755  1.0000
  C   C449      1.0  0.26226  0.49257  0.52128  1.0000
  H   H452      1.0  0.27487  0.48475  0.51746  1.0000
  H   H453      1.0  0.37098  0.39074  0.58597  1.0000
  S   S145      1.0  0.28150  0.58014  0.51513  1.0000
  C   C450      1.0  0.23582  0.62550  0.55045  1.0000
  H   H454      1.0  0.49369  0.35811  0.59275  1.0000
  C   C451      1.0  0.33608  0.41580  0.57147  1.0000
  C   C452      1.0  0.25250  0.62435  0.53898  1.0000
  H   H455      1.0  0.11013  0.64936  0.56406  1.0000
  S   S146      1.0  0.01633  0.62109  0.67724  1.0000
  H   H456      1.0  0.36041  0.41030  0.60443  1.0000
  C   C453      1.0  0.47134  0.37133  0.58213  1.0000
  Fe  Fe77      1.0  0.24662  0.37555  0.73462  1.0000
  C   C454      1.0  0.30168  0.35886  0.57354  1.0000
  C   C455      1.0  0.45017  0.37484  0.58423  1.0000
  Fe  Fe78      1.0  0.30124  0.60336  0.49316  1.0000
  N   N40       1.0  0.33906  0.42443  0.59373  1.0000
  H   H457      1.0  0.31848  0.43603  0.58106  1.0000
  S   S147      1.0  0.02523  0.57942  0.69983  1.0000
  C   C456      1.0  0.11771  0.61111  0.70769  1.0000
  C   C457      1.0  0.17272  0.35097  0.69725  1.0000
  H   H458      1.0  0.15859  0.34366  0.69345  1.0000
  H   H459      1.0  0.29876  0.65937  0.52452  1.0000
  H   H460      1.0  0.10731  0.66231  0.72338  1.0000
  H   H461      1.0  0.20485  0.63367  0.55648  1.0000
  C   C458      1.0  0.08782  0.66393  0.62311  1.0000
  H   H462      1.0  0.32490  0.34585  0.69174  1.0000
  C   C459      1.0  0.28033  0.37409  0.63709  1.0000
  H   H463      1.0  0.09096  0.58214  0.71198  1.0000
  H   H464      1.0  0.26217  0.34919  0.62965  1.0000
  S   S148      1.0  0.06441  0.65083  0.58737  1.0000
  S   S149      1.0  0.48940  0.37943  0.56423  1.0000
  S   S150      1.0  0.19464  0.64996  0.52975  1.0000
  H   H465      1.0  0.22939  0.33790  0.72273  1.0000
  C   C460      1.0  0.23051  0.51264  0.53177  1.0000
  C   C461      1.0  0.03556  0.66438  0.72188  1.0000
  C   C462      1.0  0.37713  0.66220  0.50605  1.0000
  H   H466      1.0  0.27804  0.35660  0.68519  1.0000
  H   H467      1.0  0.28593  0.38638  0.62654  1.0000
  S   S151      1.0  0.27222  0.40356  0.73617  1.0000
  H   H468      1.0  0.30906  0.37850  0.72976  1.0000
  S   S152      1.0  0.32604  0.35209  0.63594  1.0000
  H   H469      1.0  0.14669  0.62116  0.73168  1.0000
  C   C463      1.0  0.26675  0.34309  0.66422  1.0000
  N   N41       1.0  0.17066  0.33884  0.71231  1.0000
  Fe  Fe79      1.0  0.38692  0.34957  0.63119  1.0000
  H   H470      1.0  0.46736  0.34618  0.61759  1.0000
  C   C464      1.0  0.00596  0.56432  0.66241  1.0000
  N   N42       1.0  0.29904  0.34772  0.72543  1.0000
  S   S153      1.0  0.42223  0.34706  0.62806  1.0000
  H   H471      1.0  0.24507  0.34587  0.59290  1.0000
  C   C465      1.0  0.10561  0.58116  0.72993  1.0000
  Fe  Fe80      1.0  0.24973  0.42428  0.73026  1.0000
  C   C466      1.0  0.31271  0.34107  0.70235  1.0000
  C   C467      1.0  0.21248  0.33716  0.60793  1.0000
  C   C468      1.0  0.25996  0.33768  0.65254  1.0000
  C   C469      1.0  0.17734  0.33822  0.73563  1.0000
  N   N43       1.0  0.12083  0.59218  0.73543  1.0000
  H   H472      1.0  0.09433  0.56536  0.73647  1.0000
  S   S154      1.0  0.02588  0.66791  0.57445  1.0000
  C   C470      1.0  0.06969  0.61193  0.73660  1.0000
  Fe  Fe81      1.0  0.21971  0.36905  0.96020  1.0000
  Fe  Fe82      1.0  0.23545  0.40522  0.93106  1.0000
  S   S155      1.0  0.24416  0.38178  0.91843  1.0000
  S   S156      1.0  0.24092  0.44006  0.91718  1.0000
  Fe  Fe83      1.0  0.21227  0.35815  0.93304  1.0000
  H   H473      1.0  0.25534  0.60203  0.88985  1.0000
  Fe  Fe84      1.0  0.25862  0.36940  0.93650  1.0000
  H   H474      1.0  0.31226  0.35501  0.74233  1.0000
  S   S157      1.0  0.20205  0.38242  0.94428  1.0000
  S   S158      1.0  0.25228  0.39441  0.94820  1.0000
  C   C471      1.0  0.34759  0.60497  0.80867  1.0000
  S   S159      1.0  0.14799  0.56879  0.77662  1.0000
  C   C472      1.0  0.29012  0.60993  0.79386  1.0000
  S   S160      1.0  0.12644  0.61730  0.78544  1.0000
  Fe  Fe85      1.0  0.26350  0.52097  0.82280  1.0000
  S   S161      1.0  0.29090  0.53769  0.80202  1.0000
  S   S162      1.0  0.27122  0.51261  0.84450  1.0000
  Fe  Fe86      1.0  0.22832  0.51662  0.80677  1.0000
  S   S163      1.0  0.25251  0.53347  0.78482  1.0000
  S   S164      1.0  0.19342  0.50157  0.80747  1.0000
  Fe  Fe87      1.0  0.27356  0.51267  0.79277  1.0000
  S   S165      1.0  0.29113  0.49419  0.77917  1.0000
  Fe  Fe88      1.0  0.26726  0.55683  0.79605  1.0000
  S   S166      1.0  0.27807  0.59302  0.78442  1.0000
  S   S167      1.0  0.24835  0.49415  0.81415  1.0000
  S   S168      1.0  0.24084  0.54188  0.81743  1.0000
  C   C473      1.0  0.37583  0.66667  0.86654  1.0000
  C   C474      1.0  0.23775  0.44739  0.79763  1.0000
  S   S169      1.0  0.19494  0.62184  0.90718  1.0000
  H   H475      1.0  0.11084  0.64229  0.93609  1.0000
  C   C475      1.0  0.21061  0.43159  0.78173  1.0000
  H   H476      1.0  0.32326  0.58607  0.78983  1.0000
  H   H477      1.0  0.35311  0.62008  0.79976  1.0000
  N   N44       1.0  0.22345  0.56857  0.75857  1.0000
  N   N45       1.0  0.22949  0.42501  0.78200  1.0000
  Fe  Fe89      1.0  0.34223  0.60120  0.90204  1.0000
  S   S170      1.0  0.31571  0.61629  0.89679  1.0000
  S   S171      1.0  0.37704  0.62249  0.89674  1.0000
  Fe  Fe90      1.0  0.31089  0.55478  0.91389  1.0000
  S   S172      1.0  0.28154  0.56627  0.90974  1.0000
  S   S173      1.0  0.30827  0.51948  0.92536  1.0000
  Fe  Fe91      1.0  0.30558  0.58755  0.88845  1.0000
  S   S174      1.0  0.29627  0.59489  0.86748  1.0000
  Fe  Fe92      1.0  0.29449  0.59388  0.91853  1.0000
  S   S175      1.0  0.27513  0.61027  0.93251  1.0000
  S   S176      1.0  0.33410  0.57403  0.89170  1.0000
  S   S177      1.0  0.32187  0.58082  0.92457  1.0000
  C   C476      1.0  0.21854  0.45420  0.79742  1.0000
  C   C477      1.0  0.12254  0.58212  0.75001  1.0000
  H   H478      1.0  0.01626  0.62554  0.74179  1.0000
  N   N46       1.0  0.26671  0.63380  0.87476  1.0000
  H   H479      1.0  0.28328  0.58401  0.81372  1.0000
  S   S178      1.0  0.01348  0.64608  0.97652  1.0000
  C   C478      1.0  0.25452  0.46273  0.75058  1.0000
  C   C479      1.0  0.21150  0.58377  0.75856  1.0000
  C   C480      1.0  0.23504  0.40908  0.77428  1.0000
  C   C481      1.0  0.33202  0.56631  0.81764  1.0000
  C   C482      1.0  0.38223  0.64280  0.90579  1.0000
  H   H480      1.0  0.29530  0.36267  0.98086  1.0000
  N   N47       1.0  0.34012  0.58517  0.80623  1.0000
  H   H481      1.0  0.23040  0.39245  0.78212  1.0000
  H   H482      1.0  0.07171  0.63697  0.92271  1.0000
  C   C483      1.0  0.31029  0.64599  0.79386  1.0000
  H   H483      1.0  0.23783  0.66577  0.83171  1.0000
  H   H484      1.0  0.32568  0.55062  0.81584  1.0000
  C   C484      1.0  0.31258  0.66280  0.93357  1.0000
  H   H485      1.0  0.40862  0.63147  0.91251  1.0000
  C   C485      1.0  0.21550  0.61773  0.91585  1.0000
  C   C486      1.0  0.22177  0.59812  0.91715  1.0000
  C   C487      1.0  0.23987  0.59561  0.92254  1.0000
  C   C488      1.0  0.25131  0.61244  0.92704  1.0000
  C   C489      1.0  0.24439  0.63162  0.92640  1.0000
  C   C490      1.0  0.22666  0.63436  0.92065  1.0000
  H   H486      1.0  0.21299  0.58511  0.91363  1.0000
  H   H487      1.0  0.24478  0.58053  0.92341  1.0000
  H   H488      1.0  0.09637  0.63186  0.91335  1.0000
  H   H489      1.0  0.22166  0.64933  0.91995  1.0000
  C   C491      1.0  0.27745  0.48309  0.76760  1.0000
  C   C492      1.0  0.25742  0.48718  0.76607  1.0000
  C   C493      1.0  0.24606  0.47710  0.75756  1.0000
  C   C494      1.0  0.25072  0.61207  0.88076  1.0000
  C   C495      1.0  0.27483  0.45900  0.75179  1.0000
  C   C496      1.0  0.28626  0.46918  0.76028  1.0000
  H   H490      1.0  0.25039  0.49771  0.77170  1.0000
  C   C497      1.0  0.24877  0.64563  0.80359  1.0000
  C   C498      1.0  0.27666  0.53492  0.85165  1.0000
  C   C499      1.0  0.28588  0.53317  0.86346  1.0000
  C   C500      1.0  0.29148  0.55142  0.86869  1.0000
  C   C501      1.0  0.28753  0.57126  0.86222  1.0000
  C   C502      1.0  0.27721  0.57258  0.85099  1.0000
  C   C503      1.0  0.27203  0.55453  0.84560  1.0000
  H   H491      1.0  0.28921  0.51789  0.86831  1.0000
  H   H492      1.0  0.29923  0.55024  0.87750  1.0000
  H   H493      1.0  0.27335  0.58763  0.84637  1.0000
  H   H494      1.0  0.26445  0.55582  0.83675  1.0000
  H   H495      1.0  0.34168  0.56850  0.78968  1.0000
  H   H496      1.0  0.10610  0.57209  0.75751  1.0000
  H   H497      1.0  0.25255  0.62883  0.75492  1.0000
  C   C504      1.0  0.21400  0.63828  0.82103  1.0000
  C   C505      1.0  0.24446  0.61196  0.75575  1.0000
  C   C506      1.0  0.07499  0.60478  0.74978  1.0000
  C   C507      1.0  0.09193  0.61819  0.75341  1.0000
  H   H498      1.0  0.21443  0.46589  0.80323  1.0000
  Fe  Fe93      1.0  0.14306  0.64474  0.76477  1.0000
  H   H499      1.0  0.06590  0.58876  0.75724  1.0000
  H   H500      1.0  0.09571  0.61253  0.76364  1.0000
  C   C508      1.0  0.17001  0.66137  0.84644  1.0000
  H   H501      1.0  0.35287  0.59774  0.78296  1.0000
  Fe  Fe94      1.0  0.14933  0.63622  0.79559  1.0000
  H   H502      1.0  0.25307  0.41391  0.76861  1.0000
  H   H503      1.0  0.30183  0.46606  0.76134  1.0000
  C   C509      1.0  0.16008  0.55066  0.78631  1.0000
  C   C510      1.0  0.17810  0.55821  0.79144  1.0000
  C   C511      1.0  0.18859  0.54324  0.79796  1.0000
  C   C512      1.0  0.18055  0.52072  0.79974  1.0000
  C   C513      1.0  0.16232  0.51326  0.79486  1.0000
  C   C514      1.0  0.15231  0.52821  0.78799  1.0000
  H   H504      1.0  0.18423  0.57555  0.79011  1.0000
  H   H505      1.0  0.20271  0.54905  0.80173  1.0000
  H   H506      1.0  0.15610  0.49588  0.79621  1.0000
  H   H507      1.0  0.13842  0.52231  0.78403  1.0000
  C   C515      1.0  0.25932  0.46207  0.91976  1.0000
  C   C516      1.0  0.26631  0.45981  0.93244  1.0000
  C   C517      1.0  0.28092  0.47774  0.93420  1.0000
  C   C518      1.0  0.28841  0.49807  0.92338  1.0000
  C   C519      1.0  0.28118  0.50043  0.91077  1.0000
  C   C520      1.0  0.26690  0.48238  0.90890  1.0000
  H   H508      1.0  0.26048  0.44428  0.94091  1.0000
  H   H509      1.0  0.28652  0.47584  0.94396  1.0000
  H   H510      1.0  0.28715  0.51596  0.90229  1.0000
  H   H511      1.0  0.26192  0.48412  0.89892  1.0000
  H   H512      1.0  0.31454  0.61887  0.94585  1.0000
  N   N48       1.0  0.23556  0.65047  0.81477  1.0000
  H   H513      1.0  0.18802  0.61110  0.82113  1.0000
  H   H514      1.0  0.21995  0.53998  0.75119  1.0000
  H   H515      1.0  0.12879  0.59481  0.75518  1.0000
  C   C521      1.0  0.39957  0.64383  0.91232  1.0000
  C   C522      1.0  0.24579  0.57475  0.75684  1.0000
  H   H516      1.0  0.21225  0.61755  0.75747  1.0000
  H   H517      1.0  0.24891  0.45397  0.80341  1.0000
  H   H518      1.0  0.22635  0.40839  0.76566  1.0000
  Fe  Fe95      1.0  0.15471  0.60337  0.77818  1.0000
  N   N49       1.0  0.30186  0.44033  0.90626  1.0000
  C   C523      1.0  0.30162  0.42097  0.91556  1.0000
  C   C524      1.0  0.31234  0.45999  0.90773  1.0000
  C   C525      1.0  0.31127  0.42097  0.92706  1.0000
  C   C526      1.0  0.32208  0.46062  0.91915  1.0000
  C   C527      1.0  0.32137  0.44095  0.92893  1.0000
  C   C528      1.0  0.29167  0.43991  0.89426  1.0000
  H   H519      1.0  0.29380  0.40536  0.91419  1.0000
  H   H520      1.0  0.31268  0.47537  0.90033  1.0000
  H   H521      1.0  0.31078  0.40553  0.93450  1.0000
  H   H522      1.0  0.32958  0.47630  0.92060  1.0000
  H   H523      1.0  0.32857  0.44119  0.93796  1.0000
  H   H524      1.0  0.30354  0.43820  0.88474  1.0000
  H   H525      1.0  0.27641  0.42602  0.89778  1.0000
  H   H526      1.0  0.28633  0.45508  0.89088  1.0000
  C   C529      1.0  0.27883  0.64093  0.86037  1.0000
  H   H527      1.0  0.32506  0.62921  0.92624  1.0000
  H   H528      1.0  0.05092  0.62725  0.98278  1.0000
  H   H529      1.0  0.31830  0.66300  0.78807  1.0000
  N   N50       1.0  0.21925  0.49020  0.91171  1.0000
  C   C530      1.0  0.22968  0.51187  0.90453  1.0000
  C   C531      1.0  0.21317  0.47580  0.90409  1.0000
  C   C532      1.0  0.23471  0.51952  0.88928  1.0000
  C   C533      1.0  0.21812  0.48286  0.88883  1.0000
  C   C534      1.0  0.22894  0.50486  0.88141  1.0000
  C   C535      1.0  0.21428  0.48259  0.92768  1.0000
  H   H530      1.0  0.23454  0.52327  0.91056  1.0000
  H   H531      1.0  0.20505  0.45857  0.90975  1.0000
  H   H532      1.0  0.24328  0.53663  0.88357  1.0000
  H   H533      1.0  0.21384  0.47128  0.88279  1.0000
  H   H534      1.0  0.23298  0.51045  0.86956  1.0000
  H   H535      1.0  0.19947  0.48727  0.93289  1.0000
  H   H536      1.0  0.21115  0.46443  0.93167  1.0000
  H   H537      1.0  0.22866  0.48983  0.93131  1.0000
  C   C536      1.0  0.34719  0.60621  0.82283  1.0000
  C   C537      1.0  0.33156  0.56696  0.83189  1.0000
  C   C538      1.0  0.33899  0.58706  0.83451  1.0000
  H   H538      1.0  0.13401  0.57148  0.74931  1.0000
  H   H539      1.0  0.32507  0.55196  0.84088  1.0000
  H   H540      1.0  0.20335  0.64235  0.82967  1.0000
  H   H541      1.0  0.14597  0.66727  0.91868  1.0000
  H   H542      1.0  0.26571  0.65554  0.79839  1.0000
  H   H543      1.0  0.12219  0.65963  0.89157  1.0000
  C   C539      1.0  0.20527  0.62046  0.81629  1.0000
  C   C540      1.0  0.24055  0.62797  0.79855  1.0000
  C   C541      1.0  0.21874  0.61521  0.80505  1.0000
  H   H544      1.0  0.27424  0.60122  0.75439  1.0000
  H   H545      1.0  0.38448  0.66315  0.87478  1.0000
  H   H546      1.0  0.28372  0.37415  0.95839  1.0000
  S   S179      1.0  0.22676  0.65930  0.76221  1.0000
  H   H547      1.0  0.07412  0.63284  0.90478  1.0000
  H   H548      1.0  0.21218  0.60152  0.80119  1.0000
  H   H549      1.0  0.23036  0.48004  0.75667  1.0000
  C   C542      1.0  0.09343  0.66391  0.97742  1.0000
  H   H550      1.0  0.36015  0.63235  0.87011  1.0000
  H   H551      1.0  0.20019  0.42592  0.77525  1.0000
  H   H552      1.0  0.34413  0.62739  0.93698  1.0000
  H   H553      1.0  0.30325  0.66732  0.84318  1.0000
  S   S180      1.0  0.17032  0.62976  0.75704  1.0000
  C   C543      1.0  0.04942  0.64132  0.76225  1.0000
  C   C544      1.0  0.33948  0.58433  0.79146  1.0000
  S   S181      1.0  0.13912  0.63702  0.81912  1.0000
  C   C545      1.0  0.29065  0.60131  0.80820  1.0000
  C   C546      1.0  0.29959  0.35382  0.94744  1.0000
  C   C547      1.0  0.10374  0.63898  0.74390  1.0000
  S   S182      1.0  0.17584  0.61933  0.79021  1.0000
  H   H554      1.0  0.25033  0.60294  0.87246  1.0000
  S   S183      1.0  0.20411  0.35924  0.98449  1.0000
  H   H555      1.0  0.29948  0.63907  0.77563  1.0000
  C   C548      1.0  0.25661  0.59650  0.75542  1.0000
  C   C549      1.0  0.34394  0.66451  0.94283  1.0000
  C   C550      1.0  0.02844  0.63621  0.74504  1.0000
  C   C551      1.0  0.29977  0.63232  0.78676  1.0000
  S   S184      1.0  0.29121  0.36133  0.93155  1.0000
  H   H556      1.0  0.27725  0.63035  0.85330  1.0000
  C   C552      1.0  0.30108  0.61509  0.81532  1.0000
  H   H557      1.0  0.30191  0.60839  0.82627  1.0000
  C   C553      1.0  0.21245  0.54546  0.76062  1.0000
  H   H558      1.0  0.43335  0.34110  0.98103  1.0000
  S   S185      1.0  0.32567  0.65389  0.81686  1.0000
  S   S186      1.0  0.07041  0.65034  0.95016  1.0000
  C   C554      1.0  0.29340  0.36240  0.95914  1.0000
  N   N51       1.0  0.32834  0.65341  0.93764  1.0000
  C   C555      1.0  0.24296  0.43266  0.78984  1.0000
  H   H559      1.0  0.25818  0.42785  0.78981  1.0000
  H   H560      1.0  0.10175  0.65895  0.96829  1.0000
  C   C556      1.0  0.29373  0.66187  0.85459  1.0000
  H   H561      1.0  0.25535  0.56280  0.75670  1.0000
  C   C557      1.0  0.22179  0.60562  0.75724  1.0000
  C   C558      1.0  0.20487  0.44630  0.78942  1.0000
  H   H562      1.0  0.19015  0.45187  0.78901  1.0000
  H   H563      1.0  0.14088  0.63608  0.84833  1.0000
  C   C559      1.0  0.31113  0.63740  0.80813  1.0000
  H   H564      1.0  0.35243  0.62205  0.82474  1.0000
  C   C560      1.0  0.32805  0.63112  0.93670  1.0000
  H   H565      1.0  0.05365  0.63505  0.77226  1.0000
  C   C561      1.0  0.29998  0.35593  0.97186  1.0000
  C   C562      1.0  0.36210  0.64914  0.86389  1.0000
  H   H566      1.0  0.07811  0.62319  0.97854  1.0000
  H   H567      1.0  0.23377  0.61379  0.88497  1.0000
  H   H568      1.0  0.29994  0.65381  0.92974  1.0000
  H   H569      1.0  0.35657  0.65720  0.94597  1.0000
  S   S187      1.0  0.12498  0.65660  0.74808  1.0000
  H   H570      1.0  0.19438  0.54266  0.76178  1.0000
  C   C563      1.0  0.06122  0.66213  0.75290  1.0000
  C   C564      1.0  0.31232  0.33876  0.94850  1.0000
  H   H571      1.0  0.18403  0.34681  0.74268  1.0000
  H   H572      1.0  0.34023  0.63996  0.85109  1.0000
  H   H573      1.0  0.25094  0.62440  0.78951  1.0000
  C   C565      1.0  0.11313  0.65989  0.93331  1.0000
  H   H574      1.0  0.16755  0.65787  0.85811  1.0000
  H   H575      1.0  0.21418  0.53497  0.77080  1.0000
  C   C566      1.0  0.37083  0.65910  0.90540  1.0000
  C   C567      1.0  0.15821  0.65299  0.82572  1.0000
  H   H576      1.0  0.28515  0.35940  0.74311  1.0000
  C   C568      1.0  0.26928  0.64692  0.88373  1.0000
  Fe  Fe96      1.0  0.18930  0.64734  0.76971  1.0000
  H   H577      1.0  0.19384  0.57906  0.75977  1.0000
  H   H578      1.0  0.33794  0.58783  0.84561  1.0000
  C   C569      1.0  0.08326  0.64020  0.91167  1.0000
  H   H579      1.0  0.25308  0.64461  0.92998  1.0000
  S   S188      1.0  0.23586  0.34233  0.75090  1.0000
  S   S189      1.0  0.23822  0.44842  0.74157  1.0000
  C   C570      1.0  0.31177  0.34002  0.97317  1.0000
  C   C571      1.0  0.40530  0.66072  0.91867  1.0000
  S   S190      1.0  0.22764  0.34323  0.94988  1.0000
  C   C572      1.0  0.09602  0.66844  0.93919  1.0000
  H   H580      1.0  0.41854  0.66109  0.92388  1.0000
  C   C573      1.0  0.03291  0.62824  0.75832  1.0000
  Fe  Fe97      1.0  0.19936  0.65765  0.89703  1.0000
  C   C574      1.0  0.15498  0.64897  0.84087  1.0000
  H   H581      1.0  0.28159  0.44809  0.74634  1.0000
  H   H582      1.0  0.25973  0.64121  0.89512  1.0000
  C   C575      1.0  0.35101  0.65342  0.85323  1.0000
  S   S191      1.0  0.16374  0.66534  0.77552  1.0000
  N   N52       1.0  0.09295  0.66385  0.90469  1.0000
  C   C576      1.0  0.28401  0.66794  0.87832  1.0000
  H   H583      1.0  0.35745  0.65851  0.90032  1.0000
  H   H584      1.0  0.02428  0.61167  0.76521  1.0000
  Fe  Fe98      1.0  0.04436  0.66638  0.95875  1.0000
  C   C577      1.0  0.24411  0.66945  0.81965  1.0000
  H   H585      1.0  0.22875  0.33790  0.90857  1.0000
  C   C578      1.0  0.17644  0.66970  0.81615  1.0000
  C   C579      1.0  0.05622  0.66963  0.73973  1.0000
  C   C580      1.0  0.06605  0.62774  0.98658  1.0000
  C   C581      1.0  0.02112  0.94109  0.16517  1.0000
  C   C582      1.0  0.03563  0.93790  0.12656  1.0000
  H   H586      1.0  0.03954  0.71248  0.99520  1.0000
  C   C583      1.0  0.01058  0.91166  0.15425  1.0000
  C   C584      1.0  0.03541  0.94554  0.13885  1.0000
  C   C585      1.0  0.01475  0.73203  0.02217  1.0000
  S   S192      1.0  0.03956  0.97473  0.21600  1.0000
  C   C586      1.0  0.02884  0.71231  0.00546  1.0000
  C   C587      1.0  0.45521  0.90243  0.00150  1.0000
  H   H587      1.0  0.45498  0.91998  0.99898  1.0000
  C   C588      1.0  0.02927  0.73202  0.00919  1.0000
  N   N53       1.0  0.45313  0.89346  0.98924  1.0000
  C   C589      1.0  0.02302  0.91673  0.12828  1.0000
  H   H588      1.0  0.04048  0.74728  0.00189  1.0000
  Fe  Fe99      1.0  0.01003  0.94499  0.22318  1.0000
  C   C590      1.0  0.00194  0.98885  0.17963  1.0000
  C   C591      1.0  0.01478  0.69245  0.01511  1.0000
  H   H589      1.0  0.02268  0.91078  0.11880  1.0000
  H   H590      1.0  0.04495  0.94858  0.11572  1.0000
  C   C592      1.0  0.00452  0.98832  0.11360  1.0000
  C   C593      1.0  0.07185  0.67743  0.00020  1.0000
  N   N54       1.0  0.02279  0.93251  0.15246  1.0000
  H   H591      1.0  0.04466  0.96229  0.13732  1.0000
  H   H592      1.0  0.02450  0.92968  0.17425  1.0000
  H   H593      1.0  0.09667  0.70848  0.99044  1.0000
  H   H594      1.0  0.06284  0.68264  0.00899  1.0000
  H   H595      1.0  0.02762  0.78197  0.99536  1.0000
  C   C594      1.0  0.00271  0.97802  0.12818  1.0000
  H   H596      1.0  0.00821  0.00002  0.20325  1.0000
  H   H597      1.0  0.00630  0.98339  0.16966  1.0000
  S   S193      1.0  0.01303  0.75691  0.02596  1.0000
  S   S194      1.0  0.00491  0.92348  0.20844  1.0000
  C   C595      1.0  0.01502  0.77746  0.98997  1.0000
  C   C596      1.0  0.01048  0.90345  0.14222  1.0000
  C   C597      1.0  0.04631  0.98892  0.22856  1.0000
  H   H598      1.0  0.44139  0.89313  0.01146  1.0000
  H   H599      1.0  0.47127  0.90159  0.00380  1.0000
  C   C598      1.0  0.44811  0.87119  0.99153  1.0000
  H   H600      1.0  0.44566  0.86025  0.00228  1.0000
  H   H601      1.0  0.00411  0.94287  0.16899  1.0000
  H   H602      1.0  0.03304  0.95747  0.16254  1.0000
  S   S195      1.0  0.01646  0.99227  0.13836  1.0000
  C   C599      1.0  0.09075  0.69192  0.98977  1.0000
  H   H603      1.0  0.02626  0.96329  0.24800  1.0000
  H   H604      1.0  0.03583  0.98465  0.26498  1.0000
  C   C600      1.0  0.04271  0.99185  0.25329  1.0000
  S   S196      1.0  0.14985  0.68251  0.38588  1.0000
  C   C601      1.0  0.03725  0.97975  0.24369  1.0000
  H   H605      1.0  0.16265  0.70512  0.40875  1.0000
  H   H606      1.0  0.01104  0.71691  0.28614  1.0000
  C   C602      1.0  0.00509  0.70463  0.28098  1.0000
  H   H607      1.0  0.01363  0.67872  0.29483  1.0000
  C   C603      1.0  0.00639  0.68314  0.28592  1.0000
  H   H608      1.0  0.13518  0.67059  0.45358  1.0000
  H   H609      1.0  0.16560  0.68074  0.46486  1.0000
  H   H610      1.0  0.49195  0.87546  0.39532  1.0000
  H   H611      1.0  0.43082  0.73971  0.46558  1.0000
  C   C604      1.0  0.48385  0.87827  0.40577  1.0000
  H   H612      1.0  0.33770  0.79602  0.47996  1.0000
  H   H613      1.0  0.36418  0.69312  0.45858  1.0000
  H   H614      1.0  0.33504  0.68507  0.46808  1.0000
  S   S197      1.0  0.21261  0.68206  0.45569  1.0000
  S   S198      1.0  0.27826  0.73528  0.48336  1.0000
  H   H615      1.0  0.49530  0.96464  0.39626  1.0000
  Fe  Fe100     1.0  0.20984  0.69265  0.47633  1.0000
  H   H616      1.0  0.32327  0.74633  0.48352  1.0000
  H   H617      1.0  0.49439  0.96271  0.27965  1.0000
  C   C605      1.0  0.43434  0.73026  0.47508  1.0000
  H   H618      1.0  0.36242  0.78651  0.47770  1.0000
  H   H619      1.0  0.33794  0.68677  0.44054  1.0000
  C   C606      1.0  0.46474  0.98419  0.32793  1.0000
  C   C607      1.0  0.40950  0.83729  0.36583  1.0000
  H   H620      1.0  0.36443  0.81544  0.47357  1.0000
  C   C608      1.0  0.26673  0.71984  0.38114  1.0000
  N   N55       1.0  0.27831  0.70361  0.45210  1.0000
  C   C609      1.0  0.42728  0.85372  0.36635  1.0000
  N   N56       1.0  0.48656  0.90188  0.40369  1.0000
  H   H621      1.0  0.22832  0.72152  0.42917  1.0000
  H   H622      1.0  0.42730  0.69982  0.46963  1.0000
  S   S199      1.0  0.32741  0.76200  0.41124  1.0000
  H   H623      1.0  0.44177  0.75792  0.48355  1.0000
  H   H624      1.0  0.49118  0.87124  0.41441  1.0000
  H   H625      1.0  0.32031  0.69080  0.38284  1.0000
  C   C610      1.0  0.43232  0.70774  0.47747  1.0000
  C   C611      1.0  0.36129  0.74200  0.45372  1.0000
  S   S200      1.0  0.49872  0.90200  0.33956  1.0000
  H   H626      1.0  0.29592  0.73594  0.45099  1.0000
  H   H627      1.0  0.47372  0.98889  0.34721  1.0000
  H   H628      1.0  0.26049  0.71845  0.36049  1.0000
  C   C612      1.0  0.37470  0.74637  0.47457  1.0000
  C   C613      1.0  0.22082  0.74330  0.40214  1.0000
  Fe  Fe101     1.0  0.34788  0.71530  0.39882  1.0000
  N   N57       1.0  0.20812  0.73194  0.41608  1.0000
  H   H629      1.0  0.35768  0.79952  0.41807  1.0000
  H   H630      1.0  0.43531  0.86798  0.35700  1.0000
  Fe  Fe102     1.0  0.35623  0.76501  0.39222  1.0000
  C   C614      1.0  0.22317  0.69301  0.39371  1.0000
  H   H631      1.0  0.25975  0.69914  0.43691  1.0000
  C   C615      1.0  0.31900  0.67338  0.38584  1.0000
  H   H632      1.0  0.28331  0.73066  0.37617  1.0000
  S   S201      1.0  0.37046  0.74081  0.40509  1.0000
  H   H633      1.0  0.46604  0.86906  0.40904  1.0000
  S   S202      1.0  0.27125  0.72595  0.40770  1.0000
  H   H634      1.0  0.20435  0.72768  0.43897  1.0000
  H   H635      1.0  0.45594  0.90133  0.39840  1.0000
  C   C616      1.0  0.23615  0.69994  0.40253  1.0000
  S   S203      1.0  0.41013  0.78020  0.47312  1.0000
  S   S204      1.0  0.35504  0.68354  0.39643  1.0000
  H   H636      1.0  0.32453  0.77674  0.43862  1.0000
  S   S205      1.0  0.45614  0.87248  0.38043  1.0000
  H   H637      1.0  0.20622  0.68317  0.39867  1.0000
  C   C617      1.0  0.33836  0.78699  0.44074  1.0000
  H   H638      1.0  0.38823  0.82108  0.44908  1.0000
  H   H639      1.0  0.17747  0.70931  0.42945  1.0000
  C   C618      1.0  0.35494  0.79943  0.47301  1.0000
  C   C619      1.0  0.25369  0.71299  0.37226  1.0000
  H   H640      1.0  0.38153  0.76398  0.43283  1.0000
  H   H641      1.0  0.32343  0.77703  0.46392  1.0000
  C   C620      1.0  0.33789  0.78718  0.45508  1.0000
  C   C621      1.0  0.39224  0.76428  0.46561  1.0000
  C   C622      1.0  0.42364  0.83303  0.39104  1.0000
  S   S206      1.0  0.48564  0.94726  0.31048  1.0000
  H   H642      1.0  0.18568  0.72551  0.38325  1.0000
  C   C623      1.0  0.37492  0.81218  0.43226  1.0000
  S   S207      1.0  0.31936  0.70930  0.41825  1.0000
  S   S208      1.0  0.21490  0.69380  0.36695  1.0000
  H   H643      1.0  0.28350  0.73425  0.43638  1.0000
  C   C624      1.0  0.47498  0.99639  0.33584  1.0000
  C   C625      1.0  0.43440  0.85174  0.37899  1.0000
  C   C626      1.0  0.49277  0.94698  0.39848  1.0000
  C   C627      1.0  0.37394  0.81191  0.44675  1.0000
  C   C628      1.0  0.26654  0.69134  0.44528  1.0000
  H   H644      1.0  0.38965  0.82167  0.42342  1.0000
  H   H645      1.0  0.29489  0.70339  0.46877  1.0000
  H   H646      1.0  0.40883  0.78366  0.44330  1.0000
  Fe  Fe103     1.0  0.49355  0.93545  0.33169  1.0000
  C   C629      1.0  0.46675  0.99405  0.31324  1.0000
  Fe  Fe104     1.0  0.34077  0.73652  0.42351  1.0000
  S   S209      1.0  0.37608  0.79870  0.37656  1.0000
  C   C630      1.0  0.37958  0.75903  0.44448  1.0000
  H   H647      1.0  0.45917  0.98420  0.30711  1.0000
  C   C631      1.0  0.47358  0.93395  0.39711  1.0000
  C   C632      1.0  0.35933  0.73535  0.46869  1.0000
  C   C633      1.0  0.21749  0.73283  0.42838  1.0000
  H   H648      1.0  0.22753  0.74971  0.42690  1.0000
  C   C634      1.0  0.25776  0.71382  0.39632  1.0000
  H   H649      1.0  0.26634  0.73091  0.45456  1.0000
  C   C635      1.0  0.39505  0.77012  0.45044  1.0000
  C   C636      1.0  0.17890  0.71623  0.40675  1.0000
  C   C637      1.0  0.40601  0.81644  0.39046  1.0000
  H   H650      1.0  0.45570  0.96702  0.33299  1.0000
  C   C638      1.0  0.44044  0.74052  0.48522  1.0000
  H   H651      1.0  0.23767  0.75306  0.40020  1.0000
  C   C639      1.0  0.21280  0.74143  0.39014  1.0000
  H   H652      1.0  0.40403  0.83908  0.35603  1.0000
  C   C640      1.0  0.23168  0.69996  0.37848  1.0000
  Fe  Fe105     1.0  0.47977  0.90184  0.36190  1.0000
  S   S210      1.0  0.33622  0.73961  0.38408  1.0000
  S   S211      1.0  0.21989  0.72827  0.47563  1.0000
  H   H653      1.0  0.22906  0.69541  0.41421  1.0000
  H   H654      1.0  0.42911  0.83124  0.40083  1.0000
  H   H655      1.0  0.34550  0.72193  0.47590  1.0000
  C   C641      1.0  0.19174  0.72773  0.39249  1.0000
  Fe  Fe106     1.0  0.30866  0.73486  0.40409  1.0000
  C   C642      1.0  0.47071  0.91128  0.39977  1.0000
  S   S212      1.0  0.47185  0.93380  0.35351  1.0000
  C   C643      1.0  0.39875  0.81855  0.37784  1.0000
  C   C644      1.0  0.34979  0.67887  0.46509  1.0000
  H   H656      1.0  0.39807  0.80204  0.39972  1.0000
  C   C645      1.0  0.18741  0.71856  0.41846  1.0000
  C   C646      1.0  0.35697  0.79967  0.42926  1.0000
  H   H657      1.0  0.22325  0.74973  0.37908  1.0000
  S   S213      1.0  0.33988  0.72906  0.44739  1.0000
  H   H658      1.0  0.46125  0.94147  0.39368  1.0000
  N   N58       1.0  0.35542  0.79980  0.45790  1.0000
  C   C647      1.0  0.28118  0.72740  0.44828  1.0000
  C   C648      1.0  0.28599  0.69363  0.46313  1.0000
  C   C649      1.0  0.18986  0.67299  0.44924  1.0000
  C   C650      1.0  0.16867  0.67471  0.45537  1.0000
  C   C651      1.0  0.28206  0.67073  0.46748  1.0000
  H   H659      1.0  0.37264  0.74098  0.48608  1.0000
  H   H660      1.0  0.24614  0.67143  0.35444  1.0000
  H   H661      1.0  0.35328  0.67108  0.47538  1.0000
  Fe  Fe107     1.0  0.17960  0.67174  0.37644  1.0000
  C   C652      1.0  0.33958  0.67022  0.44401  1.0000
  H   H662      1.0  0.42359  0.82284  0.66097  1.0000
  H   H663      1.0  0.40892  0.82051  0.70320  1.0000
  H   H664      1.0  0.03214  0.96158  0.71893  1.0000
  H   H665      1.0  0.04853  0.74482  0.55599  1.0000
  H   H666      1.0  0.03938  0.72352  0.60211  1.0000
  N   N59       1.0  0.39036  0.80762  0.72572  1.0000
  S   S214      1.0  0.46348  0.88587  0.69992  1.0000
  Fe  Fe108     1.0  0.40948  0.78998  0.52472  1.0000
  S   S215      1.0  0.42749  0.81802  0.53247  1.0000
  Fe  Fe109     1.0  0.36224  0.76819  0.52415  1.0000
  S   S216      1.0  0.32521  0.76477  0.52926  1.0000
  Fe  Fe110     1.0  0.39606  0.74139  0.52626  1.0000
  S   S217      1.0  0.39842  0.70656  0.53362  1.0000
  S   S218      1.0  0.38189  0.76106  0.54033  1.0000
  H   H667      1.0  0.26737  0.70112  0.52575  1.0000
  C   C653      1.0  0.00303  0.74196  0.62407  1.0000
  C   C654      1.0  0.47207  0.88509  0.63176  1.0000
  Fe  Fe111     1.0  0.19301  0.71797  0.49695  1.0000
  S   S219      1.0  0.16917  0.73656  0.50499  1.0000
  H   H668      1.0  0.44834  0.80791  0.73047  1.0000
  H   H669      1.0  0.29190  0.71574  0.53853  1.0000
  S   S220      1.0  0.21585  0.71113  0.51072  1.0000
  H   H670      1.0  0.44423  0.69613  0.50970  1.0000
  C   C655      1.0  0.46471  0.84250  0.55719  1.0000
  C   C656      1.0  0.31199  0.75730  0.51635  1.0000
  C   C657      1.0  0.02479  0.72871  0.60602  1.0000
  N   N60       1.0  0.06847  0.71987  0.52476  1.0000
  H   H671      1.0  0.34202  0.75887  0.50078  1.0000
  C   C658      1.0  0.27807  0.74579  0.50937  1.0000
  C   C659      1.0  0.28882  0.75283  0.51927  1.0000
  H   H672      1.0  0.26026  0.74251  0.51165  1.0000
  H   H673      1.0  0.27918  0.75473  0.52925  1.0000
  C   C660      1.0  0.38953  0.68960  0.52310  1.0000
  C   C661      1.0  0.42798  0.87520  0.64844  1.0000
  C   C662      1.0  0.38883  0.69867  0.50885  1.0000
  H   H674      1.0  0.07656  0.71139  0.62869  1.0000
  H   H675      1.0  0.39424  0.71620  0.50400  1.0000
  H   H676      1.0  0.13959  0.73753  0.53149  1.0000
  C   C663      1.0  0.46056  0.80708  0.54503  1.0000
  C   C664      1.0  0.44641  0.82070  0.54340  1.0000
  C   C665      1.0  0.44856  0.83833  0.54964  1.0000
  H   H677      1.0  0.45927  0.79351  0.54028  1.0000
  H   H678      1.0  0.43776  0.84901  0.54851  1.0000
  C   C666      1.0  0.43368  0.88382  0.63322  1.0000
  C   C667      1.0  0.49966  0.95525  0.58426  1.0000
  H   H679      1.0  0.42096  0.88644  0.62789  1.0000
  H   H680      1.0  0.41086  0.87113  0.65481  1.0000
  H   H681      1.0  0.40423  0.86781  0.72716  1.0000
  Fe  Fe112     1.0  0.46678  0.85682  0.71610  1.0000
  C   C668      1.0  0.16242  0.69847  0.54854  1.0000
  Fe  Fe113     1.0  0.03299  0.69581  0.58408  1.0000
  H   H682      1.0  0.08996  0.75062  0.62698  1.0000
  C   C669      1.0  0.30135  0.70419  0.53644  1.0000
  Fe  Fe114     1.0  0.24169  0.71809  0.48954  1.0000
  H   H683      1.0  0.48505  0.96562  0.61640  1.0000
  H   H684      1.0  0.49161  0.93779  0.58759  1.0000
  C   C670      1.0  0.04823  0.70993  0.53479  1.0000
  C   C671      1.0  0.49099  0.95470  0.61007  1.0000
  H   H685      1.0  0.06592  0.68556  0.73233  1.0000
  C   C672      1.0  0.40739  0.84605  0.71363  1.0000
  C   C673      1.0  0.08172  0.73867  0.52568  1.0000
  H   H686      1.0  0.44796  0.81414  0.67562  1.0000
  C   C674      1.0  0.45563  0.88848  0.62486  1.0000
  S   S221      1.0  0.06990  0.70438  0.57479  1.0000
  H   H687      1.0  0.47155  0.83449  0.62921  1.0000
  S   S222      1.0  0.23350  0.68314  0.48882  1.0000
  H   H688      1.0  0.47180  0.87989  0.52043  1.0000
  C   C675      1.0  0.06134  0.75027  0.64352  1.0000
  H   H689      1.0  0.02463  0.71105  0.55399  1.0000
  S   S223      1.0  0.09174  0.68788  0.60912  1.0000
  H   H690      1.0  0.42862  0.80415  0.65015  1.0000
  H   H691      1.0  0.01239  0.71475  0.68637  1.0000
  C   C676      1.0  0.07537  0.71091  0.51256  1.0000
  C   C677      1.0  0.13246  0.72299  0.52869  1.0000
  H   H692      1.0  0.03786  0.69488  0.53417  1.0000
  H   H693      1.0  0.43390  0.83330  0.64160  1.0000
  H   H694      1.0  0.46618  0.85626  0.56174  1.0000
  H   H695      1.0  0.32806  0.71986  0.54386  1.0000
  C   C678      1.0  0.38264  0.68505  0.50036  1.0000
  C   C679      1.0  0.03390  0.71523  0.65402  1.0000
  C   C680      1.0  0.47480  0.83113  0.63979  1.0000
  C   C681      1.0  0.07425  0.74078  0.63471  1.0000
  C   C682      1.0  0.12814  0.67886  0.56724  1.0000
  C   C683      1.0  0.46643  0.87700  0.64707  1.0000
  H   H696      1.0  0.49479  0.92383  0.66651  1.0000
  C   C684      1.0  0.03881  0.68271  0.64639  1.0000
  C   C685      1.0  0.03342  0.95019  0.72854  1.0000
  H   H697      1.0  0.48951  0.84930  0.52114  1.0000
  C   C686      1.0  0.33387  0.69145  0.53736  1.0000
  C   C687      1.0  0.44432  0.72820  0.49763  1.0000
  C   C688      1.0  0.48329  0.82254  0.66679  1.0000
  H   H698      1.0  0.14955  0.70918  0.56722  1.0000
  S   S224      1.0  0.02823  0.67633  0.68737  1.0000
  N   N61       1.0  0.50045  0.96650  0.59448  1.0000
  H   H699      1.0  0.03060  0.74470  0.65995  1.0000
  C   C689      1.0  0.43478  0.82082  0.65123  1.0000
  H   H700      1.0  0.09785  0.74648  0.51779  1.0000
  H   H701      1.0  0.09365  0.71658  0.50761  1.0000
  C   C690      1.0  0.40257  0.82415  0.71335  1.0000
  C   C691      1.0  0.31359  0.74810  0.49349  1.0000
  H   H702      1.0  0.17705  0.71236  0.54389  1.0000
  C   C692      1.0  0.29052  0.74339  0.49643  1.0000
  N   N62       1.0  0.04650  0.70611  0.64521  1.0000
  S   S225      1.0  0.46419  0.83462  0.70171  1.0000
  H   H703      1.0  0.08551  0.76257  0.53780  1.0000
  C   C693      1.0  0.15876  0.68228  0.54138  1.0000
  H   H704      1.0  0.34958  0.69295  0.53998  1.0000
  Fe  Fe115     1.0  0.40120  0.77497  0.49784  1.0000
  Fe  Fe116     1.0  0.06858  0.68041  0.59571  1.0000
  Fe  Fe117     1.0  0.49337  0.89155  0.59474  1.0000
  C   C694      1.0  0.10341  0.68924  0.53433  1.0000
  H   H705      1.0  0.37354  0.78171  0.71896  1.0000
  C   C695      1.0  0.13429  0.69996  0.51242  1.0000
  Fe  Fe118     1.0  0.46351  0.86422  0.68503  1.0000
  S   S226      1.0  0.43627  0.85895  0.67428  1.0000
  C   C696      1.0  0.32425  0.75503  0.50336  1.0000
  N   N63       1.0  0.45760  0.82421  0.65229  1.0000
  C   C697      1.0  0.47690  0.81140  0.55242  1.0000
  H   H706      1.0  0.14226  0.69703  0.50239  1.0000
  Fe  Fe119     1.0  0.50050  0.89451  0.69114  1.0000
  H   H707      1.0  0.41726  0.85909  0.70385  1.0000
  H   H708      1.0  0.44848  0.73583  0.50582  1.0000
  C   C698      1.0  0.04072  0.71888  0.54606  1.0000
  C   C699      1.0  0.47926  0.82924  0.55846  1.0000
  H   H709      1.0  0.06678  0.76762  0.64263  1.0000
  S   S227      1.0  0.50030  0.87534  0.67478  1.0000
  C   C700      1.0  0.27199  0.68533  0.52764  1.0000
  S   S228      1.0  0.50094  0.85921  0.60131  1.0000
  C   C701      1.0  0.07485  0.74786  0.53696  1.0000
  H   H710      1.0  0.01796  0.70548  0.66146  1.0000
  S   S229      1.0  0.46208  0.89804  0.60580  1.0000
  H   H711      1.0  0.10414  0.71133  0.54775  1.0000
  S   S230      1.0  0.38858  0.79825  0.50929  1.0000
  S   S231      1.0  0.42472  0.76961  0.51155  1.0000
  H   H712      1.0  0.48795  0.80094  0.55333  1.0000
  C   C702      1.0  0.14358  0.71870  0.51605  1.0000
  C   C703      1.0  0.11248  0.70812  0.53792  1.0000
  N   N64       1.0  0.29355  0.68775  0.53075  1.0000
  H   H713      1.0  0.47909  0.87412  0.65231  1.0000
  H   H714      1.0  0.03446  0.73567  0.62450  1.0000
  C   C704      1.0  0.48707  0.88094  0.52362  1.0000
  S   S232      1.0  0.37382  0.74576  0.51204  1.0000
  C   C705      1.0  0.02200  0.73555  0.61873  1.0000
  H   H715      1.0  0.49447  0.94841  0.64317  1.0000
  C   C706      1.0  0.32174  0.70648  0.53965  1.0000
  C   C707      1.0  0.02847  0.92762  0.73002  1.0000
  C   C708      1.0  0.11425  0.68530  0.52151  1.0000
  C   C709      1.0  0.38581  0.78477  0.72518  1.0000
  C   C710      1.0  0.06656  0.71852  0.63574  1.0000
  C   C711      1.0  0.44432  0.87177  0.65539  1.0000
  C   C712      1.0  0.46157  0.81964  0.66569  1.0000
  C   C713      1.0  0.14698  0.69671  0.56156  1.0000
  C   C714      1.0  0.05415  0.73793  0.54715  1.0000
  H   H716      1.0  0.02355  0.92174  0.72136  1.0000
  H   H717      1.0  0.47657  0.94050  0.61191  1.0000
  H   H718      1.0  0.08719  0.68040  0.63996  1.0000
  Fe  Fe120     1.0  0.20563  0.67705  0.50881  1.0000
  C   C715      1.0  0.04110  0.73741  0.65331  1.0000
  H   H719      1.0  0.48909  0.88871  0.62533  1.0000
  H   H720      1.0  0.06716  0.71603  0.50398  1.0000
  C   C716      1.0  0.49638  0.89901  0.52788  1.0000
  H   H721      1.0  0.17082  0.68375  0.53128  1.0000
  H   H722      1.0  0.38272  0.69228  0.48922  1.0000
  C   C717      1.0  0.39976  0.85098  0.72666  1.0000
  H   H723      1.0  0.48858  0.91234  0.52783  1.0000
  H   H724      1.0  0.48646  0.81896  0.67740  1.0000
  H   H725      1.0  0.40138  0.78124  0.71995  1.0000
  C   C718      1.0  0.44194  0.70569  0.49976  1.0000
  H   H726      1.0  0.02046  0.67727  0.64912  1.0000
  S   S233      1.0  0.18109  0.68320  0.49640  1.0000
  H   H727      1.0  0.04023  0.68261  0.71777  1.0000
  C   C719      1.0  0.49707  0.86376  0.52395  1.0000
  S   S234      1.0  0.01185  0.71928  0.58282  1.0000
  S   S235      1.0  0.50093  0.89373  0.57094  1.0000
  H   H728      1.0  0.07095  0.69263  0.51641  1.0000
  N   N65       1.0  0.43579  0.69571  0.48981  1.0000
  C   C720      1.0  0.00893  0.72898  0.59828  1.0000
  C   C721      1.0  0.30524  0.67280  0.52862  1.0000
  H   H729      1.0  0.04417  0.67287  0.65518  1.0000
  C   C722      1.0  0.49673  0.83449  0.64050  1.0000
  C   C723      1.0  0.00528  0.00222  0.72592  1.0000
  H   H730      1.0  0.27232  0.67998  0.51760  1.0000
  H   H731      1.0  0.04561  0.67925  0.63591  1.0000
  S   S236      1.0  0.03226  0.67453  0.60574  1.0000
  C   C724      1.0  0.32557  0.67442  0.53187  1.0000
  C   C725      1.0  0.43332  0.67206  0.49233  1.0000
  H   H732      1.0  0.11604  0.67737  0.57736  1.0000
  H   H733      1.0  0.25895  0.67290  0.53697  1.0000
  S   S237      1.0  0.07813  0.67061  0.54516  1.0000
  Fe  Fe121     1.0  0.06281  0.67427  0.56712  1.0000
  H   H734      1.0  0.37917  0.77291  0.73633  1.0000
  H   H735      1.0  0.10712  0.67089  0.51856  1.0000
  C   C726      1.0  0.50097  0.83031  0.65410  1.0000
  Fe  Fe122     1.0  0.50108  0.84784  0.69298  1.0000
  C   C727      1.0  0.02215  0.74758  0.93487  1.0000
  S   S238      1.0  0.04065  0.74403  0.94536  1.0000
  H   H736      1.0  0.30748  0.69196  0.85928  1.0000
  C   C728      1.0  0.40459  0.77533  0.75909  1.0000
  H   H737      1.0  0.29384  0.77018  0.87447  1.0000
  S   S239      1.0  0.44600  0.84702  0.73966  1.0000
  C   C729      1.0  0.39446  0.67738  0.91798  1.0000
  C   C730      1.0  0.43122  0.81908  0.74761  1.0000
  H   H738      1.0  0.32912  0.71237  0.93965  1.0000
  C   C731      1.0  0.01518  0.76316  0.91189  1.0000
  N   N66       1.0  0.48574  0.79283  0.92554  1.0000
  C   C732      1.0  0.29621  0.67552  0.86363  1.0000
  S   S240      1.0  0.48534  0.83972  0.96571  1.0000
  S   S241      1.0  0.00756  0.93870  0.79193  1.0000
  C   C733      1.0  0.35392  0.67511  0.84530  1.0000
  C   C734      1.0  0.38210  0.81239  0.73841  1.0000
  H   H739      1.0  0.45382  0.77098  0.93026  1.0000
  S   S242      1.0  0.15946  0.71459  0.90593  1.0000
  H   H740      1.0  0.03430  0.76197  0.97653  1.0000
  H   H741      1.0  0.01217  0.99053  0.79652  1.0000
  H   H742      1.0  0.01952  0.87941  0.75499  1.0000
  H   H743      1.0  0.40486  0.70101  0.86713  1.0000
  Fe  Fe123     1.0  0.30825  0.72366  0.79559  1.0000
  S   S243      1.0  0.30741  0.70466  0.81788  1.0000
  S   S244      1.0  0.27484  0.72484  0.79211  1.0000
  Fe  Fe124     1.0  0.35838  0.73481  0.78524  1.0000
  S   S245      1.0  0.36153  0.71567  0.80671  1.0000
  Fe  Fe125     1.0  0.33217  0.69020  0.80649  1.0000
  H   H744      1.0  0.01104  0.88453  0.73872  1.0000
  Fe  Fe126     1.0  0.33656  0.73159  0.81651  1.0000
  S   S246      1.0  0.33328  0.73898  0.83823  1.0000
  S   S247      1.0  0.33128  0.70755  0.78414  1.0000
  S   S248      1.0  0.33509  0.75258  0.79512  1.0000
  S   S249      1.0  0.21176  0.71839  0.87547  1.0000
  Fe  Fe127     1.0  0.23367  0.70201  0.88653  1.0000
  S   S250      1.0  0.27037  0.71757  0.88220  1.0000
  Fe  Fe128     1.0  0.36311  0.75634  0.91597  1.0000
  S   S251      1.0  0.37602  0.73515  0.90303  1.0000
  S   S252      1.0  0.32585  0.75252  0.92227  1.0000
  Fe  Fe129     1.0  0.41018  0.78041  0.91653  1.0000
  S   S253      1.0  0.42584  0.76051  0.90312  1.0000
  S   S254      1.0  0.43300  0.80952  0.92108  1.0000
  Fe  Fe130     1.0  0.40223  0.76573  0.88952  1.0000
  S   S255      1.0  0.41108  0.77247  0.86486  1.0000
  Fe  Fe131     1.0  0.39781  0.73154  0.91767  1.0000
  S   S256      1.0  0.40200  0.69789  0.92656  1.0000
  S   S257      1.0  0.38835  0.78769  0.90160  1.0000
  S   S258      1.0  0.38332  0.75070  0.93203  1.0000
  C   C735      1.0  0.28321  0.72298  0.89572  1.0000
  C   C736      1.0  0.30483  0.72104  0.89421  1.0000
  C   C737      1.0  0.31773  0.72949  0.90254  1.0000
  C   C738      1.0  0.30903  0.73956  0.91280  1.0000
  C   C739      1.0  0.28672  0.73998  0.91518  1.0000
  C   C740      1.0  0.27386  0.73190  0.90655  1.0000
  H   H745      1.0  0.31187  0.71338  0.88629  1.0000
  H   H746      1.0  0.33449  0.72840  0.90079  1.0000
  H   H747      1.0  0.27961  0.74738  0.92328  1.0000
  H   H748      1.0  0.25711  0.73341  0.90787  1.0000
  C   C741      1.0  0.40117  0.79075  0.76668  1.0000
  H   H749      1.0  0.38802  0.78596  0.77677  1.0000
  H   H750      1.0  0.41171  0.82462  0.76670  1.0000
  C   C742      1.0  0.38989  0.76235  0.85734  1.0000
  C   C743      1.0  0.39469  0.76367  0.84237  1.0000
  C   C744      1.0  0.37770  0.75608  0.83625  1.0000
  C   C745      1.0  0.35582  0.74737  0.84509  1.0000
  C   C746      1.0  0.35122  0.74587  0.85998  1.0000
  C   C747      1.0  0.36807  0.75326  0.86611  1.0000
  H   H751      1.0  0.41157  0.77079  0.83548  1.0000
  H   H752      1.0  0.38147  0.75747  0.82468  1.0000
  H   H753      1.0  0.33431  0.73969  0.86670  1.0000
  H   H754      1.0  0.36398  0.75266  0.87751  1.0000
  H   H755      1.0  0.12137  0.72290  0.92300  1.0000
  C   C748      1.0  0.26268  0.68057  0.76928  1.0000
  H   H756      1.0  0.30024  0.69166  0.93087  1.0000
  C   C749      1.0  0.31262  0.68414  0.93422  1.0000
  H   H757      1.0  0.45951  0.90982  0.95279  1.0000
  H   H758      1.0  0.11923  0.72617  0.88684  1.0000
  H   H759      1.0  0.25735  0.75957  0.80321  1.0000
  H   H760      1.0  0.44961  0.86929  0.95691  1.0000
  C   C750      1.0  0.43506  0.80338  0.74040  1.0000
  H   H761      1.0  0.49173  0.98117  0.97608  1.0000
  C   C751      1.0  0.38684  0.83411  0.73911  1.0000
  C   C752      1.0  0.49623  0.81327  0.91600  1.0000
  C   C753      1.0  0.13591  0.69673  0.91955  1.0000
  N   N67       1.0  0.37840  0.68790  0.85883  1.0000
  H   H762      1.0  0.34572  0.67862  0.83678  1.0000
  C   C754      1.0  0.18817  0.67815  0.83685  1.0000
  C   C755      1.0  0.27359  0.69496  0.77587  1.0000
  C   C756      1.0  0.26186  0.70657  0.78366  1.0000
  C   C757      1.0  0.23917  0.70351  0.78491  1.0000
  C   C758      1.0  0.34453  0.68591  0.94354  1.0000
  C   C759      1.0  0.45593  0.89882  0.96369  1.0000
  H   H763      1.0  0.29111  0.69736  0.77466  1.0000
  H   H764      1.0  0.23008  0.71272  0.79068  1.0000
  H   H765      1.0  0.28738  0.79122  0.80255  1.0000
  C   C760      1.0  0.47000  0.83224  0.95340  1.0000
  C   C761      1.0  0.47236  0.84641  0.93966  1.0000
  C   C762      1.0  0.46051  0.83934  0.93018  1.0000
  C   C763      1.0  0.44617  0.81796  0.93413  1.0000
  C   C764      1.0  0.44353  0.80393  0.94797  1.0000
  C   C765      1.0  0.45528  0.81105  0.95749  1.0000
  C   C766      1.0  0.28638  0.75473  0.83391  1.0000
  H   H766      1.0  0.46275  0.85044  0.91955  1.0000
  H   H767      1.0  0.43252  0.78752  0.95133  1.0000
  H   H768      1.0  0.45312  0.79988  0.96808  1.0000
  C   C767      1.0  0.44645  0.86218  0.97998  1.0000
  C   C768      1.0  0.28238  0.77622  0.81150  1.0000
  C   C769      1.0  0.25967  0.73903  0.82320  1.0000
  C   C770      1.0  0.02490  0.88965  0.74339  1.0000
  H   H769      1.0  0.02367  0.97258  0.84858  1.0000
  H   H770      1.0  0.20494  0.69556  0.81426  1.0000
  C   C771      1.0  0.02374  0.98840  0.85043  1.0000
  C   C772      1.0  0.26421  0.71675  0.84571  1.0000
  C   C773      1.0  0.10162  0.68518  0.97826  1.0000
  H   H771      1.0  0.46638  0.78451  0.91130  1.0000
  H   H772      1.0  0.21062  0.68640  0.77977  1.0000
  H   H773      1.0  0.24683  0.72524  0.82318  1.0000
  S   S259      1.0  0.20815  0.69339  0.84323  1.0000
  C   C774      1.0  0.41458  0.81260  0.76097  1.0000
  H   H774      1.0  0.04721  0.77016  0.91600  1.0000
  H   H775      1.0  0.04256  0.97534  0.73889  1.0000
  H   H776      1.0  0.04430  0.94877  0.76117  1.0000
  C   C775      1.0  0.22813  0.68864  0.77871  1.0000
  S   S260      1.0  0.05177  0.69273  0.96969  1.0000
  C   C776      1.0  0.02982  0.76142  0.92054  1.0000
  H   H777      1.0  0.01215  0.82555  0.87655  1.0000
  H   H778      1.0  0.25235  0.71816  0.85533  1.0000
  S   S261      1.0  0.38688  0.74851  0.76462  1.0000
  H   H779      1.0  0.13920  0.69947  0.88005  1.0000
  H   H780      1.0  0.36422  0.79907  0.85704  1.0000
  C   C777      1.0  0.09064  0.70105  0.90171  1.0000
  C   C778      1.0  0.11917  0.70531  0.92596  1.0000
  H   H781      1.0  0.03612  0.90916  0.76306  1.0000
  H   H782      1.0  0.08195  0.71260  0.90497  1.0000
  H   H783      1.0  0.36953  0.70908  0.84225  1.0000
  H   H784      1.0  0.29495  0.78243  0.89650  1.0000
  C   C779      1.0  0.39189  0.70608  0.86232  1.0000
  C   C780      1.0  0.32878  0.69576  0.93919  1.0000
  H   H785      1.0  0.38124  0.83773  0.74937  1.0000
  Fe  Fe132     1.0  0.03075  0.70840  0.95749  1.0000
  H   H786      1.0  0.27900  0.71347  0.84898  1.0000
  C   C781      1.0  0.12275  0.69365  0.88772  1.0000
  C   C782      1.0  0.04047  0.94306  0.75216  1.0000
  H   H787      1.0  0.48121  0.77094  0.94649  1.0000
  C   C783      1.0  0.08152  0.67842  0.90821  1.0000
  H   H788      1.0  0.02128  0.77317  0.90062  1.0000
  N   N68       1.0  0.27041  0.73720  0.83386  1.0000
  C   C784      1.0  0.29286  0.77439  0.82263  1.0000
  C   C785      1.0  0.03566  0.92061  0.75321  1.0000
  H   H789      1.0  0.34507  0.80136  0.90614  1.0000
  S   S262      1.0  0.20691  0.68465  0.90754  1.0000
  H   H790      1.0  0.49263  0.81809  0.90559  1.0000
  H   H791      1.0  0.02112  0.81466  0.89240  1.0000
  C   C786      1.0  0.32885  0.78448  0.86406  1.0000
  H   H792      1.0  0.46173  0.92496  0.97359  1.0000
  Fe  Fe133     1.0  0.20393  0.68867  0.86745  1.0000
  H   H793      1.0  0.47657  0.76280  0.92030  1.0000
  H   H794      1.0  0.36835  0.68902  0.91094  1.0000
  H   H795      1.0  0.40059  0.72009  0.85236  1.0000
  C   C787      1.0  0.34913  0.80166  0.87841  1.0000
  C   C788      1.0  0.23990  0.67730  0.77072  1.0000
  C   C789      1.0  0.46997  0.77697  0.92163  1.0000
  C   C790      1.0  0.00653  0.81648  0.88840  1.0000
  H   H796      1.0  0.37245  0.79932  0.74824  1.0000
  C   C791      1.0  0.42182  0.78163  0.74611  1.0000
  Fe  Fe134     1.0  0.18429  0.69853  0.89574  1.0000
  C   C792      1.0  0.30939  0.77951  0.87531  1.0000
  S   S263      1.0  0.02601  0.68371  0.94498  1.0000
  H   H797      1.0  0.36482  0.81002  0.87960  1.0000
  H   H798      1.0  0.08612  0.69795  0.94024  1.0000
  H   H799      1.0  0.33120  0.82193  0.90006  1.0000
  H   H800      1.0  0.38119  0.71194  0.87033  1.0000
  C   C793      1.0  0.34887  0.79565  0.86558  1.0000
  N   N69       1.0  0.32993  0.79689  0.88935  1.0000
  C   C794      1.0  0.36757  0.69227  0.84836  1.0000
  H   H801      1.0  0.32854  0.77916  0.85434  1.0000
  C   C795      1.0  0.11149  0.70866  0.89151  1.0000
  H   H802      1.0  0.44280  0.84452  0.98175  1.0000
  C   C796      1.0  0.26548  0.75855  0.81188  1.0000
  H   H803      1.0  0.31566  0.79468  0.91175  1.0000
  H   H804      1.0  0.25632  0.70246  0.84242  1.0000
  C   C797      1.0  0.31018  0.78622  0.88785  1.0000
  H   H805      1.0  0.48356  0.86274  0.93624  1.0000
  C   C798      1.0  0.37722  0.67659  0.91125  1.0000
  H   H806      1.0  0.29437  0.75340  0.84264  1.0000
  H   H807      1.0  0.30605  0.78799  0.82246  1.0000
  C   C799      1.0  0.09922  0.69120  0.93574  1.0000
  H   H808      1.0  0.35745  0.69492  0.94716  1.0000
  C   C800      1.0  0.33047  0.80420  0.90242  1.0000
  S   S264      1.0  0.17458  0.67011  0.88678  1.0000
  H   H809      1.0  0.42480  0.76966  0.74035  1.0000
  H   H810      1.0  0.11604  0.69644  0.96987  1.0000
  S   S265      1.0  0.00470  0.93208  0.83439  1.0000
  C   C801      1.0  0.48981  0.78700  0.93885  1.0000
  H   H811      1.0  0.03775  0.98517  0.81050  1.0000
  N   N70       1.0  0.02949  0.91315  0.74229  1.0000
  H   H812      1.0  0.05596  0.99370  0.85451  1.0000
  C   C802      1.0  0.13302  0.67399  0.92346  1.0000
  H   H813      1.0  0.28564  0.67835  0.88549  1.0000
  H   H814      1.0  0.23857  0.68366  0.81450  1.0000
  C   C803      1.0  0.03936  0.95791  0.73973  1.0000
  C   C804      1.0  0.45718  0.90727  0.97552  1.0000
  C   C805      1.0  0.01875  0.76622  0.97948  1.0000
  C   C806      1.0  0.00212  0.76014  0.97291  1.0000
  C   C807      1.0  0.45042  0.87612  0.96599  1.0000
  S   S266      1.0  0.22781  0.67372  0.87700  1.0000
  H   H815      1.0  0.00986  0.85957  0.88172  1.0000
  C   C808      1.0  0.03958  0.00180  0.81134  1.0000
  H   H816      1.0  0.06682  0.00129  0.82097  1.0000
  H   H817      1.0  0.07474  0.67201  0.75558  1.0000
  H   H818      1.0  0.00507  0.75114  0.96497  1.0000
  H   H819      1.0  0.27193  0.67193  0.76306  1.0000
  C   C809      1.0  0.00619  0.99757  0.84882  1.0000
  C   C810      1.0  0.19117  0.68240  0.82172  1.0000
  C   C811      1.0  0.04191  0.00028  0.85388  1.0000
  H   H820      1.0  0.17898  0.67308  0.80447  1.0000
  H   H821      1.0  0.06563  0.67266  0.91649  1.0000
  H   H822      1.0  0.03988  0.88597  0.73747  1.0000
  H   H823      1.0  0.26252  0.67442  0.81655  1.0000
  Fe  Fe135     1.0  0.01939  0.67401  0.98633  1.0000
  C   C812      1.0  0.11312  0.67115  0.89439  1.0000
  Fe  Fe136     1.0  0.63540  0.23815  0.18991  1.0000
  S   S267      1.0  0.66197  0.26853  0.17509  1.0000
  S   S268      1.0  0.64027  0.21047  0.20652  1.0000
  Fe  Fe137     1.0  0.59927  0.25041  0.17762  1.0000
  S   S269      1.0  0.62166  0.28190  0.16212  1.0000
  S   S270      1.0  0.56421  0.23548  0.17833  1.0000
  Fe  Fe138     1.0  0.64592  0.26243  0.15764  1.0000
  S   S271      1.0  0.66231  0.27152  0.13358  1.0000
  Fe  Fe139     1.0  0.63606  0.28605  0.18054  1.0000
  S   S272      1.0  0.64191  0.32043  0.18269  1.0000
  S   S273      1.0  0.62233  0.23037  0.17170  1.0000
  S   S274      1.0  0.61072  0.25637  0.19677  1.0000
  H   H824      1.0  0.58060  0.19135  0.18701  1.0000
  C   C813      1.0  0.50977  0.25043  0.06968  1.0000
  H   H825      1.0  0.63986  0.07597  0.05035  1.0000
  H   H826      1.0  0.52085  0.30509  0.14944  1.0000
  Fe  Fe140     1.0  0.62100  0.20741  0.08564  1.0000
  S   S275      1.0  0.64297  0.21962  0.06261  1.0000
  S   S276      1.0  0.63116  0.19564  0.10598  1.0000
  Fe  Fe141     1.0  0.58033  0.21348  0.07643  1.0000
  S   S277      1.0  0.59858  0.22601  0.05249  1.0000
  S   S278      1.0  0.54626  0.21440  0.08771  1.0000
  Fe  Fe142     1.0  0.61492  0.19856  0.05721  1.0000
  S   S279      1.0  0.62594  0.17813  0.04223  1.0000
  Fe  Fe143     1.0  0.62484  0.24571  0.05983  1.0000
  S   S280      1.0  0.63853  0.28186  0.04775  1.0000
  S   S281      1.0  0.59435  0.18444  0.08067  1.0000
  S   S282      1.0  0.60529  0.23521  0.08328  1.0000
  N   N71       1.0  0.90038  0.06405  0.12214  1.0000
  C   C814      1.0  0.69035  0.27368  0.03502  1.0000
  C   C815      1.0  0.65990  0.00387  0.02853  1.0000
  Fe  Fe144     1.0  0.52037  0.33471  0.16979  1.0000
  C   C816      1.0  0.56073  0.14340  0.21436  1.0000
  H   H827      1.0  0.68121  0.30752  0.18851  1.0000
  H   H828      1.0  0.51724  0.22768  0.18505  1.0000
  H   H829      1.0  0.66051  0.27850  0.02002  1.0000
  Fe  Fe145     1.0  0.97316  0.04676  0.13444  1.0000
  Fe  Fe146     1.0  0.62027  0.07171  0.99190  1.0000
  S   S283      1.0  0.93594  0.03647  0.13974  1.0000
  Fe  Fe147     1.0  0.58119  0.08282  0.00984  1.0000
  S   S284      1.0  0.61027  0.07253  0.01519  1.0000
  S   S285      1.0  0.56772  0.10743  0.02001  1.0000
  H   H830      1.0  0.92897  0.07970  0.12763  1.0000
  C   C817      1.0  0.50256  0.28416  0.13946  1.0000
  C   C818      1.0  0.98893  0.06798  0.23507  1.0000
  Fe  Fe148     1.0  0.58976  0.03816  0.01929  1.0000
  H   H831      1.0  0.63506  0.16339  0.20367  1.0000
  H   H832      1.0  0.54403  0.06104  0.06497  1.0000
  S   S286      1.0  0.55951  0.04806  0.01587  1.0000
  C   C819      1.0  0.65645  0.22638  0.01810  1.0000
  C   C820      1.0  0.63365  0.02475  0.02429  1.0000
  C   C821      1.0  0.51070  0.25934  0.18291  1.0000
  H   H833      1.0  0.68828  0.33118  0.15912  1.0000
  C   C822      1.0  0.62249  0.07509  0.05145  1.0000
  H   H834      1.0  0.67998  0.30005  0.08218  1.0000
  H   H835      1.0  0.63040  0.03925  0.01833  1.0000
  H   H836      1.0  0.92335  0.01030  0.17264  1.0000
  S   S287      1.0  0.99743  0.04074  0.11665  1.0000
  S   S288      1.0  0.58917  0.00996  0.03761  1.0000
  H   H837      1.0  0.60690  0.30310  0.06759  1.0000
  C   C823      1.0  0.93613  0.02666  0.11364  1.0000
  C   C824      1.0  0.92422  0.02378  0.12806  1.0000
  C   C825      1.0  0.67622  0.32904  0.06813  1.0000
  N   N72       1.0  0.57821  0.07314  0.05341  1.0000
  H   H838      1.0  0.98111  0.11347  0.18023  1.0000
  H   H839      1.0  0.95328  0.03621  0.10954  1.0000
  C   C826      1.0  0.58717  0.30186  0.20729  1.0000
  C   C827      1.0  0.58567  0.05501  0.05276  1.0000
  C   C828      1.0  0.60930  0.15882  0.03605  1.0000
  C   C829      1.0  0.58625  0.15493  0.03935  1.0000
  C   C830      1.0  0.57379  0.13946  0.03411  1.0000
  C   C831      1.0  0.58419  0.12761  0.02565  1.0000
  C   C832      1.0  0.60724  0.13148  0.02238  1.0000
  C   C833      1.0  0.61969  0.14705  0.02752  1.0000
  H   H840      1.0  0.57803  0.16391  0.04584  1.0000
  H   H841      1.0  0.55598  0.13662  0.03666  1.0000
  H   H842      1.0  0.61548  0.12255  0.01585  1.0000
  H   H843      1.0  0.63752  0.14998  0.02485  1.0000
  H   H844      1.0  0.70842  0.27520  0.03238  1.0000
  H   H845      1.0  0.63746  0.31368  0.13123  1.0000
  C   C834      1.0  0.51931  0.23944  0.07967  1.0000
  C   C835      1.0  0.53356  0.22701  0.07532  1.0000
  C   C836      1.0  0.53781  0.22506  0.06109  1.0000
  C   C837      1.0  0.52767  0.23543  0.05124  1.0000
  Fe  Fe149     1.0  0.85341  0.03059  0.23162  1.0000
  S   S289      1.0  0.99382  0.08028  0.13247  1.0000
  H   H846      1.0  0.54853  0.21517  0.05777  1.0000
  H   H847      1.0  0.53083  0.23377  0.04027  1.0000
  C   C838      1.0  0.66097  0.29156  0.06760  1.0000
  C   C839      1.0  0.65262  0.29960  0.05602  1.0000
  N   N73       1.0  0.58473  0.32269  0.20351  1.0000
  H   H848      1.0  0.65862  0.27408  0.07181  1.0000
  H   H849      1.0  0.90190  0.06358  0.10020  1.0000
  C   C840      1.0  0.61630  0.19385  0.22049  1.0000
  H   H850      1.0  0.54511  0.16650  0.20403  1.0000
  Fe  Fe150     1.0  0.90373  0.03739  0.22275  1.0000
  C   C841      1.0  0.62043  0.33262  0.11876  1.0000
  C   C842      1.0  0.59541  0.19708  0.22054  1.0000
  H   H851      1.0  0.98140  0.08845  0.19275  1.0000
  C   C843      1.0  0.59858  0.32521  0.05088  1.0000
  H   H852      1.0  0.59387  0.21067  0.21248  1.0000
  C   C844      1.0  0.65441  0.25037  0.12581  1.0000
  C   C845      1.0  0.65229  0.25561  0.11157  1.0000
  C   C846      1.0  0.64544  0.23886  0.10534  1.0000
  C   C847      1.0  0.64105  0.21684  0.11324  1.0000
  C   C848      1.0  0.64374  0.21161  0.12735  1.0000
  C   C849      1.0  0.65014  0.22835  0.13370  1.0000
  H   H853      1.0  0.65575  0.27264  0.10541  1.0000
  H   H854      1.0  0.64383  0.24302  0.09437  1.0000
  H   H855      1.0  0.64068  0.19460  0.13341  1.0000
  H   H856      1.0  0.65225  0.22426  0.14457  1.0000
  C   C850      1.0  0.58094  0.13883  0.21493  1.0000
  C   C851      1.0  0.54903  0.28679  0.20831  1.0000
  C   C852      1.0  0.65594  0.32233  0.05060  1.0000
  H   H857      1.0  0.53520  0.27278  0.20992  1.0000
  C   C853      1.0  0.51390  0.24836  0.05548  1.0000
  C   C854      1.0  0.54749  0.25365  0.17856  1.0000
  C   C855      1.0  0.52447  0.24522  0.18233  1.0000
  C   C856      1.0  0.98168  0.10597  0.19149  1.0000
  C   C857      1.0  0.51991  0.28199  0.17946  1.0000
  C   C858      1.0  0.54298  0.29053  0.17538  1.0000
  C   C859      1.0  0.55678  0.27633  0.17509  1.0000
  H   H858      1.0  0.68876  0.31834  0.11790  1.0000
  H   H859      1.0  0.63405  0.17345  0.23109  1.0000
  H   H860      1.0  0.55023  0.30798  0.17292  1.0000
  H   H861      1.0  0.57454  0.28294  0.17226  1.0000
  H   H862      1.0  0.64975  0.32871  0.04154  1.0000
  C   C860      1.0  0.53579  0.31332  0.12619  1.0000
  C   C861      1.0  0.53404  0.30825  0.11327  1.0000
  C   C862      1.0  0.62154  0.14795  0.20655  1.0000
  H   H863      1.0  0.93482  0.01989  0.09316  1.0000
  H   H864      1.0  0.93466  0.07254  0.11092  1.0000
  N   N74       1.0  0.60048  0.15286  0.20572  1.0000
  H   H865      1.0  0.74384  0.06645  0.23532  1.0000
  C   C863      1.0  0.57043  0.28810  0.04885  1.0000
  C   C864      1.0  0.90325  0.00546  0.10946  1.0000
  H   H866      1.0  0.52030  0.30155  0.09067  1.0000
  N   N75       1.0  0.57201  0.30837  0.04005  1.0000
  C   C865      1.0  0.97474  0.05943  0.22743  1.0000
  C   C866      1.0  0.86639  0.04285  0.14044  1.0000
  H   H867      1.0  0.68811  0.29031  0.03092  1.0000
  C   C867      1.0  0.51586  0.28624  0.09981  1.0000
  N   N76       1.0  0.57443  0.20075  0.12495  1.0000
  C   C868      1.0  0.56437  0.21746  0.12332  1.0000
  C   C869      1.0  0.58784  0.19919  0.13402  1.0000
  C   C870      1.0  0.56783  0.23329  0.13081  1.0000
  C   C871      1.0  0.59167  0.21475  0.14165  1.0000
  C   C872      1.0  0.58157  0.23187  0.14004  1.0000
  C   C873      1.0  0.56959  0.18356  0.11775  1.0000
  H   H868      1.0  0.55361  0.21856  0.11618  1.0000
  H   H869      1.0  0.59597  0.18604  0.13520  1.0000
  H   H870      1.0  0.55983  0.24650  0.12954  1.0000
  H   H871      1.0  0.60258  0.21367  0.14866  1.0000
  H   H872      1.0  0.58437  0.24395  0.14600  1.0000
  H   H873      1.0  0.55528  0.16987  0.12508  1.0000
  H   H874      1.0  0.56558  0.19006  0.10741  1.0000
  H   H875      1.0  0.58415  0.17702  0.11484  1.0000
  H   H876      1.0  0.89486  0.06075  0.14497  1.0000
  H   H877      1.0  0.68452  0.30479  0.14454  1.0000
  C   C874      1.0  0.89189  0.05812  0.11151  1.0000
  S   S290      1.0  0.93950  0.05789  0.21594  1.0000
  S   S291      1.0  0.98590  0.02992  0.15204  1.0000
  C   C875      1.0  0.67201  0.22159  0.02540  1.0000
  H   H878      1.0  0.55504  0.32613  0.02719  1.0000
  C   C876      1.0  0.95383  0.06336  0.22879  1.0000
  H   H879      1.0  0.54614  0.31810  0.10304  1.0000
  H   H880      1.0  0.67458  0.20526  0.02747  1.0000
  H   H881      1.0  0.86392  0.03949  0.10664  1.0000
  C   C877      1.0  0.56059  0.16232  0.20420  1.0000
  S   S292      1.0  0.87951  0.04340  0.20974  1.0000
  N   N77       1.0  0.67925  0.25777  0.02861  1.0000
  H   H882      1.0  0.57124  0.26708  0.21282  1.0000
  C   C878      1.0  0.58616  0.32675  0.04077  1.0000
  C   C879      1.0  0.68146  0.32339  0.19032  1.0000
  H   H883      1.0  0.69482  0.23344  0.03674  1.0000
  H   H884      1.0  0.68314  0.26828  0.04709  1.0000
  H   H885      1.0  0.54386  0.29698  0.03282  1.0000
  C   C880      1.0  0.57623  0.18203  0.23063  1.0000
  C   C881      1.0  0.66408  0.26264  0.02140  1.0000
  C   C882      1.0  0.65540  0.02302  0.02154  1.0000
  Fe  Fe151     1.0  0.87374  0.00780  0.21036  1.0000
  C   C883      1.0  0.54683  0.30810  0.20419  1.0000
  H   H886      1.0  0.96393  0.03925  0.19605  1.0000
  H   H887      1.0  0.62609  0.13819  0.19897  1.0000
  H   H888      1.0  0.58090  0.12452  0.22324  1.0000
  C   C884      1.0  0.95474  0.02473  0.19405  1.0000
  C   C885      1.0  0.67303  0.30628  0.07348  1.0000
  C   C886      1.0  0.00136  0.11767  0.20841  1.0000
  C   C887      1.0  0.85757  0.03683  0.12965  1.0000
  H   H889      1.0  0.89270  0.00953  0.14424  1.0000
  C   C888      1.0  0.63186  0.32851  0.12924  1.0000
  C   C889      1.0  0.87038  0.04448  0.11509  1.0000
  N   N78       1.0  0.51689  0.29160  0.11345  1.0000
  C   C890      1.0  0.88794  0.05661  0.13647  1.0000
  C   C891      1.0  0.58272  0.28590  0.05900  1.0000
  H   H890      1.0  0.61602  0.18249  0.18841  1.0000
  H   H891      1.0  0.54542  0.13288  0.22226  1.0000
  C   C892      1.0  0.58054  0.17628  0.19464  1.0000
  H   H892      1.0  0.55177  0.08847  0.05259  1.0000
  S   S293      1.0  0.51506  0.31031  0.06130  1.0000
  C   C893      1.0  0.93222  0.00865  0.18091  1.0000
  H   H893      1.0  0.57452  0.04000  0.05270  1.0000
  H   H894      1.0  0.54895  0.32706  0.12591  1.0000
  Fe  Fe152     1.0  0.57373  0.04898  0.99250  1.0000
  H   H895      1.0  0.58173  0.26972  0.06575  1.0000
  H   H896      1.0  0.84097  0.02596  0.13261  1.0000
  C   C894      1.0  0.92282  0.07877  0.11795  1.0000
  C   C895      1.0  0.94346  0.04889  0.17568  1.0000
  C   C896      1.0  0.60047  0.17119  0.19550  1.0000
  C   C897      1.0  0.90198  0.01159  0.13316  1.0000
  H   H897      1.0  0.92308  0.09557  0.11192  1.0000
  C   C898      1.0  0.56931  0.28360  0.20985  1.0000
  H   H898      1.0  0.85675  0.03651  0.15184  1.0000
  H   H899      1.0  0.96039  0.05803  0.16857  1.0000
  H   H900      1.0  0.93198  0.04823  0.16868  1.0000
  H   H901      1.0  0.93802  0.05803  0.18353  1.0000
  H   H902      1.0  0.66867  0.03644  0.01380  1.0000
  S   S294      1.0  0.50228  0.29928  0.18045  1.0000
  H   H903      1.0  0.55982  0.27346  0.04793  1.0000
  H   H904      1.0  0.62582  0.10867  0.05204  1.0000
  C   C899      1.0  0.61464  0.09339  0.05241  1.0000
  H   H905      1.0  0.64001  0.25072  0.01069  1.0000
  C   C900      1.0  0.59683  0.30462  0.06003  1.0000
  H   H906      1.0  0.52739  0.27618  0.09722  1.0000
  C   C901      1.0  0.68331  0.23756  0.03064  1.0000
  H   H907      1.0  0.61747  0.32123  0.11238  1.0000
  H   H908      1.0  0.55037  0.06565  0.04531  1.0000
  C   C902      1.0  0.61793  0.17595  0.23098  1.0000
  C   C903      1.0  0.65243  0.24702  0.01607  1.0000
  S   S295      1.0  0.60229  0.03635  0.99651  1.0000
  H   H909      1.0  0.61381  0.04137  0.05095  1.0000
  C   C904      1.0  0.60789  0.05568  0.05178  1.0000
  H   H910      1.0  0.96638  0.10646  0.19926  1.0000
  H   H911      1.0  0.51576  0.24066  0.09074  1.0000
  H   H912      1.0  0.72267  0.03040  0.99732  1.0000
  H   H913      1.0  0.98016  0.05013  0.22015  1.0000
  H   H914      1.0  0.58636  0.10637  0.05423  1.0000
  C   C905      1.0  0.59226  0.09203  0.05356  1.0000
  N   N79       1.0  0.94345  0.02686  0.18370  1.0000
  H   H915      1.0  0.64708  0.21383  0.01442  1.0000
  C   C906      1.0  0.55491  0.07197  0.05422  1.0000
  C   C907      1.0  0.92563  0.01752  0.10434  1.0000
  C   C908      1.0  0.61645  0.00785  0.03464  1.0000
  H   H916      1.0  0.56009  0.18429  0.23032  1.0000
  H   H917      1.0  0.62046  0.13868  0.21787  1.0000
  S   S296      1.0  0.50292  0.26284  0.04274  1.0000
  H   H918      1.0  0.60306  0.29931  0.20821  1.0000
  H   H919      1.0  0.80867  0.00500  0.17735  1.0000
  C   C909      1.0  0.56504  0.32598  0.20172  1.0000
  C   C910      1.0  0.95408  0.00390  0.20245  1.0000
  H   H920      1.0  0.98614  0.11038  0.21720  1.0000
  H   H921      1.0  0.77395  0.04757  0.23206  1.0000
  C   C911      1.0  0.55960  0.31029  0.02912  1.0000
  C   C912      1.0  0.51993  0.30116  0.13935  1.0000
  H   H922      1.0  0.71311  0.32777  0.19521  1.0000
  H   H923      1.0  0.53127  0.31071  0.20258  1.0000
  C   C913      1.0  0.68809  0.32227  0.13931  1.0000
  C   C914      1.0  0.66411  0.33284  0.18857  1.0000
  H   H924      1.0  0.83530  0.00819  0.19234  1.0000
  H   H925      1.0  0.56975  0.30932  0.01864  1.0000
  C   C915      1.0  0.69048  0.32989  0.12435  1.0000
  C   C916      1.0  0.69946  0.33482  0.19418  1.0000
  C   C917      1.0  0.57215  0.16182  0.41445  1.0000
  Fe  Fe153     1.0  0.60431  0.19192  0.45280  1.0000
  Fe  Fe154     1.0  0.70289  0.04152  0.30632  1.0000
  S   S297      1.0  0.62257  0.18661  0.43187  1.0000
  Fe  Fe155     1.0  0.59128  0.22853  0.46497  1.0000
  S   S298      1.0  0.52270  0.16883  0.47430  1.0000
  S   S299      1.0  0.59082  0.26363  0.46318  1.0000
  C   C918      1.0  0.65496  0.28825  0.46147  1.0000
  C   C919      1.0  0.61642  0.30247  0.46399  1.0000
  C   C920      1.0  0.50967  0.18771  0.46642  1.0000
  H   H926      1.0  0.60240  0.31632  0.43035  1.0000
  S   S300      1.0  0.61993  0.21372  0.46479  1.0000
  S   S301      1.0  0.57811  0.20960  0.45075  1.0000
  Fe  Fe156     1.0  0.55722  0.06508  0.27064  1.0000
  S   S302      1.0  0.57110  0.06355  0.28970  1.0000
  S   S303      1.0  0.54719  0.03504  0.26337  1.0000
  Fe  Fe157     1.0  0.55902  0.11341  0.26572  1.0000
  S   S304      1.0  0.57218  0.11573  0.28490  1.0000
  S   S305      1.0  0.68075  0.32681  0.46223  1.0000
  Fe  Fe158     1.0  0.59415  0.09623  0.27638  1.0000
  S   S306      1.0  0.62923  0.10388  0.27718  1.0000
  Fe  Fe159     1.0  0.54773  0.08290  0.29648  1.0000
  H   H927      1.0  0.56845  0.28291  0.44034  1.0000
  S   S307      1.0  0.58286  0.09606  0.25629  1.0000
  S   S308      1.0  0.53201  0.08227  0.27824  1.0000
  Fe  Fe160     1.0  0.59729  0.05633  0.38072  1.0000
  S   S309      1.0  0.61422  0.08187  0.35920  1.0000
  Fe  Fe161     1.0  0.60104  0.08995  0.39818  1.0000
  S   S310      1.0  0.61885  0.11797  0.37806  1.0000
  S   S311      1.0  0.59127  0.09389  0.42093  1.0000
  Fe  Fe162     1.0  0.59373  0.10221  0.36835  1.0000
  S   S312      1.0  0.58001  0.12452  0.35402  1.0000
  Fe  Fe163     1.0  0.63764  0.09492  0.37096  1.0000
  S   S313      1.0  0.67434  0.10630  0.36085  1.0000
  S   S314      1.0  0.57423  0.07547  0.38890  1.0000
  S   S315      1.0  0.62228  0.06817  0.39201  1.0000
  H   H928      1.0  0.60013  0.14661  0.24870  1.0000
  H   H929      1.0  0.64374  0.26101  0.42500  1.0000
  H   H930      1.0  0.99435  0.04857  0.26726  1.0000
  C   C921      1.0  0.60365  0.05850  0.32649  1.0000
  C   C922      1.0  0.60489  0.02152  0.33700  1.0000
  S   S316      1.0  0.56001  0.32862  0.42846  1.0000
  H   H931      1.0  0.60369  0.25241  0.42702  1.0000
  C   C923      1.0  0.63642  0.31677  0.46350  1.0000
  S   S317      1.0  0.56887  0.20469  0.48585  1.0000
  S   S318      1.0  0.52931  0.06941  0.32026  1.0000
  C   C924      1.0  0.61517  0.04404  0.33195  1.0000
  H   H932      1.0  0.95559  0.09314  0.25332  1.0000
  S   S319      1.0  0.50781  0.28681  0.45877  1.0000
  C   C925      1.0  0.57684  0.27875  0.43049  1.0000
  H   H933      1.0  0.54677  0.15658  0.44994  1.0000
  C   C926      1.0  0.67255  0.01765  0.36040  1.0000
  C   C927      1.0  0.68536  0.09738  0.34588  1.0000
  C   C928      1.0  0.67290  0.08033  0.34200  1.0000
  C   C929      1.0  0.68289  0.07304  0.33034  1.0000
  C   C930      1.0  0.70511  0.08320  0.32242  1.0000
  C   C931      1.0  0.71720  0.10059  0.32609  1.0000
  C   C932      1.0  0.70744  0.10749  0.33786  1.0000
  H   H934      1.0  0.65591  0.07226  0.34827  1.0000
  H   H935      1.0  0.67356  0.05956  0.32753  1.0000
  H   H936      1.0  0.71712  0.12070  0.34078  1.0000
  S   S320      1.0  0.59104  0.02082  0.38073  1.0000
  C   C933      1.0  0.69019  0.05064  0.36539  1.0000
  C   C934      1.0  0.64599  0.29421  0.42610  1.0000
  C   C935      1.0  0.77019  0.02634  0.27317  1.0000
  H   H937      1.0  0.75931  0.03420  0.27887  1.0000
  H   H938      1.0  0.70428  0.06475  0.36300  1.0000
  H   H939      1.0  0.57307  0.06152  0.32190  1.0000
  Fe  Fe164     1.0  0.67822  0.01681  0.28939  1.0000
  C   C936      1.0  0.69116  0.03531  0.35748  1.0000
  C   C937      1.0  0.67058  0.04842  0.37586  1.0000
  C   C938      1.0  0.54184  0.08503  0.33015  1.0000
  H   H940      1.0  0.76547  0.00768  0.24354  1.0000
  C   C939      1.0  0.56144  0.12005  0.33194  1.0000
  C   C940      1.0  0.56474  0.10940  0.34511  1.0000
  C   C941      1.0  0.55638  0.08660  0.35088  1.0000
  C   C942      1.0  0.54450  0.07449  0.34356  1.0000
  C   C943      1.0  0.96092  0.08349  0.24623  1.0000
  H   H941      1.0  0.54740  0.02607  0.31971  1.0000
  H   H942      1.0  0.55879  0.07834  0.36110  1.0000
  H   H943      1.0  0.53782  0.05693  0.34817  1.0000
  C   C944      1.0  0.63972  0.08226  0.27370  1.0000
  C   C945      1.0  0.65895  0.07946  0.27741  1.0000
  C   C946      1.0  0.66612  0.06088  0.27608  1.0000
  C   C947      1.0  0.65419  0.04523  0.27092  1.0000
  C   C948      1.0  0.63569  0.04867  0.26638  1.0000
  C   C949      1.0  0.62827  0.06707  0.26797  1.0000
  H   H944      1.0  0.66795  0.09127  0.28172  1.0000
  H   H945      1.0  0.68073  0.05858  0.27928  1.0000
  C   C950      1.0  0.63431  0.30986  0.42753  1.0000
  H   H946      1.0  0.61356  0.06934  0.26490  1.0000
  C   C951      1.0  0.61561  0.16016  0.42939  1.0000
  C   C952      1.0  0.60099  0.14224  0.44062  1.0000
  C   C953      1.0  0.59435  0.12178  0.43803  1.0000
  C   C954      1.0  0.60219  0.11907  0.42418  1.0000
  C   C955      1.0  0.61739  0.13678  0.41306  1.0000
  C   C956      1.0  0.62406  0.15726  0.41566  1.0000
  H   H947      1.0  0.59455  0.14415  0.45127  1.0000
  H   H948      1.0  0.58275  0.10812  0.44673  1.0000
  H   H949      1.0  0.62392  0.13480  0.40243  1.0000
  H   H950      1.0  0.63559  0.17096  0.40696  1.0000
  C   C957      1.0  0.58190  0.05019  0.32620  1.0000
  H   H951      1.0  0.63688  0.02922  0.38638  1.0000
  N   N80       1.0  0.60082  0.28403  0.42862  1.0000
  C   C958      1.0  0.63495  0.27393  0.46214  1.0000
  C   C959      1.0  0.51999  0.21037  0.46165  1.0000
  H   H952      1.0  0.66944  0.06081  0.38162  1.0000
  H   H953      1.0  0.54789  0.11607  0.31412  1.0000
  C   C960      1.0  0.83654  0.03780  0.27658  1.0000
  H   H954      1.0  0.63467  0.25761  0.46141  1.0000
  C   C961      1.0  0.65571  0.30962  0.46230  1.0000
  H   H955      1.0  0.60161  0.30817  0.46470  1.0000
  H   H956      1.0  0.54381  0.32986  0.45818  1.0000
  C   C962      1.0  0.53284  0.01300  0.37026  1.0000
  N   N81       1.0  0.56402  0.14079  0.41409  1.0000
  H   H957      1.0  0.73435  0.10851  0.31995  1.0000
  H   H958      1.0  0.56762  0.13773  0.32757  1.0000
  N   N82       1.0  0.99098  0.01665  0.26454  1.0000
  C   C963      1.0  0.57030  0.13502  0.40038  1.0000
  Fe  Fe165     1.0  0.52295  0.31295  0.43723  1.0000
  S   S321      1.0  0.50324  0.29462  0.42518  1.0000
  N   N83       1.0  0.57188  0.02809  0.33123  1.0000
  C   C964      1.0  0.54954  0.12538  0.42629  1.0000
  C   C965      1.0  0.80334  0.02937  0.25416  1.0000
  N   N84       1.0  0.65356  0.01530  0.37096  1.0000
  H   H959      1.0  0.61281  0.00875  0.28769  1.0000
  H   H960      1.0  0.69789  0.00485  0.26154  1.0000
  H   H961      1.0  0.61148  0.07604  0.32253  1.0000
  Fe  Fe166     1.0  0.55825  0.18444  0.47177  1.0000
  H   H962      1.0  0.84413  0.03921  0.26493  1.0000
  C   C966      1.0  0.55204  0.02219  0.37377  1.0000
  C   C967      1.0  0.63494  0.27349  0.42578  1.0000
  C   C968      1.0  0.55034  0.10781  0.32432  1.0000
  C   C969      1.0  0.78865  0.03922  0.26145  1.0000
  C   C970      1.0  0.59872  0.16072  0.24095  1.0000
  Fe  Fe167     1.0  0.59676  0.18883  0.48513  1.0000
  H   H963      1.0  0.63685  0.33334  0.46393  1.0000
  C   C971      1.0  0.61160  0.30444  0.42876  1.0000
  S   S322      1.0  0.66685  0.02797  0.30909  1.0000
  C   C972      1.0  0.53020  0.01113  0.27692  1.0000
  H   H964      1.0  0.53866  0.02068  0.29513  1.0000
  H   H965      1.0  0.55974  0.13978  0.39329  1.0000
  H   H966      1.0  0.53633  0.21652  0.46270  1.0000
  C   C973      1.0  0.80448  0.01063  0.29508  1.0000
  C   C974      1.0  0.55132  0.15224  0.43981  1.0000
  H   H967      1.0  0.55492  0.03858  0.37504  1.0000
  H   H968      1.0  0.70548  0.04469  0.25005  1.0000
  H   H969      1.0  0.54352  0.10857  0.42611  1.0000
  H   H970      1.0  0.66344  0.29796  0.42567  1.0000
  H   H971      1.0  0.70603  0.03744  0.34887  1.0000
  H   H972      1.0  0.58107  0.01016  0.27697  1.0000
  H   H973      1.0  0.84982  0.04353  0.28152  1.0000
  S   S323      1.0  0.87831  0.02812  0.24440  1.0000
  H   H974      1.0  0.67760  0.28355  0.48504  1.0000
  H   H975      1.0  0.53195  0.11853  0.44909  1.0000
  H   H976      1.0  0.64255  0.32579  0.42826  1.0000
  S   S324      1.0  0.66092  0.02028  0.27188  1.0000
  S   S325      1.0  0.00084  0.09408  0.25258  1.0000
  S   S326      1.0  0.70689  0.01092  0.32036  1.0000
  C   C975      1.0  0.58307  0.01377  0.33661  1.0000
  H   H977      1.0  0.66985  0.28269  0.46040  1.0000
  N   N85       1.0  0.62950  0.13188  0.31104  1.0000
  C   C976      1.0  0.62552  0.13896  0.32327  1.0000
  C   C977      1.0  0.64793  0.12469  0.30709  1.0000
  C   C978      1.0  0.64036  0.13932  0.33179  1.0000
  C   C979      1.0  0.66323  0.12496  0.31533  1.0000
  C   C980      1.0  0.65944  0.13254  0.32768  1.0000
  C   C981      1.0  0.61362  0.13121  0.30233  1.0000
  H   H978      1.0  0.61082  0.14443  0.32650  1.0000
  H   H979      1.0  0.65096  0.11886  0.29747  1.0000
  H   H980      1.0  0.63700  0.14477  0.34157  1.0000
  H   H981      1.0  0.67792  0.11937  0.31218  1.0000
  H   H982      1.0  0.67126  0.13318  0.33407  1.0000
  H   H983      1.0  0.60437  0.11392  0.30412  1.0000
  H   H984      1.0  0.60144  0.14056  0.30520  1.0000
  H   H985      1.0  0.62241  0.13855  0.29049  1.0000
  H   H986      1.0  0.93077  0.07846  0.23949  1.0000
  H   H987      1.0  0.57321  0.18427  0.42772  1.0000
  H   H988      1.0  0.62661  0.03674  0.26220  1.0000
  S   S327      1.0  0.58357  0.16545  0.47323  1.0000
  C   C982      1.0  0.56601  0.16783  0.42731  1.0000
  C   C983      1.0  0.61222  0.26868  0.42697  1.0000
  C   C984      1.0  0.50876  0.22521  0.45597  1.0000
  H   H989      1.0  0.58799  0.14338  0.39440  1.0000
  C   C985      1.0  0.57779  0.16349  0.24059  1.0000
  C   C986      1.0  0.71878  0.03671  0.24846  1.0000
  H   H990      1.0  0.52091  0.02235  0.36890  1.0000
  C   C987      1.0  0.61565  0.28097  0.46335  1.0000
  C   C988      1.0  0.54300  0.13086  0.43933  1.0000
  H   H991      1.0  0.79157  0.05690  0.25803  1.0000
  H   H992      1.0  0.51655  0.24271  0.45253  1.0000
  H   H993      1.0  0.53768  0.02598  0.33847  1.0000
  H   H994      1.0  0.58400  0.17392  0.40490  1.0000
  C   C989      1.0  0.65224  0.03063  0.37844  1.0000
  S   S328      1.0  0.71851  0.07469  0.30792  1.0000
  S   S329      1.0  0.71398  0.03359  0.28522  1.0000
  H   H995      1.0  0.63204  0.05024  0.33226  1.0000
  H   H996      1.0  0.56858  0.11709  0.40246  1.0000
  H   H997      1.0  0.56952  0.26098  0.43220  1.0000
  H   H998      1.0  0.82550  0.04895  0.27649  1.0000
  S   S330      1.0  0.55341  0.14293  0.25127  1.0000
  H   H999      1.0  0.99903  0.02875  0.28179  1.0000
  H   H1000     1.0  0.79754  0.02388  0.29716  1.0000
  C   C990      1.0  0.98238  0.08059  0.24423  1.0000
  C   C991      1.0  0.54897  0.02000  0.33091  1.0000
  H   H1001     1.0  0.57324  0.28854  0.42083  1.0000
  C   C992      1.0  0.71456  0.01416  0.25500  1.0000
  H   H1002     1.0  0.51692  0.30932  0.47949  1.0000
  H   H1003     1.0  0.61376  0.01016  0.34123  1.0000
  C   C993      1.0  0.79958  0.00654  0.25880  1.0000
  C   C994      1.0  0.56718  0.00997  0.37594  1.0000
  S   S331      1.0  0.82604  0.04596  0.23929  1.0000
  C   C995      1.0  0.75222  0.01569  0.24496  1.0000
  C   C996      1.0  0.74025  0.04886  0.24021  1.0000
  C   C997      1.0  0.52917  0.00799  0.29174  1.0000
  N   N86       1.0  0.82416  0.01500  0.28463  1.0000
  H   H1004     1.0  0.67336  0.00591  0.35412  1.0000
  H   H1005     1.0  0.96238  0.00501  0.28298  1.0000
  N   N87       1.0  0.73128  0.00405  0.25346  1.0000
  C   C998      1.0  0.94673  0.07501  0.23850  1.0000
  C   C999      1.0  0.75709  0.03829  0.23834  1.0000
  H   H1006     1.0  0.53407  0.23111  0.48602  1.0000
  C   C1000     1.0  0.76615  0.00347  0.27758  1.0000
  C   C1001     1.0  0.00115  0.01436  0.25135  1.0000
  C   C1002     1.0  0.00145  0.03441  0.26981  1.0000
  H   H1007     1.0  0.68999  0.29590  0.53221  1.0000
  C   C1003     1.0  0.71784  0.01612  0.68009  1.0000
  Fe  Fe168     1.0  0.66564  0.26987  0.56511  1.0000
  S   S332      1.0  0.63422  0.27922  0.56419  1.0000
  S   S333      1.0  0.69645  0.29814  0.55914  1.0000
  Fe  Fe169     1.0  0.64330  0.22063  0.57064  1.0000
  S   S334      1.0  0.61022  0.22649  0.57026  1.0000
  S   S335      1.0  0.64886  0.18688  0.57230  1.0000
  Fe  Fe170     1.0  0.62956  0.25545  0.55100  1.0000
  S   S336      1.0  0.61990  0.26386  0.53011  1.0000
  Fe  Fe171     1.0  0.61841  0.24942  0.58351  1.0000
  S   S337      1.0  0.59454  0.24991  0.60378  1.0000
  S   S338      1.0  0.66224  0.24820  0.55032  1.0000
  S   S339      1.0  0.65026  0.24154  0.58548  1.0000
  C   C1004     1.0  0.62334  0.09660  0.61338  1.0000
  H   H1008     1.0  0.58327  0.01889  0.53350  1.0000
  C   C1005     1.0  0.58691  0.15259  0.55199  1.0000
  N   N88       1.0  0.61403  0.11269  0.61665  1.0000
  S   S340      1.0  0.56054  0.33096  0.55349  1.0000
  C   C1006     1.0  0.92303  0.05199  0.73029  1.0000
  S   S341      1.0  0.87581  0.03916  0.70210  1.0000
  C   C1007     1.0  0.70434  0.32301  0.59264  1.0000
  Fe  Fe172     1.0  0.57231  0.06844  0.59893  1.0000
  S   S342      1.0  0.60323  0.06407  0.58562  1.0000
  S   S343      1.0  0.56691  0.10211  0.59773  1.0000
  H   H1009     1.0  0.58886  0.28289  0.51656  1.0000
  Fe  Fe173     1.0  0.60159  0.03937  0.60621  1.0000
  S   S344      1.0  0.63359  0.04088  0.61195  1.0000
  Fe  Fe174     1.0  0.58091  0.03614  0.58153  1.0000
  S   S345      1.0  0.58435  0.03347  0.55873  1.0000
  S   S346      1.0  0.57189  0.04534  0.62005  1.0000
  S   S347      1.0  0.54983  0.04247  0.59312  1.0000
  H   H1010     1.0  0.67921  0.33101  0.52831  1.0000
  C   C1008     1.0  0.92905  0.00409  0.70672  1.0000
  S   S348      1.0  0.50795  0.32907  0.55865  1.0000
  C   C1009     1.0  0.51254  0.31418  0.48932  1.0000
  C   C1010     1.0  0.60652  0.13453  0.53601  1.0000
  N   N89       1.0  0.59085  0.13262  0.54856  1.0000
  H   H1011     1.0  0.65224  0.08917  0.60174  1.0000
  H   H1012     1.0  0.58260  0.31041  0.59433  1.0000
  C   C1011     1.0  0.66173  0.31189  0.50200  1.0000
  C   C1012     1.0  0.92882  0.06412  0.71557  1.0000
  C   C1013     1.0  0.91456  0.05963  0.70687  1.0000
  C   C1014     1.0  0.89453  0.04290  0.71279  1.0000
  H   H1013     1.0  0.67675  0.01473  0.67052  1.0000
  Fe  Fe175     1.0  0.53080  0.32334  0.57253  1.0000
  H   H1014     1.0  0.94362  0.07775  0.71111  1.0000
  H   H1015     1.0  0.91872  0.06963  0.69566  1.0000
  C   C1015     1.0  0.65010  0.02087  0.63302  1.0000
  S   S349      1.0  0.58255  0.01079  0.60075  1.0000
  C   C1016     1.0  0.62533  0.16412  0.57800  1.0000
  C   C1017     1.0  0.60467  0.16512  0.58577  1.0000
  C   C1018     1.0  0.58673  0.14611  0.59144  1.0000
  C   C1019     1.0  0.58938  0.12592  0.58952  1.0000
  C   C1020     1.0  0.60986  0.12507  0.58140  1.0000
  C   C1021     1.0  0.62772  0.14412  0.57560  1.0000
  H   H1016     1.0  0.60265  0.18039  0.58780  1.0000
  H   H1017     1.0  0.57090  0.14697  0.59764  1.0000
  H   H1018     1.0  0.61211  0.10979  0.57964  1.0000
  H   H1019     1.0  0.64364  0.14324  0.56955  1.0000
  C   C1022     1.0  0.69811  0.31593  0.57028  1.0000
  C   C1023     1.0  0.69751  0.30813  0.58497  1.0000
  H   H1020     1.0  0.66143  0.26066  0.50090  1.0000
  H   H1021     1.0  0.57427  0.07717  0.56230  1.0000
  C   C1024     1.0  0.59120  0.10681  0.62598  1.0000
  H   H1022     1.0  0.68216  0.27140  0.51693  1.0000
  H   H1023     1.0  0.69311  0.29061  0.59015  1.0000
  C   C1025     1.0  0.59931  0.09504  0.54208  1.0000
  C   C1026     1.0  0.61198  0.33476  0.52964  1.0000
  C   C1027     1.0  0.53960  0.28124  0.59532  1.0000
  C   C1028     1.0  0.55599  0.28050  0.58348  1.0000
  C   C1029     1.0  0.57262  0.27027  0.58598  1.0000
  C   C1030     1.0  0.57301  0.26113  0.60031  1.0000
  C   C1031     1.0  0.55652  0.26176  0.61210  1.0000
  C   C1032     1.0  0.53972  0.27160  0.60961  1.0000
  H   H1024     1.0  0.55564  0.28743  0.57243  1.0000
  H   H1025     1.0  0.58513  0.26952  0.57683  1.0000
  H   H1026     1.0  0.55678  0.25467  0.62318  1.0000
  H   H1027     1.0  0.70889  0.01946  0.68976  1.0000
  C   C1033     1.0  0.61276  0.20477  0.51175  1.0000
  C   C1034     1.0  0.61967  0.20386  0.52444  1.0000
  C   C1035     1.0  0.62184  0.22196  0.53012  1.0000
  C   C1036     1.0  0.61722  0.24112  0.52308  1.0000
  C   C1037     1.0  0.61093  0.24229  0.51017  1.0000
  C   C1038     1.0  0.60894  0.22425  0.50444  1.0000
  H   H1028     1.0  0.62341  0.18922  0.52990  1.0000
  H   H1029     1.0  0.62704  0.22099  0.53997  1.0000
  H   H1030     1.0  0.60765  0.25712  0.50452  1.0000
  C   C1039     1.0  0.66350  0.27814  0.49512  1.0000
  H   H1031     1.0  0.91620  0.02446  0.69183  1.0000
  H   H1032     1.0  0.59113  0.10491  0.63755  1.0000
  C   C1040     1.0  0.75268  0.01663  0.66428  1.0000
  C   C1041     1.0  0.67760  0.28678  0.51505  1.0000
  C   C1042     1.0  0.57774  0.00448  0.54289  1.0000
  C   C1043     1.0  0.65751  0.12397  0.59924  1.0000
  C   C1044     1.0  0.74115  0.00709  0.65575  1.0000
  N   N90       1.0  0.66736  0.29243  0.50445  1.0000
  S   S350      1.0  0.81174  0.01201  0.72435  1.0000
  H   H1033     1.0  0.61392  0.07946  0.61746  1.0000
  C   C1045     1.0  0.63104  0.02485  0.62955  1.0000
  C   C1046     1.0  0.91485  0.00787  0.69807  1.0000
  H   H1034     1.0  0.61564  0.15061  0.52856  1.0000
  C   C1047     1.0  0.74100  0.02130  0.67650  1.0000
  C   C1048     1.0  0.90348  0.03477  0.73598  1.0000
  N   N91       1.0  0.59591  0.31762  0.51364  1.0000
  C   C1049     1.0  0.61093  0.11580  0.53254  1.0000
  H   H1035     1.0  0.60176  0.16183  0.55426  1.0000
  H   H1036     1.0  0.74982  0.02807  0.68346  1.0000
  H   H1037     1.0  0.59556  0.01858  0.63733  1.0000
  H   H1038     1.0  0.57259  0.14886  0.56178  1.0000
  C   C1050     1.0  0.66582  0.32603  0.51058  1.0000
  C   C1051     1.0  0.67595  0.32024  0.52157  1.0000
  H   H1039     1.0  0.56753  0.29553  0.51256  1.0000
  C   C1052     1.0  0.64856  0.00758  0.64684  1.0000
  S   S351      1.0  0.60838  0.18138  0.50536  1.0000
  H   H1040     1.0  0.58345  0.16332  0.54260  1.0000
  H   H1041     1.0  0.77058  0.01985  0.66169  1.0000
  C   C1053     1.0  0.57927  0.11232  0.55793  1.0000
  H   H1042     1.0  0.60259  0.08031  0.53960  1.0000
  C   C1054     1.0  0.62619  0.13423  0.61172  1.0000
  H   H1043     1.0  0.61879  0.14705  0.61416  1.0000
  H   H1044     1.0  0.65735  0.15742  0.59856  1.0000
  H   H1045     1.0  0.58117  0.09127  0.62509  1.0000
  C   C1055     1.0  0.64513  0.10200  0.60454  1.0000
  H   H1046     1.0  0.67428  0.12846  0.59212  1.0000
  H   H1047     1.0  0.52455  0.21869  0.50560  1.0000
  C   C1056     1.0  0.51948  0.22090  0.49532  1.0000
  C   C1057     1.0  0.58574  0.29784  0.51011  1.0000
  H   H1048     1.0  0.56683  0.11074  0.56788  1.0000
  H   H1049     1.0  0.62325  0.11744  0.52251  1.0000
  H   H1050     1.0  0.64800  0.27878  0.49198  1.0000
  S   S352      1.0  0.51911  0.29456  0.59259  1.0000
  H   H1051     1.0  0.52704  0.27208  0.61878  1.0000
  C   C1058     1.0  0.61037  0.01571  0.64000  1.0000
  C   C1059     1.0  0.68201  0.30056  0.52377  1.0000
  N   N92       1.0  0.70663  0.00625  0.67187  1.0000
  H   H1052     1.0  0.60085  0.29987  0.53338  1.0000
  Fe  Fe176     1.0  0.84476  0.01048  0.71146  1.0000
  C   C1060     1.0  0.64809  0.14020  0.60295  1.0000
  C   C1061     1.0  0.57719  0.00681  0.55682  1.0000
  C   C1062     1.0  0.58336  0.09326  0.55484  1.0000
  S   S353      1.0  0.54368  0.32998  0.51864  1.0000
  H   H1053     1.0  0.87914  0.08367  0.71858  1.0000
  H   H1054     1.0  0.58273  0.11959  0.62249  1.0000
  C   C1063     1.0  0.76004  0.33519  0.57006  1.0000
  H   H1055     1.0  0.51519  0.25378  0.50683  1.0000
  H   H1056     1.0  0.70481  0.31683  0.60379  1.0000
  H   H1057     1.0  0.94147  0.01773  0.70735  1.0000
  H   H1058     1.0  0.65410  0.31652  0.49334  1.0000
  H   H1059     1.0  0.74687  0.31982  0.57205  1.0000
  H   H1060     1.0  0.65207  0.31985  0.59038  1.0000
  C   C1064     1.0  0.63745  0.32596  0.59206  1.0000
  H   H1061     1.0  0.66606  0.02783  0.62492  1.0000
  H   H1062     1.0  0.87393  0.01749  0.73213  1.0000
  H   H1063     1.0  0.53010  0.01700  0.57216  1.0000
  H   H1064     1.0  0.51453  0.20430  0.49374  1.0000
  C   C1065     1.0  0.88937  0.03015  0.72730  1.0000
  C   C1066     1.0  0.85042  0.05834  0.73295  1.0000
  H   H1065     1.0  0.60448  0.22552  0.49435  1.0000
  C   C1067     1.0  0.61720  0.31267  0.59222  1.0000
  H   H1066     1.0  0.61718  0.33339  0.53956  1.0000
  H   H1067     1.0  0.54428  0.31521  0.49341  1.0000
  H   H1068     1.0  0.61606  0.29637  0.59085  1.0000
  C   C1068     1.0  0.60272  0.31589  0.52607  1.0000
  H   H1069     1.0  0.77645  0.33166  0.56807  1.0000
  Fe  Fe177     1.0  0.55269  0.01874  0.61282  1.0000
  C   C1069     1.0  0.52801  0.31749  0.49727  1.0000
  C   C1070     1.0  0.59841  0.32050  0.59420  1.0000
  H   H1070     1.0  0.84255  0.05684  0.72434  1.0000
  H   H1071     1.0  0.74984  0.32943  0.54597  1.0000
  C   C1071     1.0  0.87096  0.07350  0.72972  1.0000
  H   H1072     1.0  0.59265  0.29936  0.49834  1.0000
  C   C1072     1.0  0.00005  0.00920  0.71279  1.0000
  C   C1073     1.0  0.52275  0.32406  0.51000  1.0000
  H   H1073     1.0  0.66335  0.00441  0.64934  1.0000
  C   C1074     1.0  0.50196  0.24866  0.50207  1.0000
  S   S354      1.0  0.87581  0.03861  0.85051  1.0000
  Fe  Fe178     1.0  0.87114  0.02155  0.81522  1.0000
  S   S355      1.0  0.87877  0.05685  0.81553  1.0000
  S   S356      1.0  0.99636  0.09734  0.86198  1.0000
  Fe  Fe179     1.0  0.90154  0.04818  0.82901  1.0000
  S   S357      1.0  0.93787  0.06583  0.82279  1.0000
  Fe  Fe180     1.0  0.85215  0.04402  0.83708  1.0000
  S   S358      1.0  0.82755  0.06132  0.84574  1.0000
  Fe  Fe181     1.0  0.69779  0.03155  0.92508  1.0000
  H   H1074     1.0  0.96281  0.02573  0.89218  1.0000
  S   S359      1.0  0.84246  0.00936  0.83563  1.0000
  H   H1075     1.0  0.92798  0.08511  0.84682  1.0000
  C   C1075     1.0  0.67158  0.06424  0.93701  1.0000
  N   N93       1.0  0.93976  0.02282  0.79597  1.0000
  C   C1076     1.0  0.64542  0.07140  0.95625  1.0000
  C   C1077     1.0  0.66218  0.07640  0.96297  1.0000
  C   C1078     1.0  0.68367  0.07567  0.95655  1.0000
  C   C1079     1.0  0.68822  0.06900  0.94382  1.0000
  H   H1076     1.0  0.62885  0.07220  0.96109  1.0000
  H   H1077     1.0  0.69676  0.07995  0.96155  1.0000
  H   H1078     1.0  0.82582  0.02375  0.89532  1.0000
  H   H1079     1.0  0.80150  0.06297  0.87313  1.0000
  H   H1080     1.0  0.89301  0.04766  0.76574  1.0000
  H   H1081     1.0  0.89818  0.08512  0.73792  1.0000
  C   C1080     1.0  0.79377  0.04796  0.87105  1.0000
  H   H1082     1.0  0.92251  0.04529  0.78811  1.0000
  C   C1081     1.0  0.65029  0.06586  0.94305  1.0000
  H   H1083     1.0  0.98381  0.01602  0.88192  1.0000
  S   S360      1.0  0.55436  0.03582  0.97812  1.0000
  H   H1084     1.0  0.95209  0.05378  0.77948  1.0000
  C   C1082     1.0  0.95316  0.01379  0.81708  1.0000
  C   C1083     1.0  0.57776  0.01028  0.94998  1.0000
  C   C1084     1.0  0.95142  0.07040  0.83604  1.0000
  C   C1085     1.0  0.97199  0.06587  0.83504  1.0000
  H   H1085     1.0  0.71480  0.01330  0.86835  1.0000
  S   S361      1.0  0.89570  0.01390  0.82731  1.0000
  C   C1086     1.0  0.95747  0.08903  0.85432  1.0000
  C   C1087     1.0  0.94380  0.08139  0.84605  1.0000
  H   H1086     1.0  0.93456  0.03270  0.77485  1.0000
  H   H1087     1.0  0.97743  0.12452  0.78628  1.0000
  H   H1088     1.0  0.95191  0.09828  0.86165  1.0000
  N   N94       1.0  0.71727  0.04242  0.87539  1.0000
  C   C1088     1.0  0.70819  0.05202  0.88545  1.0000
  C   C1089     1.0  0.73815  0.05228  0.86614  1.0000
  C   C1090     1.0  0.72030  0.07173  0.88670  1.0000
  C   C1091     1.0  0.75075  0.07196  0.86712  1.0000
  C   C1092     1.0  0.74176  0.08166  0.87752  1.0000
  H   H1089     1.0  0.56800  0.02195  0.95109  1.0000
  H   H1090     1.0  0.73379  0.02721  0.97943  1.0000
  H   H1091     1.0  0.69537  0.01032  0.88518  1.0000
  N   N95       1.0  0.95509  0.01620  0.87412  1.0000
  H   H1092     1.0  0.76753  0.07939  0.86000  1.0000
  H   H1093     1.0  0.75143  0.09679  0.87852  1.0000
  H   H1094     1.0  0.77494  0.01780  0.91328  1.0000
  C   C1093     1.0  0.76382  0.01453  0.87819  1.0000
  C   C1094     1.0  0.94185  0.02844  0.86922  1.0000
  C   C1095     1.0  0.80346  0.04290  0.85839  1.0000
  H   H1095     1.0  0.71310  0.07909  0.89486  1.0000
  C   C1096     1.0  0.97871  0.08567  0.85262  1.0000
  C   C1097     1.0  0.77412  0.03367  0.88103  1.0000
  C   C1098     1.0  0.79341  0.02352  0.85572  1.0000
  H   H1096     1.0  0.64596  0.01327  0.93915  1.0000
  H   H1097     1.0  0.70473  0.06792  0.93913  1.0000
  C   C1099     1.0  0.70412  0.02193  0.87416  1.0000
  H   H1098     1.0  0.83926  0.00822  0.87527  1.0000
  H   H1099     1.0  0.69182  0.02541  0.86819  1.0000
  H   H1100     1.0  0.68800  0.05225  0.98482  1.0000
  H   H1101     1.0  0.63751  0.06249  0.93765  1.0000
  H   H1102     1.0  0.76676  0.03780  0.89068  1.0000
  H   H1103     1.0  0.51164  0.01808  0.97585  1.0000
  S   S362      1.0  0.67708  0.05493  0.92147  1.0000
  H   H1104     1.0  0.89601  0.07651  0.76354  1.0000
  H   H1105     1.0  0.74545  0.04467  0.85819  1.0000
  C   C1100     1.0  0.98558  0.07346  0.84328  1.0000
  H   H1106     1.0  0.60632  0.03049  0.95300  1.0000
  S   S363      1.0  0.98496  0.04535  0.75402  1.0000
  H   H1107     1.0  0.82479  0.03229  0.74977  1.0000
  H   H1108     1.0  0.84375  0.03524  0.76888  1.0000
  H   H1109     1.0  0.89874  0.02556  0.74736  1.0000
  C   C1101     1.0  0.85145  0.04611  0.75792  1.0000
  H   H1110     1.0  0.99278  0.02505  0.85023  1.0000
  H   H1111     1.0  0.91645  0.03023  0.85807  1.0000
  H   H1112     1.0  0.69154  0.04438  0.89270  1.0000
  C   C1102     1.0  0.99080  0.12603  0.81724  1.0000
  H   H1113     1.0  0.94332  0.04478  0.87051  1.0000
  S   S364      1.0  0.73423  0.03741  0.91514  1.0000
  S   S365      1.0  0.76041  0.02196  0.94778  1.0000
  C   C1103     1.0  0.95209  0.02917  0.80481  1.0000
  H   H1114     1.0  0.97504  0.11663  0.82501  1.0000
  Fe  Fe182     1.0  0.97407  0.06973  0.73890  1.0000
  H   H1115     1.0  0.72595  0.05173  0.98084  1.0000
  C   C1104     1.0  0.97134  0.02553  0.88105  1.0000
  C   C1105     1.0  0.92651  0.02025  0.86227  1.0000
  C   C1106     1.0  0.93714  0.03948  0.78401  1.0000
  H   H1116     1.0  0.97768  0.05686  0.82762  1.0000
  C   C1107     1.0  0.51892  0.00452  0.97829  1.0000
  H   H1117     1.0  0.63775  0.01757  0.95687  1.0000
  C   C1108     1.0  0.63484  0.00570  0.95045  1.0000
  S   S366      1.0  0.69776  0.01405  0.94762  1.0000
  C   C1109     1.0  0.84053  0.04454  0.74715  1.0000
  C   C1110     1.0  0.88383  0.06044  0.76573  1.0000
  H   H1118     1.0  0.80055  0.01973  0.84582  1.0000
  C   C1111     1.0  0.81525  0.00915  0.89431  1.0000
  Fe  Fe183     1.0  0.73322  0.01656  0.93712  1.0000
  S   S367      1.0  0.65647  0.08242  0.97977  1.0000
  H   H1119     1.0  0.87231  0.05654  0.77685  1.0000
  C   C1112     1.0  0.77354  0.00946  0.86555  1.0000
  Fe  Fe184     1.0  0.72426  0.00502  0.91058  1.0000
  H   H1120     1.0  0.95982  0.11443  0.80472  1.0000
  C   C1113     1.0  0.59947  0.01497  0.95111  1.0000
  S   S368      1.0  0.87735  0.01221  0.79403  1.0000
  H   H1121     1.0  0.96071  0.04633  0.80262  1.0000
  N   N96       1.0  0.87177  0.06070  0.75462  1.0000
  N   N97       1.0  0.99410  0.12783  0.80267  1.0000
  C   C1114     1.0  0.53955  0.00821  0.98117  1.0000
  H   H1122     1.0  0.80052  0.01945  0.91818  1.0000
  C   C1115     1.0  0.78677  0.00835  0.91599  1.0000
  C   C1116     1.0  0.88160  0.07428  0.74072  1.0000
  Fe  Fe185     1.0  0.86793  0.00501  0.84758  1.0000
  C   C1117     1.0  0.68368  0.03499  0.98527  1.0000
  S   S369      1.0  0.93674  0.06076  0.74264  1.0000
  H   H1123     1.0  0.96249  0.01895  0.82428  1.0000
  S   S370      1.0  0.99238  0.09847  0.74479  1.0000
  H   H1124     1.0  0.98070  0.04267  0.87445  1.0000
  H   H1125     1.0  0.97818  0.09912  0.79815  1.0000
  H   H1126     1.0  0.78893  0.00607  0.96418  1.0000
  C   C1118     1.0  0.66205  0.02493  0.98559  1.0000
  C   C1119     1.0  0.97656  0.11598  0.79769  1.0000
  H   H1127     1.0  0.65003  0.03444  0.98524  1.0000
  S   S371      1.0  0.59274  0.08483  0.98592  1.0000
  H   H1128     1.0  0.00144  0.07002  0.84223  1.0000
  N   N98       1.0  0.69892  0.02312  0.98595  1.0000
  C   C1120     1.0  0.72145  0.03368  0.98589  1.0000
  Fe  Fe186     1.0  0.56361  0.37026  0.16239  1.0000
  H   H1129     1.0  0.60502  0.35528  0.10785  1.0000
  S   S372      1.0  0.59867  0.37196  0.16335  1.0000
  Fe  Fe187     1.0  0.53455  0.37084  0.14136  1.0000
  H   H1130     1.0  0.79728  0.64673  0.98776  1.0000
  S   S373      1.0  0.55010  0.39640  0.15105  1.0000
  H   H1131     1.0  0.70105  0.36777  0.16000  1.0000
  Fe  Fe188     1.0  0.72523  0.40711  0.19226  1.0000
  S   S374      1.0  0.70784  0.42568  0.20567  1.0000
  S   S375      1.0  0.72320  0.37102  0.19995  1.0000
  Fe  Fe189     1.0  0.73864  0.44499  0.16428  1.0000
  S   S376      1.0  0.72304  0.46647  0.17591  1.0000
  S   S377      1.0  0.74931  0.45360  0.13952  1.0000
  Fe  Fe190     1.0  0.73843  0.45419  0.19386  1.0000
  S   S378      1.0  0.75148  0.47652  0.20725  1.0000
  Fe  Fe191     1.0  0.69453  0.43615  0.18652  1.0000
  S   S379      1.0  0.65933  0.43805  0.18701  1.0000
  S   S380      1.0  0.75642  0.43481  0.18123  1.0000
  S   S381      1.0  0.70986  0.41547  0.17426  1.0000
  Fe  Fe192     1.0  0.67713  0.41148  0.09145  1.0000
  S   S382      1.0  0.70764  0.41076  0.07539  1.0000
  S   S383      1.0  0.67182  0.41351  0.11464  1.0000
  Fe  Fe193     1.0  0.64649  0.40055  0.07225  1.0000
  S   S384      1.0  0.67482  0.39989  0.05434  1.0000
  S   S385      1.0  0.60919  0.38658  0.07732  1.0000
  Fe  Fe194     1.0  0.68604  0.38100  0.07227  1.0000
  S   S386      1.0  0.55089  0.34615  0.15094  1.0000
  Fe  Fe195     1.0  0.69413  0.43003  0.05878  1.0000
  S   S387      1.0  0.71637  0.45939  0.03988  1.0000
  S   S388      1.0  0.65706  0.38028  0.08978  1.0000
  S   S389      1.0  0.66449  0.43224  0.07523  1.0000
  N   N99       1.0  0.75515  0.42925  0.23395  1.0000
  H   H1132     1.0  0.79054  0.43933  0.22739  1.0000
  H   H1133     1.0  0.82948  0.48339  0.20875  1.0000
  S   S390      1.0  0.55033  0.36620  0.03519  1.0000
  C   C1121     1.0  0.65197  0.46189  0.14923  1.0000
  C   C1122     1.0  0.55493  0.41116  0.06385  1.0000
  H   H1134     1.0  0.53856  0.40094  0.04847  1.0000
  H   H1135     1.0  0.76030  0.38831  0.21097  1.0000
  H   H1136     1.0  0.83377  0.50945  0.01136  1.0000
  H   H1137     1.0  0.84754  0.60436  0.20600  1.0000
  H   H1138     1.0  0.81562  0.54598  0.19678  1.0000
  H   H1139     1.0  0.69687  0.35846  0.10611  1.0000
  C   C1123     1.0  0.53644  0.40421  0.05903  1.0000
  S   S391      1.0  0.53760  0.37653  0.11727  1.0000
  C   C1124     1.0  0.88944  0.65249  0.04277  1.0000
  H   H1140     1.0  0.88085  0.59093  0.20548  1.0000
  C   C1125     1.0  0.73648  0.41546  0.23319  1.0000
  H   H1141     1.0  0.68534  0.47694  0.15978  1.0000
  H   H1142     1.0  0.64861  0.44400  0.15036  1.0000
  H   H1143     1.0  0.82485  0.52844  0.05804  1.0000
  Fe  Fe196     1.0  0.82386  0.60392  0.99778  1.0000
  S   S392      1.0  0.85347  0.62304  0.00225  1.0000
  Fe  Fe197     1.0  0.80610  0.57210  0.02856  1.0000
  S   S393      1.0  0.83473  0.58896  0.03551  1.0000
  S   S394      1.0  0.78100  0.54324  0.04659  1.0000
  Fe  Fe198     1.0  0.82998  0.62059  0.02348  1.0000
  S   S395      1.0  0.83345  0.65196  0.03005  1.0000
  Fe  Fe199     1.0  0.85593  0.59001  0.01374  1.0000
  S   S396      1.0  0.88915  0.58315  0.01238  1.0000
  S   S397      1.0  0.79961  0.60407  0.01820  1.0000
  S   S398      1.0  0.82803  0.57060  0.00764  1.0000
  H   H1144     1.0  0.74504  0.49919  0.01882  1.0000
  H   H1145     1.0  0.86448  0.62867  0.03873  1.0000
  H   H1146     1.0  0.90688  0.63048  0.01396  1.0000
  H   H1147     1.0  0.89951  0.65449  0.99359  1.0000
  C   C1126     1.0  0.77790  0.41384  0.21833  1.0000
  H   H1148     1.0  0.86351  0.53802  0.01414  1.0000
  C   C1127     1.0  0.82941  0.57626  0.20117  1.0000
  N   N100      1.0  0.69542  0.35941  0.14085  1.0000
  H   H1149     1.0  0.93650  0.59730  0.00663  1.0000
  C   C1128     1.0  0.68217  0.36437  0.19522  1.0000
  C   C1129     1.0  0.86679  0.58122  0.20322  1.0000
  N   N101      1.0  0.67513  0.47297  0.14095  1.0000
  H   H1150     1.0  0.70118  0.38446  0.12097  1.0000
  S   S399      1.0  0.83785  0.51007  0.22786  1.0000
  N   N102      1.0  0.55238  0.41472  0.07731  1.0000
  C   C1130     1.0  0.89484  0.65713  0.22739  1.0000
  H   H1151     1.0  0.53789  0.36983  0.08939  1.0000
  C   C1131     1.0  0.57171  0.41980  0.08284  1.0000
  H   H1152     1.0  0.64055  0.46864  0.14360  1.0000
  C   C1132     1.0  0.83009  0.55629  0.19828  1.0000
  H   H1153     1.0  0.85910  0.54761  0.03755  1.0000
  S   S400      1.0  0.69181  0.34723  0.07547  1.0000
  C   C1133     1.0  0.84934  0.54925  0.19783  1.0000
  C   C1134     1.0  0.53166  0.41179  0.08618  1.0000
  C   C1135     1.0  0.73364  0.48294  0.04199  1.0000
  C   C1136     1.0  0.74634  0.50027  0.02949  1.0000
  C   C1137     1.0  0.76074  0.51899  0.03068  1.0000
  C   C1138     1.0  0.76247  0.52059  0.04443  1.0000
  C   C1139     1.0  0.74970  0.50331  0.05693  1.0000
  C   C1140     1.0  0.73540  0.48456  0.05573  1.0000
  H   H1154     1.0  0.81693  0.65924  0.00476  1.0000
  H   H1155     1.0  0.77042  0.53217  0.02098  1.0000
  H   H1156     1.0  0.75092  0.50440  0.06761  1.0000
  H   H1157     1.0  0.72574  0.47136  0.06543  1.0000
  C   C1141     1.0  0.59505  0.37893  0.06489  1.0000
  C   C1142     1.0  0.57446  0.36313  0.07055  1.0000
  C   C1143     1.0  0.56103  0.35862  0.06144  1.0000
  C   C1144     1.0  0.56785  0.37014  0.04660  1.0000
  C   C1145     1.0  0.58889  0.38534  0.04078  1.0000
  C   C1146     1.0  0.60255  0.38962  0.04987  1.0000
  H   H1158     1.0  0.56866  0.35469  0.08212  1.0000
  S   S401      1.0  0.50277  0.35759  0.15950  1.0000
  H   H1159     1.0  0.59446  0.39421  0.02926  1.0000
  H   H1160     1.0  0.61840  0.40188  0.04538  1.0000
  H   H1161     1.0  0.66999  0.35446  0.05243  1.0000
  N   N103      1.0  0.86725  0.56153  0.20048  1.0000
  H   H1162     1.0  0.57033  0.43201  0.08907  1.0000
  C   C1147     1.0  0.50866  0.34418  0.09254  1.0000
  C   C1148     1.0  0.93594  0.64049  0.02080  1.0000
  C   C1149     1.0  0.77625  0.48669  0.21201  1.0000
  C   C1150     1.0  0.79593  0.48094  0.20735  1.0000
  C   C1151     1.0  0.81449  0.48819  0.21233  1.0000
  C   C1152     1.0  0.81383  0.50147  0.22192  1.0000
  H   H1163     1.0  0.79344  0.51786  0.23364  1.0000
  C   C1153     1.0  0.77573  0.50026  0.22142  1.0000
  H   H1164     1.0  0.79676  0.47069  0.20004  1.0000
  H   H1165     1.0  0.52960  0.41383  0.09707  1.0000
  S   S402      1.0  0.87395  0.61725  0.22519  1.0000
  C   C1154     1.0  0.51278  0.40485  0.08171  1.0000
  C   C1155     1.0  0.72803  0.44273  0.13222  1.0000
  C   C1156     1.0  0.70588  0.43607  0.14060  1.0000
  C   C1157     1.0  0.68902  0.42692  0.13506  1.0000
  C   C1158     1.0  0.69392  0.42524  0.12079  1.0000
  C   C1159     1.0  0.71595  0.43251  0.11208  1.0000
  C   C1160     1.0  0.73300  0.44115  0.11783  1.0000
  H   H1166     1.0  0.70148  0.43871  0.15119  1.0000
  H   H1167     1.0  0.67203  0.42146  0.14181  1.0000
  H   H1168     1.0  0.71989  0.43131  0.10100  1.0000
  H   H1169     1.0  0.75006  0.44655  0.11116  1.0000
  H   H1170     1.0  0.68185  0.37981  0.19756  1.0000
  Fe  Fe200     1.0  0.51951  0.38067  0.17016  1.0000
  C   C1161     1.0  0.51891  0.35796  0.11199  1.0000
  H   H1171     1.0  0.64813  0.46395  0.16042  1.0000
  C   C1162     1.0  0.61489  0.39081  0.16990  1.0000
  C   C1163     1.0  0.63678  0.39013  0.16905  1.0000
  C   C1164     1.0  0.65034  0.40430  0.17442  1.0000
  C   C1165     1.0  0.64222  0.41937  0.18071  1.0000
  C   C1166     1.0  0.62024  0.42012  0.18154  1.0000
  C   C1167     1.0  0.60658  0.40588  0.17614  1.0000
  H   H1172     1.0  0.64324  0.37834  0.16441  1.0000
  H   H1173     1.0  0.66703  0.40336  0.17371  1.0000
  H   H1174     1.0  0.61376  0.43174  0.18638  1.0000
  H   H1175     1.0  0.58967  0.40650  0.17689  1.0000
  H   H1176     1.0  0.85451  0.66342  0.06951  1.0000
  C   C1168     1.0  0.70000  0.35555  0.19640  1.0000
  H   H1177     1.0  0.89276  0.54895  0.19050  1.0000
  H   H1178     1.0  0.72326  0.38938  0.22450  1.0000
  C   C1169     1.0  0.69030  0.47970  0.14801  1.0000
  C   C1170     1.0  0.71263  0.48941  0.14025  1.0000
  H   H1179     1.0  0.51186  0.34498  0.08110  1.0000
  H   H1180     1.0  0.88819  0.66418  0.07789  1.0000
  C   C1171     1.0  0.69751  0.36701  0.12621  1.0000
  C   C1172     1.0  0.66739  0.33697  0.05677  1.0000
  C   C1173     1.0  0.51524  0.40090  0.06808  1.0000
  N   N104      1.0  0.81327  0.50267  0.03310  1.0000
  C   C1174     1.0  0.83197  0.51323  0.02173  1.0000
  C   C1175     1.0  0.81092  0.50762  0.04613  1.0000
  C   C1176     1.0  0.84885  0.52932  0.02323  1.0000
  C   C1177     1.0  0.82731  0.52387  0.04792  1.0000
  C   C1178     1.0  0.84639  0.53473  0.03639  1.0000
  C   C1179     1.0  0.79595  0.48578  0.03121  1.0000
  C   C1180     1.0  0.69508  0.35239  0.11775  1.0000
  H   H1181     1.0  0.79593  0.49966  0.05506  1.0000
  H   H1182     1.0  0.58744  0.42652  0.07384  1.0000
  H   H1183     1.0  0.54517  0.34659  0.06598  1.0000
  H   H1184     1.0  0.57287  0.40451  0.09020  1.0000
  C   C1181     1.0  0.60367  0.34172  0.20042  1.0000
  H   H1185     1.0  0.80205  0.47125  0.03014  1.0000
  H   H1186     1.0  0.78073  0.48019  0.04061  1.0000
  H   H1187     1.0  0.90044  0.56497  0.20231  1.0000
  H   H1188     1.0  0.71157  0.38991  0.14344  1.0000
  C   C1182     1.0  0.69043  0.33732  0.14747  1.0000
  C   C1183     1.0  0.66457  0.35328  0.19109  1.0000
  Fe  Fe201     1.0  0.51686  0.34065  0.04429  1.0000
  C   C1184     1.0  0.52322  0.35842  0.09724  1.0000
  H   H1189     1.0  0.93513  0.62391  0.02671  1.0000
  C   C1185     1.0  0.69761  0.37502  0.14954  1.0000
  H   H1190     1.0  0.84953  0.53340  0.19600  1.0000
  H   H1191     1.0  0.72481  0.49405  0.14590  1.0000
  H   H1192     1.0  0.88195  0.53781  0.21015  1.0000
  C   C1186     1.0  0.87025  0.64563  0.03854  1.0000
  S   S403      1.0  0.53425  0.35641  0.18214  1.0000
  H   H1193     1.0  0.81445  0.58173  0.20183  1.0000
  C   C1187     1.0  0.68164  0.47539  0.12624  1.0000
  C   C1188     1.0  0.93206  0.60615  0.99741  1.0000
  C   C1189     1.0  0.70384  0.48496  0.11817  1.0000
  C   C1190     1.0  0.71940  0.49199  0.12525  1.0000
  H   H1194     1.0  0.66981  0.46916  0.12077  1.0000
  H   H1195     1.0  0.70909  0.48614  0.10662  1.0000
  H   H1196     1.0  0.73683  0.49855  0.11928  1.0000
  N   N105      1.0  0.61801  0.36674  0.12385  1.0000
  C   C1191     1.0  0.84793  0.58894  0.20352  1.0000
  C   C1192     1.0  0.62982  0.36315  0.13380  1.0000
  N   N106      1.0  0.92137  0.66509  0.00567  1.0000
  C   C1193     1.0  0.63639  0.34375  0.13694  1.0000
  H   H1197     1.0  0.68207  0.38011  0.15217  1.0000
  C   C1194     1.0  0.61160  0.38734  0.12056  1.0000
  H   H1198     1.0  0.79090  0.49246  0.02131  1.0000
  H   H1199     1.0  0.63425  0.37539  0.13935  1.0000
  H   H1200     1.0  0.89833  0.64073  0.04625  1.0000
  C   C1195     1.0  0.92015  0.64428  0.01342  1.0000
  H   H1201     1.0  0.58796  0.34273  0.03345  1.0000
  H   H1202     1.0  0.60784  0.39306  0.13050  1.0000
  H   H1203     1.0  0.62540  0.40021  0.11199  1.0000
  H   H1204     1.0  0.59651  0.38528  0.11663  1.0000
  C   C1196     1.0  0.88661  0.55298  0.20083  1.0000
  H   H1205     1.0  0.56351  0.34256  0.19823  1.0000
  C   C1197     1.0  0.89306  0.63454  0.23091  1.0000
  C   C1198     1.0  0.77570  0.42846  0.22677  1.0000
  C   C1199     1.0  0.90479  0.66858  0.99787  1.0000
  C   C1200     1.0  0.85819  0.66052  0.03458  1.0000
  C   C1201     1.0  0.75894  0.39969  0.21753  1.0000
  H   H1206     1.0  0.59837  0.35578  0.20336  1.0000
  H   H1207     1.0  0.79419  0.41355  0.21241  1.0000
  H   H1208     1.0  0.65131  0.36073  0.18984  1.0000
  H   H1209     1.0  0.57132  0.41322  0.05688  1.0000
  H   H1210     1.0  0.61244  0.34703  0.18856  1.0000
  C   C1202     1.0  0.73809  0.40033  0.22511  1.0000
  C   C1203     1.0  0.79432  0.50762  0.22631  1.0000
  H   H1211     1.0  0.60976  0.33984  0.05145  1.0000
  H   H1212     1.0  0.96500  0.65553  0.02623  1.0000
  H   H1213     1.0  0.88449  0.66378  0.22120  1.0000
  H   H1214     1.0  0.76068  0.50489  0.22513  1.0000
  C   C1204     1.0  0.61338  0.35185  0.11628  1.0000
  C   C1205     1.0  0.90986  0.60174  0.99718  1.0000
  S   S404      1.0  0.50182  0.39801  0.18434  1.0000
  C   C1206     1.0  0.95265  0.65824  0.02055  1.0000
  H   H1215     1.0  0.61555  0.33766  0.20664  1.0000
  H   H1216     1.0  0.64501  0.34068  0.14526  1.0000
  Fe  Fe202     1.0  0.83536  0.52677  0.36097  1.0000
  S   S405      1.0  0.84034  0.54454  0.37757  1.0000
  S   S406      1.0  0.85589  0.50364  0.35703  1.0000
  Fe  Fe203     1.0  0.79900  0.54697  0.35452  1.0000
  S   S407      1.0  0.80133  0.56668  0.37049  1.0000
  S   S408      1.0  0.77126  0.54755  0.34426  1.0000
  Fe  Fe204     1.0  0.83801  0.57346  0.36091  1.0000
  S   S409      1.0  0.86431  0.60557  0.35345  1.0000
  Fe  Fe205     1.0  0.80322  0.53546  0.38533  1.0000
  S   S410      1.0  0.78427  0.52263  0.40942  1.0000
  S   S411      1.0  0.83550  0.55617  0.34374  1.0000
  S   S412      1.0  0.79846  0.51545  0.36984  1.0000
  H   H1217     1.0  0.89934  0.63593  0.32929  1.0000
  Fe  Fe206     1.0  0.82392  0.55346  0.26499  1.0000
  S   S413      1.0  0.79056  0.55450  0.27716  1.0000
  S   S414      1.0  0.95200  0.54533  0.36001  1.0000
  H   H1218     1.0  0.82515  0.60445  0.30971  1.0000
  C   C1207     1.0  0.84233  0.62872  0.25772  1.0000
  S   S415      1.0  0.85555  0.57679  0.26398  1.0000
  H   H1219     1.0  0.74399  0.50608  0.36855  1.0000
  Fe  Fe207     1.0  0.67738  0.36032  0.46281  1.0000
  S   S416      1.0  0.66609  0.38096  0.44592  1.0000
  C   C1208     1.0  0.55913  0.39515  0.46420  1.0000
  H   H1220     1.0  0.73060  0.46585  0.37769  1.0000
  C   C1209     1.0  0.90438  0.65223  0.35762  1.0000
  C   C1210     1.0  0.89445  0.56292  0.32029  1.0000
  Fe  Fe208     1.0  0.64180  0.38485  0.46469  1.0000
  S   S417      1.0  0.60470  0.37740  0.46844  1.0000
  Fe  Fe209     1.0  0.69003  0.40934  0.44876  1.0000
  S   S418      1.0  0.71093  0.43274  0.42681  1.0000
  H   H1221     1.0  0.74204  0.45481  0.23924  1.0000
  S   S419      1.0  0.70346  0.38796  0.46434  1.0000
  C   C1211     1.0  0.55323  0.39334  0.45149  1.0000
  S   S420      1.0  0.89368  0.54159  0.27719  1.0000
  H   H1222     1.0  0.86102  0.64775  0.36067  1.0000
  H   H1223     1.0  0.81933  0.47759  0.38525  1.0000
  H   H1224     1.0  0.74023  0.54096  0.40094  1.0000
  H   H1225     1.0  0.79875  0.59374  0.30718  1.0000
  H   H1226     1.0  0.84965  0.63404  0.24598  1.0000
  N   N107      1.0  0.89416  0.66659  0.34898  1.0000
  H   H1227     1.0  0.98524  0.64139  0.26433  1.0000
  C   C1212     1.0  0.97858  0.65596  0.26223  1.0000
  Fe  Fe210     1.0  0.87028  0.54848  0.26319  1.0000
  H   H1228     1.0  0.95054  0.56397  0.30148  1.0000
  S   S421      1.0  0.96250  0.65578  0.34682  1.0000
  C   C1213     1.0  0.86314  0.65464  0.31224  1.0000
  C   C1214     1.0  0.59325  0.36264  0.45750  1.0000
  C   C1215     1.0  0.60514  0.36478  0.44321  1.0000
  N   N108      1.0  0.82338  0.61507  0.28781  1.0000
  C   C1216     1.0  0.52412  0.37151  0.47892  1.0000
  S   S422      1.0  0.96218  0.61217  0.29373  1.0000
  H   H1229     1.0  0.62206  0.37488  0.43885  1.0000
  H   H1230     1.0  0.87758  0.53530  0.40560  1.0000
  C   C1217     1.0  0.91305  0.56160  0.28130  1.0000
  C   C1218     1.0  0.92602  0.55454  0.29035  1.0000
  C   C1219     1.0  0.94066  0.56971  0.29456  1.0000
  C   C1220     1.0  0.91520  0.58415  0.27630  1.0000
  H   H1231     1.0  0.92473  0.53720  0.29417  1.0000
  C   C1221     1.0  0.93015  0.59935  0.28028  1.0000
  C   C1222     1.0  0.76590  0.49593  0.41554  1.0000
  C   C1223     1.0  0.76642  0.48192  0.40663  1.0000
  C   C1224     1.0  0.75029  0.46179  0.41079  1.0000
  C   C1225     1.0  0.73363  0.45520  0.42406  1.0000
  C   C1226     1.0  0.73382  0.46849  0.43351  1.0000
  C   C1227     1.0  0.74999  0.48885  0.42924  1.0000
  H   H1232     1.0  0.77900  0.48663  0.39641  1.0000
  H   H1233     1.0  0.75031  0.45154  0.40347  1.0000
  H   H1234     1.0  0.72090  0.46361  0.44373  1.0000
  H   H1235     1.0  0.74963  0.49947  0.43631  1.0000
  C   C1228     1.0  0.88315  0.51578  0.35662  1.0000
  C   C1229     1.0  0.88969  0.53796  0.35609  1.0000
  C   C1230     1.0  0.91100  0.54722  0.35684  1.0000
  C   C1231     1.0  0.92575  0.53426  0.35827  1.0000
  C   C1232     1.0  0.91922  0.51209  0.35875  1.0000
  C   C1233     1.0  0.89806  0.50294  0.35770  1.0000
  H   H1236     1.0  0.87845  0.54812  0.35499  1.0000
  H   H1237     1.0  0.91576  0.56422  0.35677  1.0000
  H   H1238     1.0  0.93064  0.50206  0.35983  1.0000
  H   H1239     1.0  0.89311  0.48580  0.35806  1.0000
  C   C1234     1.0  0.77734  0.54852  0.32574  1.0000
  C   C1235     1.0  0.76090  0.55060  0.31865  1.0000
  C   C1236     1.0  0.76514  0.55201  0.30380  1.0000
  C   C1237     1.0  0.78582  0.55130  0.29592  1.0000
  C   C1238     1.0  0.80243  0.54925  0.30292  1.0000
  C   C1239     1.0  0.79815  0.54778  0.31790  1.0000
  H   H1240     1.0  0.74484  0.55120  0.32466  1.0000
  H   H1241     1.0  0.75232  0.55368  0.29838  1.0000
  H   H1242     1.0  0.81844  0.54870  0.29680  1.0000
  H   H1243     1.0  0.81083  0.54597  0.32337  1.0000
  C   C1240     1.0  0.86384  0.62263  0.33685  1.0000
  S   S423      1.0  0.65159  0.36225  0.48138  1.0000
  C   C1241     1.0  0.56088  0.33948  0.45401  1.0000
  H   H1244     1.0  0.82765  0.64172  0.32005  1.0000
  C   C1242     1.0  0.88332  0.65274  0.31484  1.0000
  C   C1243     1.0  0.88367  0.63682  0.32713  1.0000
  H   H1245     1.0  0.98195  0.66254  0.25020  1.0000
  H   H1246     1.0  0.93318  0.63370  0.24859  1.0000
  H   H1247     1.0  0.95418  0.65511  0.31913  1.0000
  H   H1248     1.0  0.90542  0.55704  0.32627  1.0000
  C   C1244     1.0  0.87159  0.66195  0.35183  1.0000
  H   H1249     1.0  0.93165  0.61668  0.27628  1.0000
  C   C1245     1.0  0.94292  0.59226  0.28948  1.0000
  C   C1246     1.0  0.88190  0.59324  0.30887  1.0000
  C   C1247     1.0  0.92413  0.66286  0.23927  1.0000
  C   C1248     1.0  0.82116  0.61428  0.26372  1.0000
  Fe  Fe211     1.0  0.67635  0.39179  0.48179  1.0000
  C   C1249     1.0  0.84368  0.62386  0.33397  1.0000
  C   C1250     1.0  0.51765  0.36932  0.46646  1.0000
  Fe  Fe212     1.0  0.97203  0.62811  0.33924  1.0000
  H   H1250     1.0  0.74551  0.43532  0.25454  1.0000
  S   S424      1.0  0.66443  0.41512  0.46638  1.0000
  C   C1251     1.0  0.75286  0.44454  0.24280  1.0000
  H   H1251     1.0  0.83036  0.45660  0.39420  1.0000
  H   H1252     1.0  0.76908  0.45602  0.24156  1.0000
  C   C1252     1.0  0.89519  0.58524  0.31712  1.0000
  H   H1253     1.0  0.88272  0.61060  0.30610  1.0000
  H   H1254     1.0  0.80693  0.46297  0.40444  1.0000
  H   H1255     1.0  0.82828  0.61310  0.34154  1.0000
  H   H1256     1.0  0.52790  0.37806  0.44291  1.0000
  H   H1257     1.0  0.57570  0.40463  0.46322  1.0000
  H   H1258     1.0  0.91786  0.66207  0.36083  1.0000
  Fe  Fe213     1.0  0.96751  0.57960  0.34505  1.0000
  C   C1253     1.0  0.53241  0.38019  0.45266  1.0000
  H   H1259     1.0  0.90639  0.59631  0.32079  1.0000
  N   N109      1.0  0.72258  0.48793  0.38986  1.0000
  C   C1254     1.0  0.73701  0.50633  0.37967  1.0000
  C   C1255     1.0  0.71327  0.48862  0.40369  1.0000
  C   C1256     1.0  0.74331  0.52573  0.38346  1.0000
  C   C1257     1.0  0.71940  0.50770  0.40789  1.0000
  C   C1258     1.0  0.73474  0.52627  0.39773  1.0000
  C   C1259     1.0  0.71642  0.46760  0.38579  1.0000
  H   H1260     1.0  0.75495  0.54019  0.37541  1.0000
  H   H1261     1.0  0.70167  0.47408  0.41175  1.0000
  H   H1262     1.0  0.71284  0.50782  0.41906  1.0000
  H   H1263     1.0  0.70220  0.46762  0.38106  1.0000
  N   N110      1.0  0.88065  0.54892  0.31550  1.0000
  C   C1260     1.0  0.86752  0.55661  0.30743  1.0000
  C   C1261     1.0  0.87984  0.52552  0.31883  1.0000
  H   H1264     1.0  0.85711  0.54557  0.30329  1.0000
  H   H1265     1.0  0.89205  0.52155  0.32478  1.0000
  H   H1266     1.0  0.86307  0.51547  0.32576  1.0000
  H   H1267     1.0  0.88360  0.52067  0.30856  1.0000
  C   C1262     1.0  0.81311  0.60855  0.30364  1.0000
  S   S425      1.0  0.83747  0.52408  0.26635  1.0000
  C   C1263     1.0  0.81178  0.60781  0.27886  1.0000
  S   S426      1.0  0.94846  0.60124  0.33507  1.0000
  H   H1268     1.0  0.56510  0.40133  0.44084  1.0000
  H   H1269     1.0  0.71173  0.45290  0.39547  1.0000
  C   C1264     1.0  0.57118  0.34983  0.46288  1.0000
  H   H1270     1.0  0.80712  0.62215  0.30677  1.0000
  Fe  Fe214     1.0  0.97471  0.60749  0.31416  1.0000
  H   H1271     1.0  0.90540  0.58990  0.26933  1.0000
  C   C1265     1.0  0.84334  0.64004  0.32179  1.0000
  H   H1272     1.0  0.79516  0.59684  0.28338  1.0000
  S   S427      1.0  0.98827  0.60584  0.35162  1.0000
  S   S428      1.0  0.99278  0.58418  0.32392  1.0000
  C   C1266     1.0  0.86799  0.57887  0.30394  1.0000
  C   C1267     1.0  0.84417  0.62926  0.28200  1.0000
  H   H1273     1.0  0.85797  0.58491  0.29722  1.0000
  N   N111      1.0  0.83797  0.48713  0.39919  1.0000
  C   C1268     1.0  0.86021  0.49260  0.39246  1.0000
  C   C1269     1.0  0.82968  0.49836  0.40838  1.0000
  C   C1270     1.0  0.87481  0.50989  0.39474  1.0000
  C   C1271     1.0  0.84378  0.51568  0.41098  1.0000
  C   C1272     1.0  0.86649  0.52153  0.40402  1.0000
  C   C1273     1.0  0.82285  0.47021  0.39564  1.0000
  H   H1274     1.0  0.86669  0.48392  0.38499  1.0000
  H   H1275     1.0  0.81202  0.49424  0.41358  1.0000
  H   H1276     1.0  0.89238  0.51457  0.38901  1.0000
  H   H1277     1.0  0.83697  0.52488  0.41798  1.0000
  H   H1278     1.0  0.89865  0.66406  0.30782  1.0000
  H   H1279     1.0  0.56191  0.34820  0.47387  1.0000
  C   C1274     1.0  0.85401  0.63624  0.26688  1.0000
  N   N112      1.0  0.54473  0.38407  0.47770  1.0000
  H   H1280     1.0  0.91173  0.64226  0.35104  1.0000
  H   H1281     1.0  0.85320  0.63541  0.28905  1.0000
  H   H1282     1.0  0.89216  0.64062  0.36771  1.0000
  C   C1275     1.0  0.92227  0.64024  0.24287  1.0000
  H   H1283     1.0  0.81210  0.60795  0.25674  1.0000
  S   S429      1.0  0.82919  0.56189  0.24079  1.0000
  H   H1284     1.0  0.87055  0.64744  0.26227  1.0000
  Fe  Fe215     1.0  0.86233  0.58256  0.23980  1.0000
  Fe  Fe216     1.0  0.84457  0.53383  0.24174  1.0000
  H   H1285     1.0  0.90517  0.60860  0.24171  1.0000
  C   C1276     1.0  0.59480  0.35447  0.43430  1.0000
  H   H1286     1.0  0.60396  0.35656  0.42316  1.0000
  H   H1287     1.0  0.72018  0.41625  0.23874  1.0000
  S   S430      1.0  0.99740  0.63633  0.31769  1.0000
  C   C1277     1.0  0.90645  0.62603  0.23895  1.0000
  C   C1278     1.0  0.99776  0.66728  0.27957  1.0000
  S   S431      1.0  0.87895  0.55555  0.23860  1.0000
  H   H1288     1.0  0.96035  0.65042  0.26720  1.0000
  H   H1289     1.0  0.99847  0.65051  0.28367  1.0000
  C   C1279     1.0  0.57264  0.34174  0.43970  1.0000
  S   S432      1.0  0.54626  0.37519  0.53987  1.0000
  S   S433      1.0  0.60324  0.38273  0.54968  1.0000
  Fe  Fe217     1.0  0.72692  0.40013  0.58605  1.0000
  S   S434      1.0  0.71470  0.42199  0.59913  1.0000
  S   S435      1.0  0.72370  0.36376  0.59471  1.0000
  Fe  Fe218     1.0  0.73570  0.43393  0.55681  1.0000
  S   S436      1.0  0.72446  0.45855  0.56743  1.0000
  S   S437      1.0  0.74486  0.43835  0.53225  1.0000
  Fe  Fe219     1.0  0.74424  0.44919  0.58346  1.0000
  S   S438      1.0  0.76773  0.47809  0.58787  1.0000
  Fe  Fe220     1.0  0.69626  0.42984  0.58224  1.0000
  S   S439      1.0  0.65929  0.42733  0.58645  1.0000
  S   S440      1.0  0.75748  0.42641  0.57142  1.0000
  S   S441      1.0  0.70674  0.40643  0.57075  1.0000
  C   C1280     1.0  0.97473  0.54629  0.64979  1.0000
  H   H1290     1.0  0.76858  0.37841  0.56682  1.0000
  H   H1291     1.0  0.59158  0.33918  0.49509  1.0000
  S   S442      1.0  0.96147  0.57626  0.70152  1.0000
  Fe  Fe221     1.0  0.84804  0.53595  0.63357  1.0000
  S   S443      1.0  0.85035  0.57155  0.62342  1.0000
  S   S444      1.0  0.82311  0.50597  0.63166  1.0000
  Fe  Fe222     1.0  0.88797  0.54924  0.64659  1.0000
  S   S445      1.0  0.89269  0.58503  0.63690  1.0000
  S   S446      1.0  0.91253  0.53918  0.65866  1.0000
  Fe  Fe223     1.0  0.85586  0.57721  0.64446  1.0000
  S   S447      1.0  0.84268  0.59807  0.65801  1.0000
  Fe  Fe224     1.0  0.88716  0.57555  0.61712  1.0000
  S   S448      1.0  0.91143  0.59433  0.59547  1.0000
  S   S449      1.0  0.85084  0.54136  0.65536  1.0000
  S   S450      1.0  0.88488  0.54000  0.62610  1.0000
  C   C1281     1.0  0.85959  0.62523  0.65326  1.0000
  C   C1282     1.0  0.87266  0.63566  0.63890  1.0000
  C   C1283     1.0  0.55219  0.38403  0.49084  1.0000
  H   H1292     1.0  0.92530  0.53990  0.70584  1.0000
  H   H1293     1.0  0.96223  0.53976  0.64485  1.0000
  H   H1294     1.0  0.66818  0.35103  0.60101  1.0000
  H   H1295     1.0  0.87221  0.62720  0.63058  1.0000
  C   C1284     1.0  0.86014  0.63654  0.66390  1.0000
  C   C1285     1.0  0.88569  0.65743  0.63511  1.0000
  H   H1296     1.0  0.97049  0.64059  0.61668  1.0000
  C   C1286     1.0  0.94779  0.56797  0.68893  1.0000
  C   C1287     1.0  0.92987  0.54907  0.69440  1.0000
  C   C1288     1.0  0.91833  0.54130  0.68517  1.0000
  C   C1289     1.0  0.92391  0.55265  0.67032  1.0000
  C   C1290     1.0  0.94124  0.57225  0.66483  1.0000
  C   C1291     1.0  0.95331  0.57980  0.67409  1.0000
  H   H1297     1.0  0.90539  0.52596  0.68950  1.0000
  H   H1298     1.0  0.94612  0.58090  0.65329  1.0000
  H   H1299     1.0  0.96693  0.59457  0.66974  1.0000
  N   N113      1.0  0.63882  0.34635  0.59405  1.0000
  C   C1292     1.0  0.62043  0.35410  0.59608  1.0000
  C   C1293     1.0  0.87394  0.65810  0.66020  1.0000
  H   H1300     1.0  0.56180  0.37168  0.49250  1.0000
  H   H1301     1.0  0.98524  0.64466  0.70031  1.0000
  H   H1302     1.0  0.68900  0.44083  0.51975  1.0000
  C   C1294     1.0  0.67282  0.46030  0.54852  1.0000
  C   C1295     1.0  0.97898  0.60778  0.60447  1.0000
  C   C1296     1.0  0.97657  0.61900  0.59112  1.0000
  C   C1297     1.0  0.95607  0.61420  0.58800  1.0000
  C   C1298     1.0  0.93791  0.59820  0.59827  1.0000
  C   C1299     1.0  0.94062  0.58640  0.61133  1.0000
  C   C1300     1.0  0.96101  0.59125  0.61446  1.0000
  C   C1301     1.0  0.96614  0.65474  0.61940  1.0000
  H   H1303     1.0  0.95415  0.62323  0.57781  1.0000
  H   H1304     1.0  0.92699  0.57353  0.61914  1.0000
  H   H1305     1.0  0.96263  0.58242  0.62480  1.0000
  H   H1306     1.0  0.94759  0.64929  0.70803  1.0000
  H   H1307     1.0  0.79878  0.59978  0.65183  1.0000
  C   C1302     1.0  0.78177  0.48562  0.60078  1.0000
  C   C1303     1.0  0.78230  0.47030  0.61329  1.0000
  C   C1304     1.0  0.79478  0.47691  0.62259  1.0000
  C   C1305     1.0  0.80704  0.49892  0.61963  1.0000
  C   C1306     1.0  0.80638  0.51431  0.60720  1.0000
  C   C1307     1.0  0.79387  0.50771  0.59791  1.0000
  H   H1308     1.0  0.77321  0.45327  0.61574  1.0000
  H   H1309     1.0  0.79501  0.46476  0.63215  1.0000
  H   H1310     1.0  0.81566  0.53129  0.60466  1.0000
  H   H1311     1.0  0.79370  0.51979  0.58830  1.0000
  H   H1312     1.0  0.71742  0.37059  0.56549  1.0000
  C   C1308     1.0  0.61730  0.39205  0.56167  1.0000
  C   C1309     1.0  0.64018  0.39459  0.55836  1.0000
  C   C1310     1.0  0.65299  0.40507  0.56597  1.0000
  C   C1311     1.0  0.64313  0.41287  0.57725  1.0000
  C   C1312     1.0  0.62003  0.40985  0.58086  1.0000
  C   C1313     1.0  0.60710  0.39941  0.57312  1.0000
  H   H1313     1.0  0.64825  0.38920  0.54943  1.0000
  H   H1314     1.0  0.67063  0.40814  0.56242  1.0000
  H   H1315     1.0  0.61215  0.41598  0.58947  1.0000
  H   H1316     1.0  0.58947  0.39783  0.57565  1.0000
  C   C1314     1.0  0.69583  0.40181  0.51213  1.0000
  C   C1315     1.0  0.71414  0.41902  0.50313  1.0000
  C   C1316     1.0  0.72939  0.42984  0.50935  1.0000
  C   C1317     1.0  0.72640  0.42354  0.52454  1.0000
  C   C1318     1.0  0.70864  0.40566  0.53331  1.0000
  C   C1319     1.0  0.69341  0.39498  0.52717  1.0000
  H   H1317     1.0  0.74324  0.44348  0.50240  1.0000
  H   H1318     1.0  0.70649  0.39990  0.54484  1.0000
  H   H1319     1.0  0.67951  0.38145  0.53418  1.0000
  C   C1320     1.0  0.60650  0.35699  0.50806  1.0000
  N   N114      1.0  0.94999  0.66246  0.61457  1.0000
  C   C1321     1.0  0.75432  0.34659  0.54580  1.0000
  H   H1320     1.0  0.67938  0.46762  0.55616  1.0000
  C   C1322     1.0  0.97189  0.53797  0.66475  1.0000
  C   C1323     1.0  0.96173  0.66354  0.70324  1.0000
  H   H1321     1.0  0.75765  0.39729  0.52457  1.0000
  Fe  Fe225     1.0  0.56660  0.36553  0.55509  1.0000
  H   H1322     1.0  0.60772  0.37294  0.50093  1.0000
  H   H1323     1.0  0.87429  0.66674  0.66844  1.0000
  H   H1324     1.0  0.87184  0.58742  0.67724  1.0000
  H   H1325     1.0  0.53801  0.37965  0.50081  1.0000
  S   S451      1.0  0.53850  0.35710  0.57550  1.0000
  H   H1326     1.0  0.92381  0.65703  0.60434  1.0000
  C   C1324     1.0  0.98311  0.66094  0.69906  1.0000
  H   H1327     1.0  0.67143  0.36509  0.58214  1.0000
  H   H1328     1.0  0.93757  0.61926  0.69792  1.0000
  C   C1325     1.0  0.76423  0.39035  0.54556  1.0000
  H   H1329     1.0  0.88512  0.56946  0.68688  1.0000
  H   H1330     1.0  0.71621  0.42439  0.49148  1.0000
  H   H1331     1.0  0.78949  0.60071  0.63577  1.0000
  H   H1332     1.0  0.90024  0.62374  0.65869  1.0000
  S   S452      1.0  0.67444  0.38947  0.50554  1.0000
  C   C1326     1.0  0.66036  0.36014  0.59344  1.0000
  C   C1327     1.0  0.88805  0.58392  0.67736  1.0000
  Fe  Fe226     1.0  0.51743  0.36349  0.56031  1.0000
  N   N115      1.0  0.90385  0.60333  0.67793  1.0000
  C   C1328     1.0  0.90811  0.62283  0.66745  1.0000
  C   C1329     1.0  0.91426  0.60200  0.68878  1.0000
  C   C1330     1.0  0.92237  0.64190  0.66799  1.0000
  C   C1331     1.0  0.92913  0.62059  0.68942  1.0000
  C   C1332     1.0  0.93289  0.64075  0.67910  1.0000
  H   H1333     1.0  0.99043  0.63134  0.58317  1.0000
  H   H1334     1.0  0.85002  0.62859  0.67505  1.0000
  N   N116      1.0  0.75956  0.35230  0.55751  1.0000
  H   H1335     1.0  0.92499  0.65748  0.65994  1.0000
  C   C1333     1.0  0.99336  0.56355  0.64138  1.0000
  H   H1336     1.0  0.94385  0.65544  0.67975  1.0000
  C   C1334     1.0  0.98751  0.54709  0.67115  1.0000
  H   H1337     1.0  0.89450  0.57932  0.66732  1.0000
  C   C1335     1.0  0.75351  0.36264  0.53379  1.0000
  N   N117      1.0  0.84366  0.50052  0.58403  1.0000
  C   C1336     1.0  0.85061  0.49525  0.59632  1.0000
  C   C1337     1.0  0.85022  0.52171  0.57522  1.0000
  C   C1338     1.0  0.86415  0.51149  0.60020  1.0000
  C   C1339     1.0  0.86378  0.53836  0.57877  1.0000
  C   C1340     1.0  0.87075  0.53318  0.59136  1.0000
  C   C1341     1.0  0.82994  0.48324  0.57990  1.0000
  H   H1338     1.0  0.84522  0.47853  0.60345  1.0000
  H   H1339     1.0  0.84478  0.52586  0.56544  1.0000
  H   H1340     1.0  0.86903  0.50728  0.61020  1.0000
  H   H1341     1.0  0.86884  0.55521  0.57185  1.0000
  H   H1342     1.0  0.88119  0.54599  0.59427  1.0000
  H   H1343     1.0  0.84059  0.47677  0.57231  1.0000
  H   H1344     1.0  0.81971  0.46944  0.58967  1.0000
  H   H1345     1.0  0.81801  0.48959  0.57455  1.0000
  N   N118      1.0  0.65564  0.43937  0.52997  1.0000
  H   H1346     1.0  0.98509  0.54122  0.68285  1.0000
  C   C1342     1.0  0.64167  0.44430  0.54074  1.0000
  C   C1343     1.0  0.67800  0.44486  0.52821  1.0000
  C   C1344     1.0  0.65007  0.45506  0.55006  1.0000
  H   H1347     1.0  0.70464  0.45887  0.53633  1.0000
  C   C1345     1.0  0.64663  0.42665  0.52095  1.0000
  H   H1348     1.0  0.91127  0.58650  0.69697  1.0000
  H   H1349     1.0  0.62384  0.43909  0.54258  1.0000
  C   C1346     1.0  0.68694  0.45525  0.53749  1.0000
  H   H1350     1.0  0.63891  0.45818  0.55896  1.0000
  Fe  Fe227     1.0  0.99727  0.59505  0.69807  1.0000
  H   H1351     1.0  0.62952  0.42753  0.52099  1.0000
  H   H1352     1.0  0.65718  0.43266  0.50943  1.0000
  H   H1353     1.0  0.64604  0.40909  0.52530  1.0000
  N   N119      1.0  0.79500  0.57005  0.64546  1.0000
  C   C1347     1.0  0.79637  0.55797  0.65851  1.0000
  C   C1348     1.0  0.78963  0.55990  0.63539  1.0000
  C   C1349     1.0  0.79196  0.53508  0.66184  1.0000
  C   C1350     1.0  0.78498  0.53703  0.63841  1.0000
  C   C1351     1.0  0.78618  0.52459  0.65173  1.0000
  C   C1352     1.0  0.80054  0.59410  0.64183  1.0000
  H   H1354     1.0  0.80116  0.56600  0.66637  1.0000
  H   H1355     1.0  0.78914  0.56949  0.62488  1.0000
  H   H1356     1.0  0.79344  0.52557  0.67208  1.0000
  H   H1357     1.0  0.78096  0.52896  0.63038  1.0000
  H   H1358     1.0  0.78321  0.50688  0.65400  1.0000
  H   H1359     1.0  0.81806  0.60124  0.63506  1.0000
  H   H1360     1.0  0.95720  0.52496  0.67143  1.0000
  C   C1353     1.0  0.75847  0.38464  0.53372  1.0000
  C   C1354     1.0  0.76476  0.37389  0.55744  1.0000
  H   H1361     1.0  0.99542  0.57002  0.62976  1.0000
  C   C1355     1.0  0.97746  0.66510  0.62776  1.0000
  C   C1356     1.0  0.71168  0.34572  0.58570  1.0000
  Fe  Fe228     1.0  0.53837  0.33996  0.53962  1.0000
  C   C1357     1.0  0.61393  0.35542  0.52052  1.0000
  H   H1362     1.0  0.56295  0.40041  0.48978  1.0000
  H   H1363     1.0  0.99039  0.65900  0.63140  1.0000
  H   H1364     1.0  0.76786  0.40743  0.54561  1.0000
  H   H1365     1.0  0.62101  0.37017  0.52320  1.0000
  H   H1366     1.0  0.70496  0.34478  0.55222  1.0000
  C   C1358     1.0  0.60000  0.34138  0.59607  1.0000
  C   C1359     1.0  0.71106  0.35340  0.57125  1.0000
  H   H1367     1.0  0.89484  0.66567  0.62383  1.0000
  H   H1368     1.0  0.62147  0.37020  0.59771  1.0000
  H   H1369     1.0  0.65896  0.37539  0.59654  1.0000
  C   C1360     1.0  0.93866  0.65143  0.60567  1.0000
  H   H1370     1.0  0.51273  0.36276  0.48959  1.0000
  H   H1371     1.0  0.74869  0.35801  0.52472  1.0000
  C   C1361     1.0  0.70424  0.33861  0.56362  1.0000
  H   H1372     1.0  0.58550  0.34767  0.59748  1.0000
  H   H1373     1.0  0.95019  0.65477  0.59464  1.0000
  H   H1374     1.0  0.66137  0.34147  0.50865  1.0000
  H   H1375     1.0  0.93293  0.63336  0.61089  1.0000
  H   H1376     1.0  0.75667  0.34028  0.58029  1.0000
  C   C1362     1.0  0.59756  0.33782  0.50473  1.0000
  C   C1363     1.0  0.88658  0.66872  0.64572  1.0000
  C   C1364     1.0  0.83263  0.63541  0.96143  1.0000
  H   H1377     1.0  0.89981  0.64142  0.93657  1.0000
  H   H1378     1.0  0.81179  0.62782  0.94778  1.0000
  C   C1365     1.0  0.82583  0.63942  0.94867  1.0000
  H   H1379     1.0  0.85631  0.64759  0.97225  1.0000
  C   C1366     1.0  0.92065  0.62927  0.97364  1.0000
  H   H1380     1.0  0.96549  0.62596  0.98625  1.0000
  H   H1381     1.0  0.91606  0.63813  0.96451  1.0000
  S   S453      1.0  0.81667  0.61206  0.97598  1.0000
  C   C1367     1.0  0.91146  0.65655  0.92922  1.0000
  C   C1368     1.0  0.94280  0.63401  0.97398  1.0000
  C   C1369     1.0  0.85091  0.65053  0.96245  1.0000
  H   H1382     1.0  0.93771  0.65292  0.93910  1.0000
  C   C1370     1.0  0.94847  0.62247  0.98591  1.0000
  S   S454      1.0  0.96304  0.65426  0.95931  1.0000
  C   C1371     1.0  0.90422  0.61321  0.98522  1.0000
  C   C1372     1.0  0.83666  0.65858  0.93716  1.0000
  H   H1383     1.0  0.88723  0.60954  0.98479  1.0000
  C   C1373     1.0  0.93282  0.66322  0.93066  1.0000
  Fe  Fe229     1.0  0.99567  0.66599  0.96379  1.0000
  H   H1384     1.0  0.83097  0.66158  0.92745  1.0000
  C   C1374     1.0  0.80897  0.66291  0.98430  1.0000
  H   H1385     1.0  0.88843  0.66492  0.91729  1.0000
  C   C1375     1.0  0.92513  0.96784  0.14327  1.0000
  Fe  Fe230     1.0  0.81579  0.97530  0.13273  1.0000
  H   H1386     1.0  0.90726  0.79883  0.21859  1.0000
  C   C1376     1.0  0.91182  0.94932  0.10647  1.0000
  H   H1387     1.0  0.87424  0.99359  0.12790  1.0000
  C   C1377     1.0  0.97034  0.82275  0.18893  1.0000
  S   S455      1.0  0.79061  0.95308  0.12595  1.0000
  H   H1388     1.0  0.00034  0.88706  0.14370  1.0000
  Fe  Fe231     1.0  0.81708  0.93583  0.12128  1.0000
  S   S456      1.0  0.80628  0.89915  0.12871  1.0000
  Fe  Fe232     1.0  0.94830  0.86881  0.13991  1.0000
  S   S457      1.0  0.95463  0.86145  0.16213  1.0000
  Fe  Fe233     1.0  0.91469  0.86470  0.12266  1.0000
  S   S458      1.0  0.94008  0.88142  0.10110  1.0000
  S   S459      1.0  0.88009  0.84828  0.12337  1.0000
  Fe  Fe234     1.0  0.96020  0.86014  0.11000  1.0000
  S   S460      1.0  0.97914  0.84445  0.09489  1.0000
  C   C1378     1.0  0.88031  0.67740  0.07830  1.0000
  S   S461      1.0  0.93396  0.84191  0.13097  1.0000
  S   S462      1.0  0.92642  0.89003  0.13349  1.0000
  H   H1389     1.0  0.90718  0.77160  0.21737  1.0000
  Fe  Fe235     1.0  0.97136  0.92951  0.21161  1.0000
  S   S463      1.0  0.95929  0.93863  0.19182  1.0000
  Fe  Fe236     1.0  0.93908  0.75512  0.06033  1.0000
  S   S464      1.0  0.96168  0.78018  0.03975  1.0000
  S   S465      1.0  0.92493  0.76140  0.08177  1.0000
  Fe  Fe237     1.0  0.93339  0.71832  0.04580  1.0000
  S   S466      1.0  0.95511  0.74011  0.02408  1.0000
  H   H1390     1.0  0.88978  0.82275  0.09734  1.0000
  Fe  Fe238     1.0  0.97726  0.75293  0.03668  1.0000
  C   C1379     1.0  0.95326  0.67952  0.01310  1.0000
  Fe  Fe239     1.0  0.93762  0.76515  0.02899  1.0000
  S   S467      1.0  0.92756  0.78583  0.01131  1.0000
  S   S468      1.0  0.95692  0.72912  0.05828  1.0000
  S   S469      1.0  0.91359  0.74216  0.04968  1.0000
  H   H1391     1.0  0.76599  0.95468  0.16714  1.0000
  Fe  Fe240     1.0  0.70028  0.93144  0.05059  1.0000
  S   S470      1.0  0.72084  0.96018  0.03162  1.0000
  S   S471      1.0  0.71315  0.92129  0.07037  1.0000
  Fe  Fe241     1.0  0.66533  0.91927  0.03395  1.0000
  S   S472      1.0  0.68386  0.94716  0.01397  1.0000
  S   S473      1.0  0.63399  0.89435  0.03467  1.0000
  Fe  Fe242     1.0  0.71417  0.93785  0.01785  1.0000
  S   S474      1.0  0.74259  0.93725  0.00022  1.0000
  Fe  Fe243     1.0  0.68845  0.96651  0.02988  1.0000
  H   H1392     1.0  0.61453  0.94384  0.03478  1.0000
  S   S475      1.0  0.69571  0.90831  0.03676  1.0000
  S   S476      1.0  0.66776  0.93926  0.04996  1.0000
  C   C1380     1.0  0.79819  0.96724  0.05028  1.0000
  S   S477      1.0  0.55513  0.86975  0.00617  1.0000
  C   C1381     1.0  0.79160  0.94531  0.05866  1.0000
  H   H1393     1.0  0.80909  0.90366  0.17358  1.0000
  H   H1394     1.0  0.56991  0.90083  0.03630  1.0000
  C   C1382     1.0  0.90513  0.95288  0.14480  1.0000
  H   H1395     1.0  0.94792  0.97770  0.10691  1.0000
  H   H1396     1.0  0.90155  0.71394  0.00457  1.0000
  H   H1397     1.0  0.79549  0.99035  0.03151  1.0000
  C   C1383     1.0  0.99385  0.97675  0.10545  1.0000
  H   H1398     1.0  0.61777  0.85896  0.00032  1.0000
  C   C1384     1.0  0.88531  0.68944  0.03829  1.0000
  H   H1399     1.0  0.96451  0.89493  0.20102  1.0000
  C   C1385     1.0  0.82307  0.99879  0.17506  1.0000
  H   H1400     1.0  0.76243  0.99320  0.06623  1.0000
  C   C1386     1.0  0.97977  0.94445  0.12636  1.0000
  H   H1401     1.0  0.90001  0.85211  0.08963  1.0000
  C   C1387     1.0  0.61327  0.88947  0.02543  1.0000
  C   C1388     1.0  0.59682  0.86954  0.03159  1.0000
  C   C1389     1.0  0.57966  0.86407  0.02529  1.0000
  C   C1390     1.0  0.57843  0.87830  0.01259  1.0000
  C   C1391     1.0  0.59498  0.89840  0.00612  1.0000
  C   C1392     1.0  0.61242  0.90402  0.01257  1.0000
  H   H1402     1.0  0.59722  0.85814  0.04146  1.0000
  H   H1403     1.0  0.56707  0.84857  0.03042  1.0000
  C   C1393     1.0  0.83811  0.00061  0.18357  1.0000
  H   H1404     1.0  0.62509  0.91946  0.00761  1.0000
  H   H1405     1.0  0.91155  0.68867  0.22889  1.0000
  N   N120      1.0  0.66910  0.89182  0.99455  1.0000
  H   H1406     1.0  0.92859  0.97267  0.15263  1.0000
  C   C1394     1.0  0.95907  0.87987  0.18420  1.0000
  C   C1395     1.0  0.87953  0.71143  0.08328  1.0000
  C   C1396     1.0  0.79076  0.97328  0.03796  1.0000
  H   H1407     1.0  0.88662  0.72507  0.08702  1.0000
  C   C1397     1.0  0.98153  0.95477  0.11180  1.0000
  H   H1408     1.0  0.92136  0.68903  0.08026  1.0000
  H   H1409     1.0  0.54287  0.90458  0.02208  1.0000
  Fe  Fe244     1.0  0.95412  0.90458  0.11268  1.0000
  C   C1398     1.0  0.91706  0.76844  0.00171  1.0000
  H   H1410     1.0  0.94897  0.85541  0.23013  1.0000
  C   C1399     1.0  0.90958  0.69500  0.08756  1.0000
  C   C1400     1.0  0.77734  0.92973  0.05473  1.0000
  C   C1401     1.0  0.99477  0.78238  0.99379  1.0000
  C   C1402     1.0  0.91143  0.74571  0.00791  1.0000
  H   H1411     1.0  0.96593  0.69342  0.01316  1.0000
  H   H1412     1.0  0.74829  0.92635  0.03008  1.0000
  H   H1413     1.0  0.91178  0.73905  0.01899  1.0000
  S   S478      1.0  0.96737  0.94085  0.10170  1.0000
  C   C1403     1.0  0.75563  0.91897  0.03863  1.0000
  C   C1404     1.0  0.86049  0.71148  0.07854  1.0000
  H   H1414     1.0  0.97016  0.92756  0.13130  1.0000
  C   C1405     1.0  0.97302  0.79365  0.20822  1.0000
  H   H1415     1.0  0.90529  0.79162  0.20198  1.0000
  H   H1416     1.0  0.85603  0.71478  0.99551  1.0000
  H   H1417     1.0  0.77109  0.96203  0.02460  1.0000
  H   H1418     1.0  0.98705  0.99495  0.17955  1.0000
  H   H1419     1.0  0.95627  0.98834  0.12823  1.0000
  C   C1406     1.0  0.96478  0.81999  0.09230  1.0000
  C   C1407     1.0  0.94351  0.80824  0.10126  1.0000
  C   C1408     1.0  0.93168  0.78985  0.09821  1.0000
  C   C1409     1.0  0.94102  0.78316  0.08615  1.0000
  C   C1410     1.0  0.96255  0.79451  0.07744  1.0000
  C   C1411     1.0  0.97443  0.81280  0.08056  1.0000
  H   H1420     1.0  0.93611  0.81337  0.11050  1.0000
  H   H1421     1.0  0.91512  0.78102  0.10508  1.0000
  H   H1422     1.0  0.97000  0.78934  0.06822  1.0000
  S   S479      1.0  0.87678  0.99508  0.19045  1.0000
  C   C1412     1.0  0.95672  0.91682  0.18393  1.0000
  C   C1413     1.0  0.95427  0.88249  0.17072  1.0000
  C   C1414     1.0  0.95044  0.90225  0.16396  1.0000
  C   C1415     1.0  0.95156  0.91936  0.17058  1.0000
  H   H1423     1.0  0.94667  0.90441  0.15363  1.0000
  C   C1416     1.0  0.55281  0.91909  0.02370  1.0000
  C   C1417     1.0  0.94722  0.81488  0.19390  1.0000
  C   C1418     1.0  0.76613  0.96728  0.08296  1.0000
  C   C1419     1.0  0.75674  0.97583  0.07196  1.0000
  C   C1420     1.0  0.74038  0.96204  0.06809  1.0000
  C   C1421     1.0  0.73295  0.93952  0.07534  1.0000
  C   C1422     1.0  0.74194  0.93104  0.08658  1.0000
  C   C1423     1.0  0.75850  0.94480  0.09035  1.0000
  H   H1424     1.0  0.94205  0.77166  0.22214  1.0000
  H   H1425     1.0  0.73351  0.96887  0.05951  1.0000
  H   H1426     1.0  0.73626  0.91367  0.09231  1.0000
  H   H1427     1.0  0.76553  0.93797  0.09885  1.0000
  C   C1424     1.0  0.93731  0.68268  0.00571  1.0000
  H   H1428     1.0  0.94112  0.96891  0.20653  1.0000
  N   N121      1.0  0.83564  0.69000  0.98927  1.0000
  H   H1429     1.0  0.90530  0.68434  0.09895  1.0000
  C   C1425     1.0  0.64956  0.87603  0.00173  1.0000
  H   H1430     1.0  0.84844  0.97378  0.15200  1.0000
  C   C1426     1.0  0.82754  0.88596  0.12713  1.0000
  C   C1427     1.0  0.84991  0.89754  0.12367  1.0000
  C   C1428     1.0  0.86640  0.88615  0.12270  1.0000
  C   C1429     1.0  0.86038  0.86332  0.12499  1.0000
  C   C1430     1.0  0.83805  0.85196  0.12840  1.0000
  C   C1431     1.0  0.82169  0.86320  0.12960  1.0000
  H   H1431     1.0  0.85445  0.91517  0.12168  1.0000
  H   H1432     1.0  0.88369  0.89495  0.11996  1.0000
  H   H1433     1.0  0.83338  0.83435  0.13016  1.0000
  H   H1434     1.0  0.80445  0.85423  0.13225  1.0000
  C   C1432     1.0  0.84741  0.69693  0.99940  1.0000
  H   H1435     1.0  0.59304  0.93778  0.05173  1.0000
  N   N122      1.0  0.58145  0.93530  0.03330  1.0000
  C   C1433     1.0  0.57916  0.95573  0.02755  1.0000
  C   C1434     1.0  0.56831  0.91707  0.03164  1.0000
  C   C1435     1.0  0.56355  0.95834  0.01977  1.0000
  H   H1436     1.0  0.89386  0.94566  0.10719  1.0000
  C   C1436     1.0  0.55036  0.93986  0.01780  1.0000
  C   C1437     1.0  0.62107  0.98913  0.04226  1.0000
  H   H1437     1.0  0.56168  0.97460  0.01536  1.0000
  H   H1438     1.0  0.67746  0.89582  0.01382  1.0000
  S   S480      1.0  0.95455  0.90010  0.23109  1.0000
  H   H1439     1.0  0.98969  0.71198  0.04190  1.0000
  C   C1438     1.0  0.86122  0.67685  0.07357  1.0000
  S   S481      1.0  0.80791  0.98753  0.15278  1.0000
  N   N123      1.0  0.88945  0.69475  0.08279  1.0000
  C   C1439     1.0  0.93583  0.97065  0.11755  1.0000
  N   N124      1.0  0.91888  0.83405  0.07889  1.0000
  C   C1440     1.0  0.91121  0.81771  0.07306  1.0000
  C   C1441     1.0  0.93954  0.84823  0.07238  1.0000
  C   C1442     1.0  0.92444  0.81518  0.06044  1.0000
  C   C1443     1.0  0.95321  0.84616  0.05977  1.0000
  C   C1444     1.0  0.94557  0.82950  0.05379  1.0000
  H   H1440     1.0  0.91784  0.93462  0.10576  1.0000
  H   H1441     1.0  0.89507  0.80612  0.07837  1.0000
  H   H1442     1.0  0.94592  0.86077  0.07721  1.0000
  H   H1443     1.0  0.91862  0.80175  0.05614  1.0000
  H   H1444     1.0  0.96989  0.85695  0.05502  1.0000
  H   H1445     1.0  0.95621  0.82733  0.04425  1.0000
  H   H1446     1.0  0.99096  0.82170  0.07367  1.0000
  C   C1445     1.0  0.99011  0.95614  0.13459  1.0000
  H   H1447     1.0  0.58934  0.97016  0.02902  1.0000
  N   N125      1.0  0.91615  0.95610  0.11911  1.0000
  C   C1446     1.0  0.90097  0.94702  0.13254  1.0000
  H   H1448     1.0  0.79677  0.94062  0.06851  1.0000
  H   H1449     1.0  0.89297  0.94588  0.15541  1.0000
  H   H1450     1.0  0.92043  0.96271  0.09614  1.0000
  S   S482      1.0  0.50649  0.87927  0.98884  1.0000
  H   H1451     1.0  0.98286  0.78542  0.21412  1.0000
  H   H1452     1.0  0.88552  0.93522  0.13379  1.0000
  C   C1447     1.0  0.63359  0.87092  0.99445  1.0000
  H   H1453     1.0  0.59420  0.90961  0.99632  1.0000
  C   C1448     1.0  0.59786  0.93311  0.04148  1.0000
  C   C1449     1.0  0.93136  0.98757  0.18902  1.0000
  C   C1450     1.0  0.85682  0.99271  0.18062  1.0000
  C   C1451     1.0  0.84536  0.98121  0.16074  1.0000
  C   C1452     1.0  0.77678  0.95721  0.03420  1.0000
  H   H1454     1.0  0.80171  0.88559  0.16290  1.0000
  N   N126      1.0  0.78538  0.91132  0.16247  1.0000
  C   C1453     1.0  0.76892  0.90058  0.15774  1.0000
  C   C1454     1.0  0.78443  0.93053  0.16581  1.0000
  C   C1455     1.0  0.75084  0.90896  0.15636  1.0000
  C   C1456     1.0  0.76645  0.93924  0.16472  1.0000
  C   C1457     1.0  0.74962  0.92841  0.15990  1.0000
  C   C1458     1.0  0.80474  0.90293  0.16329  1.0000
  H   H1455     1.0  0.76998  0.88572  0.15462  1.0000
  H   H1456     1.0  0.73818  0.90069  0.15221  1.0000
  C   C1459     1.0  0.82672  0.98919  0.16354  1.0000
  C   C1460     1.0  0.90503  0.83658  0.09215  1.0000
  H   H1457     1.0  0.81907  0.91286  0.15379  1.0000
  Fe  Fe245     1.0  0.80691  0.97436  0.10292  1.0000
  H   H1458     1.0  0.99050  0.67702  0.03605  1.0000
  C   C1461     1.0  0.96049  0.89705  0.19072  1.0000
  N   N127      1.0  0.77009  0.93580  0.04266  1.0000
  H   H1459     1.0  0.79781  0.93950  0.16909  1.0000
  H   H1460     1.0  0.96205  0.86472  0.18957  1.0000
  S   S483      1.0  0.84063  0.95580  0.13007  1.0000
  S   S484      1.0  0.83230  0.95590  0.09791  1.0000
  H   H1461     1.0  0.85654  0.69409  0.03136  1.0000
  S   S485      1.0  0.84587  0.99547  0.23115  1.0000
  N   N128      1.0  0.93730  0.79662  0.20562  1.0000
  S   S486      1.0  0.97677  0.88499  0.11967  1.0000
  C   C1462     1.0  0.98328  0.81219  0.19624  1.0000
  C   C1463     1.0  0.90560  0.73152  0.99974  1.0000
  H   H1462     1.0  0.59940  0.91601  0.04451  1.0000
  C   C1464     1.0  0.94989  0.78597  0.21273  1.0000
  C   C1465     1.0  0.68567  0.89662  0.00238  1.0000
  C   C1466     1.0  0.89703  0.67439  0.04262  1.0000
  H   H1463     1.0  0.60790  0.97630  0.05056  1.0000
  S   S487      1.0  0.92040  0.68217  0.04873  1.0000
  Fe  Fe246     1.0  0.85343  0.97817  0.10718  1.0000
  C   C1467     1.0  0.94065  0.97669  0.12959  1.0000
  H   H1464     1.0  0.89092  0.70630  0.03832  1.0000
  C   C1468     1.0  0.64275  0.98691  0.03896  1.0000
  C   C1469     1.0  0.97244  0.83799  0.23572  1.0000
  H   H1465     1.0  0.92185  0.97316  0.18711  1.0000
  C   C1470     1.0  0.91306  0.78931  0.21111  1.0000
  H   H1466     1.0  0.93729  0.82355  0.18833  1.0000
  H   H1467     1.0  0.94867  0.93463  0.16526  1.0000
  Fe  Fe247     1.0  0.98861  0.89547  0.22900  1.0000
  H   H1468     1.0  0.64623  0.97234  0.04469  1.0000
  H   H1469     1.0  0.93773  0.69925  0.00003  1.0000
  H   H1470     1.0  0.53819  0.94162  0.01179  1.0000
  H   H1471     1.0  0.69566  0.88453  0.00257  1.0000
  H   H1472     1.0  0.73595  0.93537  0.15858  1.0000
  C   C1471     1.0  0.86025  0.98289  0.16925  1.0000
  H   H1473     1.0  0.91429  0.83705  0.10048  1.0000
  C   C1472     1.0  0.85141  0.69413  0.07356  1.0000
  H   H1474     1.0  0.87467  0.97673  0.16692  1.0000
  S   S488      1.0  0.97747  0.95301  0.22479  1.0000
  H   H1475     1.0  0.64600  0.86766  0.01329  1.0000
  H   H1476     1.0  0.74161  0.90878  0.04830  1.0000
  S   S489      1.0  0.89019  0.99424  0.09773  1.0000
  C   C1473     1.0  0.95162  0.83952  0.23418  1.0000
  H   H1477     1.0  0.85304  0.72504  0.07857  1.0000
  H   H1478     1.0  0.91843  0.71192  0.08712  1.0000
  H   H1479     1.0  0.85999  0.68772  0.00057  1.0000
  H   H1480     1.0  0.76518  0.90826  0.03434  1.0000
  C   C1474     1.0  0.00071  0.71215  0.03177  1.0000
  H   H1481     1.0  0.99149  0.79054  0.00226  1.0000
  H   H1482     1.0  0.97809  0.83713  0.17954  1.0000
  C   C1475     1.0  0.86578  0.68246  0.03443  1.0000
  H   H1483     1.0  0.96292  0.78014  0.98991  1.0000
  H   H1484     1.0  0.77161  0.91286  0.06163  1.0000
  H   H1485     1.0  0.83689  0.69410  0.06959  1.0000
  S   S490      1.0  0.78823  0.98502  0.08639  1.0000
  C   C1476     1.0  0.91006  0.67121  0.23179  1.0000
  H   H1486     1.0  0.83564  0.69367  0.01033  1.0000
  S   S491      1.0  0.99448  0.86159  0.23232  1.0000
  S   S492      1.0  0.82959  0.99871  0.11011  1.0000
  C   C1477     1.0  0.94218  0.98522  0.19996  1.0000
  C   C1478     1.0  0.97861  0.77627  0.98686  1.0000
  H   H1487     1.0  0.80841  0.97959  0.05366  1.0000
  H   H1488     1.0  0.98819  0.94826  0.14594  1.0000
  H   H1489     1.0  0.99524  0.98481  0.09418  1.0000
  H   H1490     1.0  0.99994  0.99507  0.23608  1.0000
  H   H1491     1.0  0.00120  0.81842  0.19268  1.0000
  C   C1479     1.0  0.65601  0.00258  0.98669  1.0000
  H   H1492     1.0  0.70473  0.99153  0.98878  1.0000
  H   H1493     1.0  0.69713  0.91337  0.99718  1.0000
  H   H1494     1.0  0.91168  0.68336  0.98824  1.0000
  H   H1495     1.0  0.99783  0.97414  0.18918  1.0000
  C   C1480     1.0  0.00115  0.69234  0.02843  1.0000
  C   C1481     1.0  0.89152  0.00249  0.12391  1.0000
  H   H1496     1.0  0.89010  0.67057  0.00535  1.0000
  H   H1497     1.0  0.63924  0.99458  0.98706  1.0000
  S   S493      1.0  0.68693  0.00135  0.02363  1.0000
  C   C1482     1.0  0.69296  0.00108  0.98744  1.0000
  H   H1498     1.0  0.66706  0.97309  0.98855  1.0000
  C   C1483     1.0  0.67155  0.99052  0.98759  1.0000
  C   C1484     1.0  0.91617  0.77703  0.98743  1.0000
  S   S494      1.0  0.89971  0.00264  0.22191  1.0000
  H   H1499     1.0  0.00050  0.90142  0.16501  1.0000
  H   H1500     1.0  0.96228  0.00231  0.21106  1.0000
  C   C1485     1.0  0.82031  0.66997  0.99379  1.0000
  C   C1486     1.0  0.97039  0.83239  0.27208  1.0000
  Fe  Fe248     1.0  0.94141  0.72189  0.28031  1.0000
  S   S495      1.0  0.90966  0.73167  0.28401  1.0000
  S   S496      1.0  0.56152  0.91421  0.33673  1.0000
  C   C1487     1.0  0.97018  0.69880  0.33178  1.0000
  H   H1501     1.0  0.91873  0.78381  0.28085  1.0000
  C   C1488     1.0  0.56325  0.98868  0.37437  1.0000
  S   S497      1.0  0.96408  0.73236  0.29336  1.0000
  C   C1489     1.0  0.78099  0.99364  0.27041  1.0000
  H   H1502     1.0  0.51848  0.99699  0.26122  1.0000
  N   N129      1.0  0.95080  0.83624  0.27040  1.0000
  H   H1503     1.0  0.95426  0.68503  0.29829  1.0000
  C   C1490     1.0  0.93231  0.81909  0.27376  1.0000
  C   C1491     1.0  0.97048  0.71577  0.31988  1.0000
  Fe  Fe249     1.0  0.93201  0.70162  0.25652  1.0000
  H   H1504     1.0  0.95418  0.77648  0.28404  1.0000
  C   C1492     1.0  0.86187  0.67458  0.34283  1.0000
  H   H1505     1.0  0.92988  0.94335  0.24138  1.0000
  S   S498      1.0  0.52483  0.95387  0.33462  1.0000
  C   C1493     1.0  0.93409  0.82038  0.23787  1.0000
  H   H1506     1.0  0.62269  0.99315  0.38478  1.0000
  Fe  Fe250     1.0  0.52852  0.92066  0.34434  1.0000
  C   C1494     1.0  0.88779  0.95462  0.26385  1.0000
  H   H1507     1.0  0.94529  0.86553  0.27494  1.0000
  S   S499      1.0  0.74309  0.98674  0.29218  1.0000
  C   C1495     1.0  0.93720  0.79958  0.24321  1.0000
  H   H1508     1.0  0.98513  0.84599  0.26920  1.0000
  H   H1509     1.0  0.97899  0.69804  0.25505  1.0000
  C   C1496     1.0  0.59948  0.99405  0.28996  1.0000
  S   S500      1.0  0.94300  0.92079  0.26591  1.0000
  H   H1510     1.0  0.94449  0.97445  0.27450  1.0000
  C   C1497     1.0  0.72638  0.98046  0.26062  1.0000
  C   C1498     1.0  0.83272  0.99820  0.28193  1.0000
  C   C1499     1.0  0.96433  0.71087  0.30788  1.0000
  C   C1500     1.0  0.92158  0.93345  0.26492  1.0000
  C   C1501     1.0  0.90716  0.93360  0.27786  1.0000
  C   C1502     1.0  0.89020  0.94404  0.27733  1.0000
  S   S501      1.0  0.86657  0.96780  0.26357  1.0000
  H   H1511     1.0  0.84403  0.67023  0.34473  1.0000
  H   H1512     1.0  0.90905  0.92556  0.28832  1.0000
  H   H1513     1.0  0.87902  0.94402  0.28737  1.0000
  H   H1514     1.0  0.63911  0.98175  0.37273  1.0000
  C   C1503     1.0  0.51598  0.98818  0.30218  1.0000
  C   C1504     1.0  0.52902  0.99182  0.36854  1.0000
  S   S502      1.0  0.64407  0.98059  0.34247  1.0000
  H   H1515     1.0  0.74168  0.97549  0.26159  1.0000
  C   C1505     1.0  0.94946  0.85892  0.26546  1.0000
  C   C1506     1.0  0.96433  0.67693  0.33153  1.0000
  H   H1516     1.0  0.77815  0.97598  0.27387  1.0000
  C   C1507     1.0  0.97187  0.81087  0.27709  1.0000
  H   H1517     1.0  0.62486  0.00109  0.36556  1.0000
  S   S503      1.0  0.51042  0.91843  0.36721  1.0000
  C   C1508     1.0  0.58424  0.93280  0.33843  1.0000
  C   C1509     1.0  0.58123  0.94630  0.34758  1.0000
  C   C1510     1.0  0.59973  0.96075  0.34892  1.0000
  C   C1511     1.0  0.62114  0.96242  0.34066  1.0000
  C   C1512     1.0  0.62407  0.94931  0.33126  1.0000
  C   C1513     1.0  0.60569  0.93421  0.33037  1.0000
  H   H1518     1.0  0.56473  0.94513  0.35390  1.0000
  H   H1519     1.0  0.59745  0.97063  0.35636  1.0000
  H   H1520     1.0  0.64058  0.95021  0.32507  1.0000
  H   H1521     1.0  0.60811  0.92359  0.32342  1.0000
  Fe  Fe251     1.0  0.89448  0.69824  0.28236  1.0000
  C   C1514     1.0  0.82116  0.97633  0.28944  1.0000
  S   S504      1.0  0.92568  0.68763  0.28058  1.0000
  S   S505      1.0  0.94506  0.68074  0.24322  1.0000
  H   H1522     1.0  0.71803  0.97086  0.25435  1.0000
  H   H1523     1.0  0.53096  0.94033  0.29999  1.0000
  Fe  Fe252     1.0  0.67134  0.99649  0.32149  1.0000
  C   C1515     1.0  0.54713  0.93635  0.29936  1.0000
  H   H1524     1.0  0.55041  0.92789  0.29077  1.0000
  H   H1525     1.0  0.90916  0.71005  0.31876  1.0000
  H   H1526     1.0  0.57483  0.97911  0.37621  1.0000
  S   S506      1.0  0.89969  0.71021  0.25807  1.0000
  C   C1516     1.0  0.93323  0.79737  0.27871  1.0000
  H   H1527     1.0  0.71550  0.97620  0.27198  1.0000
  C   C1517     1.0  0.89837  0.69682  0.32817  1.0000
  Fe  Fe253     1.0  0.91839  0.74283  0.25951  1.0000
  H   H1528     1.0  0.97515  0.73267  0.32010  1.0000
  H   H1529     1.0  0.99181  0.81581  0.24176  1.0000
  H   H1530     1.0  0.98752  0.80785  0.27816  1.0000
  C   C1518     1.0  0.97103  0.98279  0.25474  1.0000
  H   H1531     1.0  0.52429  0.94755  0.40281  1.0000
  C   C1519     1.0  0.51776  0.99465  0.27265  1.0000
  H   H1532     1.0  0.97454  0.70262  0.34118  1.0000
  C   C1520     1.0  0.54432  0.97969  0.37049  1.0000
  H   H1533     1.0  0.54140  0.96328  0.36925  1.0000
  C   C1521     1.0  0.58302  0.95523  0.30149  1.0000
  H   H1534     1.0  0.58394  0.93971  0.30798  1.0000
  C   C1522     1.0  0.87539  0.69200  0.33085  1.0000
  H   H1535     1.0  0.51500  0.98596  0.31360  1.0000
  C   C1523     1.0  0.80086  0.97170  0.29988  1.0000
  H   H1536     1.0  0.86811  0.70128  0.32339  1.0000
  C   C1524     1.0  0.99143  0.99730  0.24630  1.0000
  C   C1525     1.0  0.95815  0.79804  0.24443  1.0000
  C   C1526     1.0  0.90220  0.95446  0.25087  1.0000
  C   C1527     1.0  0.50568  0.91464  0.40470  1.0000
  H   H1537     1.0  0.57516  0.99624  0.34070  1.0000
  H   H1538     1.0  0.96345  0.96922  0.25114  1.0000
  C   C1528     1.0  0.91906  0.94378  0.25140  1.0000
  H   H1539     1.0  0.82784  0.96309  0.28699  1.0000
  S   S507      1.0  0.99747  0.91639  0.24346  1.0000
  C   C1529     1.0  0.95849  0.68897  0.30763  1.0000
  Fe  Fe254     1.0  0.96442  0.92289  0.24402  1.0000
  C   C1530     1.0  0.50338  0.97179  0.29784  1.0000
  S   S508      1.0  0.91466  0.77591  0.24811  1.0000
  H   H1540     1.0  0.99369  0.72658  0.26614  1.0000
  C   C1531     1.0  0.98689  0.69381  0.26362  1.0000
  C   C1532     1.0  0.56472  0.97557  0.28710  1.0000
  H   H1541     1.0  0.93674  0.85993  0.25943  1.0000
  H   H1542     1.0  0.79148  0.95480  0.30554  1.0000
  C   C1533     1.0  0.50903  0.93736  0.40219  1.0000
  S   S509      1.0  0.50481  0.98073  0.36421  1.0000
  N   N130      1.0  0.56521  0.95628  0.29610  1.0000
  H   H1543     1.0  0.54528  0.92478  0.31016  1.0000
  C   C1534     1.0  0.79250  0.98893  0.30281  1.0000
  S   S510      1.0  0.95127  0.73508  0.25590  1.0000
  S   S511      1.0  0.67986  0.98406  0.30190  1.0000
  H   H1544     1.0  0.91684  0.82210  0.27227  1.0000
  H   H1545     1.0  0.96084  0.78218  0.24847  1.0000
  H   H1546     1.0  0.96547  0.86971  0.25779  1.0000
  Fe  Fe255     1.0  0.87240  0.99375  0.24257  1.0000
  C   C1535     1.0  0.90747  0.68390  0.33744  1.0000
  C   C1536     1.0  0.99528  0.71004  0.26976  1.0000
  C   C1537     1.0  0.95877  0.67202  0.31936  1.0000
  C   C1538     1.0  0.95315  0.79327  0.28040  1.0000
  H   H1547     1.0  0.51862  0.90733  0.40724  1.0000
  C   C1539     1.0  0.60030  0.97411  0.29865  1.0000
  C   C1540     1.0  0.96044  0.98566  0.26795  1.0000
  H   H1548     1.0  0.61431  0.97327  0.30307  1.0000
  H   H1549     1.0  0.55115  0.97614  0.28225  1.0000
  Fe  Fe256     1.0  0.71523  0.00178  0.29933  1.0000
  H   H1550     1.0  0.92525  0.68750  0.33518  1.0000
  H   H1551     1.0  0.81085  0.99874  0.25340  1.0000
  C   C1541     1.0  0.50417  0.97523  0.28308  1.0000
  H   H1552     1.0  0.84842  0.00159  0.27378  1.0000
  C   C1542     1.0  0.58169  0.99481  0.28401  1.0000
  Fe  Fe257     1.0  0.50382  0.95016  0.35696  1.0000
  H   H1553     1.0  0.77643  0.98551  0.31062  1.0000
  S   S512      1.0  0.86195  0.67556  0.29759  1.0000
  H   H1554     1.0  0.89999  0.96201  0.24046  1.0000
  C   C1543     1.0  0.63413  0.99691  0.37366  1.0000
  N   N131      1.0  0.98835  0.67280  0.26846  1.0000
  C   C1544     1.0  0.97572  0.81715  0.24060  1.0000
  H   H1555     1.0  0.54320  0.00176  0.33439  1.0000
  H   H1556     1.0  0.91799  0.82175  0.23677  1.0000
  C   C1545     1.0  0.97067  0.00287  0.27269  1.0000
  Fe  Fe258     1.0  0.82811  0.96194  0.71544  1.0000
  S   S513      1.0  0.83791  0.93554  0.70637  1.0000
  C   C1546     1.0  0.77675  0.92209  0.70797  1.0000
  H   H1557     1.0  0.79052  0.92646  0.71244  1.0000
  H   H1558     1.0  0.88441  0.95537  0.70532  1.0000
  S   S514      1.0  0.93200  0.89390  0.71132  1.0000
  N   N132      1.0  0.77963  0.91436  0.69599  1.0000
  Fe  Fe259     1.0  0.95159  0.86909  0.71534  1.0000
  S   S515      1.0  0.96398  0.84795  0.70137  1.0000
  C   C1547     1.0  0.57010  0.98804  0.56889  1.0000
  H   H1559     1.0  0.89272  0.74084  0.70115  1.0000
  Fe  Fe260     1.0  0.53547  0.87988  0.59847  1.0000
  S   S516      1.0  0.52671  0.91197  0.59345  1.0000
  S   S517      1.0  0.55154  0.87288  0.61717  1.0000
  C   C1548     1.0  0.55758  0.87431  0.72136  1.0000
  C   C1549     1.0  0.59397  0.95578  0.64027  1.0000
  S   S518      1.0  0.99898  0.74817  0.64086  1.0000
  Fe  Fe261     1.0  0.53538  0.91082  0.57022  1.0000
  S   S519      1.0  0.55324  0.93924  0.55028  1.0000
  H   H1560     1.0  0.55939  0.88449  0.52851  1.0000
  H   H1561     1.0  0.98113  0.69217  0.63726  1.0000
  S   S520      1.0  0.54642  0.87989  0.57488  1.0000
  H   H1562     1.0  0.60555  0.96169  0.64598  1.0000
  C   C1550     1.0  0.97223  0.68355  0.63108  1.0000
  S   S521      1.0  0.96790  0.95247  0.70711  1.0000
  S   S522      1.0  0.52443  0.92802  0.68470  1.0000
  H   H1563     1.0  0.72794  0.90764  0.69172  1.0000
  S   S523      1.0  0.84662  0.98083  0.72758  1.0000
  H   H1564     1.0  0.86624  0.90821  0.70021  1.0000
  H   H1565     1.0  0.67515  0.99647  0.68793  1.0000
  S   S524      1.0  0.52378  0.82658  0.68913  1.0000
  H   H1566     1.0  0.55207  0.93527  0.62024  1.0000
  N   N133      1.0  0.91480  0.74915  0.71347  1.0000
  H   H1567     1.0  0.54955  0.89719  0.54226  1.0000
  Fe  Fe262     1.0  0.68154  0.93749  0.66456  1.0000
  S   S525      1.0  0.65463  0.93332  0.68475  1.0000
  S   S526      1.0  0.71812  0.94525  0.66448  1.0000
  Fe  Fe263     1.0  0.64745  0.93001  0.64641  1.0000
  S   S527      1.0  0.61888  0.92599  0.66538  1.0000
  S   S528      1.0  0.63994  0.92900  0.62479  1.0000
  Fe  Fe264     1.0  0.64076  0.95411  0.66945  1.0000
  H   H1568     1.0  0.51791  0.83309  0.65484  1.0000
  Fe  Fe265     1.0  0.63566  0.90550  0.67846  1.0000
  S   S529      1.0  0.61722  0.87261  0.69448  1.0000
  S   S530      1.0  0.66857  0.96015  0.64944  1.0000
  S   S531      1.0  0.66349  0.90771  0.65926  1.0000
  Fe  Fe266     1.0  0.93204  0.71079  0.68237  1.0000
  S   S532      1.0  0.90175  0.71802  0.67693  1.0000
  C   C1551     1.0  0.98733  0.74262  0.61620  1.0000
  Fe  Fe267     1.0  0.96309  0.74003  0.65335  1.0000
  S   S533      1.0  0.93549  0.75051  0.64561  1.0000
  C   C1552     1.0  0.52009  0.98844  0.56497  1.0000
  Fe  Fe268     1.0  0.92322  0.75313  0.66851  1.0000
  S   S534      1.0  0.90908  0.77935  0.67612  1.0000
  Fe  Fe269     1.0  0.91693  0.71451  0.65483  1.0000
  S   S535      1.0  0.90315  0.69618  0.64013  1.0000
  S   S536      1.0  0.95252  0.74560  0.67534  1.0000
  S   S537      1.0  0.94546  0.70426  0.66121  1.0000
  C   C1553     1.0  0.97680  0.70302  0.69441  1.0000
  Fe  Fe270     1.0  0.91470  0.88014  0.73536  1.0000
  H   H1569     1.0  0.97443  0.71933  0.69239  1.0000
  C   C1554     1.0  0.84839  0.91814  0.71785  1.0000
  H   H1570     1.0  0.52276  0.91369  0.53579  1.0000
  C   C1555     1.0  0.86667  0.89113  0.73568  1.0000
  H   H1571     1.0  0.97822  0.73683  0.59714  1.0000
  H   H1572     1.0  0.67535  0.98610  0.67256  1.0000
  H   H1573     1.0  0.54233  0.92217  0.64736  1.0000
  H   H1574     1.0  0.97282  0.74795  0.62011  1.0000
  S   S538      1.0  0.93162  0.68761  0.70317  1.0000
  N   N134      1.0  0.91126  0.96535  0.71399  1.0000
  Fe  Fe271     1.0  0.51078  0.86258  0.57714  1.0000
  C   C1556     1.0  0.52337  0.94577  0.66851  1.0000
  C   C1557     1.0  0.53937  0.96609  0.66211  1.0000
  C   C1558     1.0  0.90902  0.94285  0.72243  1.0000
  C   C1559     1.0  0.52330  0.97350  0.64185  1.0000
  H   H1575     1.0  0.56954  0.98968  0.57969  1.0000
  H   H1576     1.0  0.50380  0.94862  0.61451  1.0000
  H   H1577     1.0  0.63263  0.97958  0.62373  1.0000
  H   H1578     1.0  0.88263  0.88457  0.71596  1.0000
  S   S539      1.0  0.50399  0.86760  0.70878  1.0000
  C   C1560     1.0  0.92521  0.78264  0.71990  1.0000
  C   C1561     1.0  0.54972  0.83959  0.69042  1.0000
  C   C1562     1.0  0.55777  0.86252  0.68546  1.0000
  C   C1563     1.0  0.57867  0.87281  0.68642  1.0000
  C   C1564     1.0  0.59138  0.86023  0.69257  1.0000
  C   C1565     1.0  0.58313  0.83735  0.69771  1.0000
  C   C1566     1.0  0.56247  0.82702  0.69647  1.0000
  H   H1579     1.0  0.54791  0.87233  0.68084  1.0000
  H   H1580     1.0  0.58447  0.89046  0.68286  1.0000
  H   H1581     1.0  0.59279  0.82754  0.70260  1.0000
  H   H1582     1.0  0.55621  0.80930  0.70042  1.0000
  C   C1567     1.0  0.57348  0.94098  0.64840  1.0000
  H   H1583     1.0  0.92293  0.94184  0.72734  1.0000
  H   H1584     1.0  0.94008  0.73277  0.70908  1.0000
  C   C1568     1.0  0.98139  0.97134  0.71492  1.0000
  C   C1569     1.0  0.56332  0.96488  0.55307  1.0000
  C   C1570     1.0  0.57085  0.98362  0.54102  1.0000
  C   C1571     1.0  0.93578  0.74676  0.71213  1.0000
  H   H1585     1.0  0.93816  0.97974  0.72133  1.0000
  H   H1586     1.0  0.56919  0.93556  0.66026  1.0000
  C   C1572     1.0  0.56322  0.96707  0.56701  1.0000
  H   H1587     1.0  0.57110  0.98205  0.53021  1.0000
  H   H1588     1.0  0.70916  0.99405  0.65321  1.0000
  C   C1573     1.0  0.90944  0.76686  0.71720  1.0000
  H   H1589     1.0  0.55774  0.95271  0.57634  1.0000
  H   H1590     1.0  0.76473  0.90359  0.68044  1.0000
  H   H1591     1.0  0.80803  0.90302  0.69759  1.0000
  H   H1592     1.0  0.51035  0.84044  0.63055  1.0000
  H   H1593     1.0  0.98486  0.99922  0.69689  1.0000
  H   H1594     1.0  0.92109  0.79695  0.72255  1.0000
  H   H1595     1.0  0.50930  0.95691  0.56135  1.0000
  C   C1574     1.0  0.57450  0.89139  0.61921  1.0000
  C   C1575     1.0  0.57704  0.89003  0.63329  1.0000
  C   C1576     1.0  0.59650  0.90226  0.63525  1.0000
  C   C1577     1.0  0.61381  0.91577  0.62310  1.0000
  C   C1578     1.0  0.61089  0.91781  0.60906  1.0000
  C   C1579     1.0  0.59131  0.90580  0.60712  1.0000
  H   H1596     1.0  0.56412  0.87903  0.64275  1.0000
  H   H1597     1.0  0.59835  0.90057  0.64614  1.0000
  H   H1598     1.0  0.62410  0.92828  0.59958  1.0000
  H   H1599     1.0  0.58965  0.90700  0.59621  1.0000
  C   C1580     1.0  0.94855  0.83026  0.69356  1.0000
  C   C1581     1.0  0.95919  0.81726  0.68632  1.0000
  C   C1582     1.0  0.94737  0.80182  0.68081  1.0000
  C   C1583     1.0  0.92476  0.79937  0.68230  1.0000
  C   C1584     1.0  0.91419  0.81274  0.68924  1.0000
  C   C1585     1.0  0.92598  0.82806  0.69490  1.0000
  H   H1600     1.0  0.97667  0.81897  0.68511  1.0000
  H   H1601     1.0  0.95583  0.79196  0.67530  1.0000
  H   H1602     1.0  0.89674  0.81110  0.69035  1.0000
  H   H1603     1.0  0.91761  0.83806  0.70037  1.0000
  C   C1586     1.0  0.75112  0.97549  0.69557  1.0000
  C   C1587     1.0  0.76375  0.97029  0.68388  1.0000
  C   C1588     1.0  0.75336  0.96084  0.67459  1.0000
  C   C1589     1.0  0.73021  0.95613  0.67698  1.0000
  C   C1590     1.0  0.71752  0.96069  0.68894  1.0000
  C   C1591     1.0  0.72794  0.97046  0.69808  1.0000
  H   H1604     1.0  0.78160  0.97423  0.68170  1.0000
  H   H1605     1.0  0.76338  0.95741  0.66538  1.0000
  H   H1606     1.0  0.69972  0.95710  0.69099  1.0000
  H   H1607     1.0  0.54753  0.87038  0.73289  1.0000
  C   C1592     1.0  0.95210  0.76251  0.71442  1.0000
  H   H1608     1.0  0.90913  0.93188  0.71520  1.0000
  N   N135      1.0  0.52507  0.88246  0.53300  1.0000
  C   C1593     1.0  0.73838  0.91910  0.70881  1.0000
  C   C1594     1.0  0.62801  0.99864  0.65736  1.0000
  H   H1609     1.0  0.59938  0.89998  0.71023  1.0000
  H   H1610     1.0  0.93252  0.68727  0.61363  1.0000
  H   H1611     1.0  0.58877  0.96108  0.60630  1.0000
  N   N136      1.0  0.56486  0.89817  0.71462  1.0000
  C   C1595     1.0  0.54931  0.90960  0.71363  1.0000
  C   C1596     1.0  0.58698  0.90895  0.70946  1.0000
  C   C1597     1.0  0.55573  0.93238  0.70730  1.0000
  C   C1598     1.0  0.59394  0.93170  0.70300  1.0000
  C   C1599     1.0  0.57819  0.94343  0.70183  1.0000
  S   S540      1.0  0.82885  0.99146  0.69805  1.0000
  H   H1612     1.0  0.54332  0.94131  0.70633  1.0000
  N   N137      1.0  0.59939  0.96256  0.62532  1.0000
  H   H1613     1.0  0.58337  0.96104  0.69661  1.0000
  H   H1614     1.0  0.61142  0.94025  0.69883  1.0000
  C   C1600     1.0  0.98562  0.96447  0.72843  1.0000
  C   C1601     1.0  0.76239  0.90918  0.69016  1.0000
  H   H1615     1.0  0.55199  0.99540  0.64374  1.0000
  C   C1602     1.0  0.51562  0.89960  0.53246  1.0000
  S   S541      1.0  0.52267  0.99039  0.62521  1.0000
  C   C1603     1.0  0.89857  0.99028  0.69767  1.0000
  C   C1604     1.0  0.89704  0.96898  0.70572  1.0000
  C   C1605     1.0  0.98822  0.99379  0.70730  1.0000
  C   C1606     1.0  0.56377  0.94096  0.62595  1.0000
  H   H1616     1.0  0.71800  0.97445  0.70707  1.0000
  C   C1607     1.0  0.68234  0.00070  0.67590  1.0000
  H   H1617     1.0  0.62908  0.97105  0.60809  1.0000
  C   C1608     1.0  0.95571  0.69123  0.62614  1.0000
  C   C1609     1.0  0.80160  0.91238  0.68919  1.0000
  N   N138      1.0  0.62365  0.86671  0.62803  1.0000
  C   C1610     1.0  0.60333  0.85290  0.62996  1.0000
  C   C1611     1.0  0.63045  0.87011  0.63985  1.0000
  C   C1612     1.0  0.58903  0.84242  0.64401  1.0000
  C   C1613     1.0  0.61656  0.85989  0.65406  1.0000
  C   C1614     1.0  0.59574  0.84597  0.65610  1.0000
  C   C1615     1.0  0.63855  0.87725  0.61322  1.0000
  H   H1618     1.0  0.59775  0.85046  0.62060  1.0000
  H   H1619     1.0  0.64648  0.88121  0.63831  1.0000
  H   H1620     1.0  0.57267  0.83199  0.64550  1.0000
  H   H1621     1.0  0.62178  0.86290  0.66344  1.0000
  H   H1622     1.0  0.58473  0.83807  0.66702  1.0000
  H   H1623     1.0  0.64961  0.89331  0.61256  1.0000
  H   H1624     1.0  0.64887  0.86641  0.61004  1.0000
  H   H1625     1.0  0.62900  0.88084  0.60518  1.0000
  H   H1626     1.0  0.90399  0.71893  0.70837  1.0000
  S   S542      1.0  0.76354  0.99033  0.70630  1.0000
  C   C1616     1.0  0.62113  0.97759  0.61683  1.0000
  C   C1617     1.0  0.74147  0.91130  0.69655  1.0000
  H   H1627     1.0  0.80134  0.90371  0.68064  1.0000
  H   H1628     1.0  0.81341  0.92900  0.68415  1.0000
  H   H1629     1.0  0.54738  0.86626  0.71524  1.0000
  C   C1618     1.0  0.94672  0.78056  0.71834  1.0000
  H   H1630     1.0  0.88311  0.72615  0.72042  1.0000
  C   C1619     1.0  0.94493  0.68067  0.61768  1.0000
  C   C1620     1.0  0.86237  0.90663  0.71181  1.0000
  H   H1631     1.0  0.55187  0.97106  0.66742  1.0000
  H   H1632     1.0  0.98008  0.94726  0.73450  1.0000
  H   H1633     1.0  0.61930  0.99405  0.61183  1.0000
  C   C1621     1.0  0.58452  0.95556  0.61815  1.0000
  S   S543      1.0  0.97812  0.89255  0.72044  1.0000
  H   H1634     1.0  0.54269  0.86777  0.54664  1.0000
  C   C1622     1.0  0.50714  0.95333  0.64836  1.0000
  C   C1623     1.0  0.54519  0.88305  0.53782  1.0000
  C   C1624     1.0  0.92700  0.98257  0.71468  1.0000
  S   S544      1.0  0.79452  0.95893  0.72974  1.0000
  S   S545      1.0  0.62616  0.98090  0.67428  1.0000
  Fe  Fe272     1.0  0.95676  0.91592  0.71854  1.0000
  H   H1635     1.0  0.53177  0.90116  0.71762  1.0000
  H   H1636     1.0  0.52314  0.85080  0.52972  1.0000
  C   C1625     1.0  0.71798  0.00204  0.65969  1.0000
  C   C1626     1.0  0.99829  0.70043  0.69094  1.0000
  C   C1627     1.0  0.87174  0.89336  0.72069  1.0000
  H   H1637     1.0  0.89326  0.93669  0.73135  1.0000
  H   H1638     1.0  0.96887  0.76092  0.71295  1.0000
  C   C1628     1.0  0.53952  0.97983  0.64869  1.0000
  C   C1629     1.0  0.55833  0.93354  0.64116  1.0000
  H   H1639     1.0  0.89305  0.76917  0.71774  1.0000
  C   C1630     1.0  0.89785  0.73293  0.71073  1.0000
  C   C1631     1.0  0.51607  0.86470  0.52882  1.0000
  H   H1640     1.0  0.95930  0.79331  0.71974  1.0000
  C   C1632     1.0  0.95851  0.68456  0.70053  1.0000
  C   C1633     1.0  0.99043  0.73641  0.60318  1.0000
  H   H1641     1.0  0.72244  0.92145  0.71361  1.0000
  H   H1642     1.0  0.59294  0.99573  0.66208  1.0000
  C   C1634     1.0  0.84346  0.91614  0.73282  1.0000
  C   C1635     1.0  0.50726  0.93941  0.66161  1.0000
  Fe  Fe273     1.0  0.79576  0.98934  0.71277  1.0000
  C   C1636     1.0  0.51122  0.98842  0.59026  1.0000
  C   C1637     1.0  0.99758  0.97990  0.73388  1.0000
  C   C1638     1.0  0.52111  0.99974  0.57546  1.0000
  C   C1639     1.0  0.50944  0.96602  0.56938  1.0000
  H   H1643     1.0  0.88706  0.99316  0.69128  1.0000
  H   H1644     1.0  0.75405  0.93130  0.72383  1.0000
  H   H1645     1.0  0.52826  0.99689  0.55350  1.0000
  C   C1640     1.0  0.75613  0.92464  0.71454  1.0000
  H   H1646     1.0  0.57181  0.86698  0.72125  1.0000
  H   H1647     1.0  0.51234  0.99726  0.59836  1.0000
  H   H1648     1.0  0.95144  0.70558  0.62861  1.0000
  C   C1641     1.0  0.00144  0.67937  0.69296  1.0000
  H   H1649     1.0  0.74999  0.00282  0.64645  1.0000
  C   C1642     1.0  0.60891  0.00283  0.65400  1.0000
  S   S546      1.0  0.50163  0.83515  0.56643  1.0000
  Fe  Fe274     1.0  0.89132  0.72509  0.92719  1.0000
  S   S547      1.0  0.91763  0.71650  0.93714  1.0000
  S   S548      1.0  0.86658  0.69835  0.92369  1.0000
  Fe  Fe275     1.0  0.90722  0.77380  0.92492  1.0000
  S   S549      1.0  0.93368  0.76838  0.93590  1.0000
  S   S550      1.0  0.90486  0.80857  0.91723  1.0000
  Fe  Fe276     1.0  0.94005  0.74758  0.92091  1.0000
  Fe  Fe277     1.0  0.90807  0.73804  0.95093  1.0000
  C   C1643     1.0  0.98481  0.88099  0.78415  1.0000
  S   S551      1.0  0.91472  0.75411  0.90932  1.0000
  S   S552      1.0  0.88066  0.74542  0.94165  1.0000
  C   C1644     1.0  0.85229  0.90229  0.74179  1.0000
  Fe  Fe278     1.0  0.94254  0.91939  0.83479  1.0000
  S   S553      1.0  0.90889  0.91731  0.83135  1.0000
  S   S554      1.0  0.96374  0.89791  0.82832  1.0000
  S   S555      1.0  0.95287  0.92140  0.85500  1.0000
  H   H1650     1.0  0.76563  0.99470  0.86327  1.0000
  S   S556      1.0  0.86506  0.97573  0.86571  1.0000
  H   H1651     1.0  0.93913  0.80003  0.89602  1.0000
  H   H1652     1.0  0.87548  0.68177  0.95184  1.0000
  C   C1645     1.0  0.90562  0.74007  0.98528  1.0000
  H   H1653     1.0  0.96740  0.69260  0.93475  1.0000
  H   H1654     1.0  0.97538  0.91462  0.75535  1.0000
  Fe  Fe279     1.0  0.98003  0.95090  0.84024  1.0000
  H   H1655     1.0  0.94138  0.87670  0.80331  1.0000
  C   C1646     1.0  0.96924  0.68942  0.92391  1.0000
  C   C1647     1.0  0.73484  0.98296  0.96744  1.0000
  Fe  Fe280     1.0  0.69053  0.98362  0.94046  1.0000
  S   S557      1.0  0.66576  0.95416  0.95715  1.0000
  C   C1648     1.0  0.96481  0.82656  0.91767  1.0000
  C   C1649     1.0  0.99271  0.75189  0.91781  1.0000
  S   S558      1.0  0.98100  0.87173  0.86182  1.0000
  Fe  Fe281     1.0  0.55492  0.90446  0.95436  1.0000
  S   S559      1.0  0.58445  0.91935  0.93479  1.0000
  S   S560      1.0  0.54619  0.86891  0.96695  1.0000
  C   C1650     1.0  0.95742  0.85377  0.87556  1.0000
  H   H1656     1.0  0.93613  0.97016  0.86476  1.0000
  C   C1651     1.0  0.76889  0.97527  0.97975  1.0000
  S   S561      1.0  0.68774  0.00094  0.91863  1.0000
  C   C1652     1.0  0.64427  0.94263  0.95053  1.0000
  C   C1653     1.0  0.64597  0.94831  0.93558  1.0000
  C   C1654     1.0  0.62783  0.94044  0.93063  1.0000
  C   C1655     1.0  0.60817  0.92644  0.94062  1.0000
  C   C1656     1.0  0.60714  0.91941  0.95544  1.0000
  C   C1657     1.0  0.62498  0.92785  0.96043  1.0000
  H   H1657     1.0  0.66119  0.95871  0.92780  1.0000
  H   H1658     1.0  0.62889  0.94550  0.91911  1.0000
  H   H1659     1.0  0.59257  0.90754  0.96309  1.0000
  H   H1660     1.0  0.62369  0.92313  0.97199  1.0000
  C   C1658     1.0  0.90086  0.87527  0.77772  1.0000
  S   S562      1.0  0.87895  0.87523  0.74673  1.0000
  C   C1659     1.0  0.63792  0.88176  0.97965  1.0000
  H   H1661     1.0  0.77730  0.95849  0.88952  1.0000
  H   H1662     1.0  0.80524  0.67087  0.96250  1.0000
  Fe  Fe282     1.0  0.95697  0.87869  0.74365  1.0000
  C   C1660     1.0  0.50443  0.80193  0.94302  1.0000
  H   H1663     1.0  0.85338  0.71857  0.97151  1.0000
  H   H1664     1.0  0.98716  0.87870  0.89529  1.0000
  C   C1661     1.0  0.96820  0.84922  0.91251  1.0000
  N   N139      1.0  0.61173  0.00018  0.94998  1.0000
  S   S563      1.0  0.97459  0.75371  0.90695  1.0000
  H   H1665     1.0  0.91024  0.76940  0.96801  1.0000
  H   H1666     1.0  0.99814  0.89167  0.80054  1.0000
  C   C1662     1.0  0.99765  0.85022  0.89203  1.0000
  H   H1667     1.0  0.92046  0.96829  0.81331  1.0000
  C   C1663     1.0  0.89483  0.93161  0.84172  1.0000
  C   C1664     1.0  0.88146  0.94361  0.83590  1.0000
  C   C1665     1.0  0.87189  0.95681  0.84346  1.0000
  C   C1666     1.0  0.87496  0.95737  0.85711  1.0000
  C   C1667     1.0  0.88755  0.94465  0.86322  1.0000
  C   C1668     1.0  0.89774  0.93200  0.85543  1.0000
  H   H1668     1.0  0.87905  0.94327  0.82534  1.0000
  H   H1669     1.0  0.86210  0.96657  0.83870  1.0000
  H   H1670     1.0  0.82889  0.00257  0.80362  1.0000
  S   S564      1.0  0.55395  0.91762  0.97375  1.0000
  C   C1669     1.0  0.92405  0.82536  0.90053  1.0000
  C   C1670     1.0  0.93952  0.81715  0.89247  1.0000
  C   C1671     1.0  0.94139  0.86184  0.88324  1.0000
  C   C1672     1.0  0.92479  0.84767  0.89571  1.0000
  H   H1671     1.0  0.94228  0.87913  0.87995  1.0000
  H   H1672     1.0  0.91282  0.85412  0.90185  1.0000
  H   H1673     1.0  0.99242  0.99717  0.80988  1.0000
  C   C1673     1.0  0.51508  0.82284  0.93341  1.0000
  H   H1674     1.0  0.72161  0.98577  0.96273  1.0000
  H   H1675     1.0  0.81520  0.97542  0.87233  1.0000
  C   C1674     1.0  0.80935  0.98212  0.88121  1.0000
  S   S565      1.0  0.52011  0.90450  0.95381  1.0000
  H   H1676     1.0  0.97197  0.75567  0.95903  1.0000
  C   C1675     1.0  0.99971  0.73606  0.94068  1.0000
  C   C1676     1.0  0.94113  0.69570  0.91108  1.0000
  H   H1677     1.0  0.96747  0.73016  0.93694  1.0000
  C   C1677     1.0  0.95614  0.83130  0.88005  1.0000
  H   H1678     1.0  0.99619  0.79988  0.88938  1.0000
  H   H1679     1.0  0.90148  0.86601  0.76975  1.0000
  C   C1678     1.0  0.93261  0.88975  0.80365  1.0000
  C   C1679     1.0  0.82380  0.98754  0.77287  1.0000
  N   N140      1.0  0.91585  0.88817  0.79563  1.0000
  Fe  Fe283     1.0  0.97624  0.90209  0.84753  1.0000
  C   C1680     1.0  0.67360  0.90239  0.97999  1.0000
  C   C1681     1.0  0.89980  0.89896  0.79803  1.0000
  H   H1680     1.0  0.83267  0.92505  0.73752  1.0000
  S   S566      1.0  0.96767  0.95017  0.82071  1.0000
  H   H1681     1.0  0.84836  0.90060  0.75340  1.0000
  S   S567      1.0  0.96943  0.86741  0.76302  1.0000
  C   C1682     1.0  0.65815  0.89741  0.97232  1.0000
  H   H1682     1.0  0.87099  0.90650  0.79235  1.0000
  H   H1683     1.0  0.98348  0.86383  0.78893  1.0000
  H   H1684     1.0  0.92046  0.79465  0.98264  1.0000
  C   C1683     1.0  0.92950  0.98537  0.81095  1.0000
  Fe  Fe284     1.0  0.98999  0.92920  0.81588  1.0000
  C   C1684     1.0  0.88431  0.88604  0.78018  1.0000
  C   C1685     1.0  0.78824  0.97250  0.89094  1.0000
  S   S568      1.0  0.93790  0.90386  0.74222  1.0000
  S   S569      1.0  0.80329  0.97991  0.76413  1.0000
  H   H1685     1.0  0.92474  0.88779  0.81536  1.0000
  C   C1686     1.0  0.97792  0.81609  0.90973  1.0000
  H   H1686     1.0  0.90750  0.92226  0.86016  1.0000
  S   S570      1.0  0.72604  0.98456  0.93180  1.0000
  C   C1687     1.0  0.51109  0.82854  0.91977  1.0000
  C   C1688     1.0  0.81345  0.67645  0.97010  1.0000
  C   C1689     1.0  0.81762  0.99180  0.78645  1.0000
  H   H1687     1.0  0.91273  0.99270  0.85519  1.0000
  H   H1688     1.0  0.83374  0.70683  0.95426  1.0000
  C   C1690     1.0  0.73080  0.96423  0.97915  1.0000
  C   C1691     1.0  0.91990  0.68949  0.90931  1.0000
  H   H1689     1.0  0.51891  0.84493  0.91237  1.0000
  H   H1690     1.0  0.94505  0.90602  0.79888  1.0000
  C   C1692     1.0  0.88376  0.89802  0.79037  1.0000
  Fe  Fe285     1.0  0.81311  0.98152  0.74011  1.0000
  C   C1693     1.0  0.91048  0.76279  0.97916  1.0000
  C   C1694     1.0  0.84060  0.70311  0.97525  1.0000
  N   N141      1.0  0.94731  0.68257  0.92168  1.0000
  H   H1691     1.0  0.99037  0.94258  0.76688  1.0000
  H   H1692     1.0  0.85111  0.98628  0.75611  1.0000
  C   C1695     1.0  0.98488  0.86120  0.89971  1.0000
  H   H1693     1.0  0.62553  0.87826  0.97391  1.0000
  H   H1694     1.0  0.68907  0.91493  0.97424  1.0000
  H   H1695     1.0  0.54578  0.95622  0.98502  1.0000
  C   C1696     1.0  0.99539  0.91895  0.78440  1.0000
  C   C1697     1.0  0.84616  0.98982  0.76642  1.0000
  H   H1696     1.0  0.87197  0.88513  0.77417  1.0000
  H   H1697     1.0  0.89927  0.90828  0.80595  1.0000
  C   C1698     1.0  0.60295  0.98070  0.94755  1.0000
  H   H1698     1.0  0.97479  0.79838  0.91352  1.0000
  H   H1699     1.0  0.76452  0.97408  0.90966  1.0000
  H   H1700     1.0  0.61275  0.96916  0.94640  1.0000
  C   C1699     1.0  0.82946  0.69664  0.96549  1.0000
  C   C1700     1.0  0.50771  0.98359  0.97830  1.0000
  C   C1701     1.0  0.94164  0.99178  0.82019  1.0000
  H   H1701     1.0  0.95238  0.71132  0.90417  1.0000
  H   H1702     1.0  0.96837  0.82492  0.87411  1.0000
  Fe  Fe286     1.0  0.51075  0.86936  0.96777  1.0000
  C   C1702     1.0  0.58121  0.97535  0.94653  1.0000
  H   H1703     1.0  0.99370  0.72514  0.95167  1.0000
  H   H1704     1.0  0.97781  0.67620  0.92377  1.0000
  C   C1703     1.0  0.95286  0.99533  0.87282  1.0000
  C   C1704     1.0  0.96511  0.75879  0.96959  1.0000
  C   C1705     1.0  0.98486  0.73880  0.93232  1.0000
  H   H1705     1.0  0.97996  0.70466  0.91540  1.0000
  C   C1706     1.0  0.85439  0.67407  0.93828  1.0000
  H   H1706     1.0  0.56530  0.99340  0.98576  1.0000
  S   S571      1.0  0.98393  0.98474  0.84326  1.0000
  C   C1707     1.0  0.51732  0.96609  0.98056  1.0000
  C   C1708     1.0  0.56852  0.99024  0.94782  1.0000
  H   H1707     1.0  0.91468  0.70018  0.90124  1.0000
  C   C1709     1.0  0.98871  0.92538  0.77173  1.0000
  S   S572      1.0  0.99896  0.69228  0.97518  1.0000
  H   H1708     1.0  0.95740  0.85732  0.91817  1.0000
  C   C1710     1.0  0.78114  0.98136  0.90234  1.0000
  H   H1709     1.0  0.88988  0.94498  0.87380  1.0000
  C   C1711     1.0  0.91670  0.87663  0.78551  1.0000
  C   C1712     1.0  0.99304  0.89671  0.79074  1.0000
  C   C1713     1.0  0.98016  0.90958  0.76524  1.0000
  H   H1710     1.0  0.57432  0.95976  0.94472  1.0000
  C   C1714     1.0  0.97849  0.88741  0.77137  1.0000
  H   H1711     1.0  0.52586  0.83480  0.93674  1.0000
  S   S573      1.0  0.90097  0.72196  0.97488  1.0000
  C   C1715     1.0  0.82291  0.00060  0.88286  1.0000
  S   S574      1.0  0.93210  0.85364  0.73890  1.0000
  H   H1712     1.0  0.92959  0.86833  0.78344  1.0000
  H   H1713     1.0  0.94190  0.97976  0.82986  1.0000
  N   N142      1.0  0.99368  0.82788  0.89689  1.0000
  Fe  Fe287     1.0  0.51849  0.91428  0.97463  1.0000
  H   H1714     1.0  0.95137  0.81710  0.92735  1.0000
  H   H1715     1.0  0.66169  0.90600  0.96082  1.0000
  H   H1716     1.0  0.71454  0.95272  0.98333  1.0000
  H   H1717     1.0  0.80032  0.98992  0.79156  1.0000
  N   N143      1.0  0.79474  0.99927  0.90403  1.0000
  H   H1718     1.0  0.63953  0.99079  0.95551  1.0000
  S   S575      1.0  0.50234  0.94043  0.97974  1.0000
  H   H1719     1.0  0.50693  0.79765  0.95382  1.0000
  H   H1720     1.0  0.55149  0.98620  0.94732  1.0000
  C   C1716     1.0  0.85615  0.00146  0.78671  1.0000
  C   C1717     1.0  0.92443  0.99919  0.86065  1.0000
  H   H1721     1.0  0.95662  0.77192  0.96720  1.0000
  H   H1722     1.0  0.96342  0.98557  0.87659  1.0000
  H   H1723     1.0  0.78209  0.97230  0.98450  1.0000
  C   C1718     1.0  0.75572  0.99819  0.96212  1.0000
  C   C1719     1.0  0.53809  0.96956  0.98342  1.0000
  C   C1720     1.0  0.86220  0.99649  0.77341  1.0000
  H   H1724     1.0  0.00113  0.97450  0.74421  1.0000
  H   H1725     1.0  0.87941  0.99791  0.76846  1.0000
  C   C1721     1.0  0.54905  0.99055  0.98398  1.0000
  N   N144      1.0  0.98250  0.76550  0.97645  1.0000
  C   C1722     1.0  0.93749  0.98652  0.86609  1.0000
  H   H1726     1.0  0.91813  0.99633  0.79218  1.0000
  C   C1723     1.0  0.83376  0.99890  0.79332  1.0000
  H   H1727     1.0  0.95266  0.74357  0.97701  1.0000
  C   C1724     1.0  0.92848  0.00125  0.79891  1.0000
  H   H1728     1.0  0.77826  0.99502  0.92636  1.0000
  S   S576      1.0  0.73844  0.99703  0.88993  1.0000
  C   C1725     1.0  0.77275  0.99436  0.96829  1.0000
  C   C1726     1.0  0.74783  0.96034  0.98530  1.0000
  Fe  Fe288     1.0  0.54287  0.88217  0.98650  1.0000
  C   C1727     1.0  0.90506  0.66974  0.91841  1.0000
  C   C1728     1.0  0.86177  0.66991  0.95087  1.0000
