data_image0
_chemical_formula_structural       HSH3CH3CHC6S2CHCSH2CH2C4S3C2FeH2SCFeSH2FeHNHFeH3S2HC2SCHCNFeHCHCHCHCH2FeS2C2HSCH2CH2SNCFeSH2CHSC2HC4H5SH2S2CH2C2FeCHCNHC3H3SH2CHC4HCSHC2FeCH2C4SHFeH4CFeCSNCFeSFeS2FeSFeS2CSHCH2C3SNCHC6H4C2SHC3H3SHSCH3C2HCH2CHCHCNH5CH2FeCHCHCSFeH2NC2H3CHCHC2H3FeCHSFeSFeC4H2SCFeC2SCNH3C2HCH4C5H2CH6CSC3H2C2H3CH2NH2C3HSHC2HC2HC3SC3FeHNCHSC3H3FeSFeSFeS3CHC5H2C3H2NCHC5NCFeHCH2CHC4H2C2H3SH3CH3CHCH4S2CH2CH6SH4C2SH2C2SNCSC2H2CHCH2CH2C3HCHFeCHCSC2NC3SCNSCHCHCHC2HCH2CHFeS2FeS2FeSFeS4FeSHS2C2SC3HC7H4C6H4CHSHCHFeC4HCH5FeH2NC4NH2NCHCSCSCH2SHCNC6H2C2H6C2HNSH3CHFeH2CH6CHC2HC2FeHCHC2SHC2HCHC2HC2HFeCHC2NH4FeCSHSHSCFeC2SHCHCH2CH2C2HC2SNSHCHNH3CHC4HCHSCFeC3HSH2C2FeHSH3FeHFeCSFeS2CHSHCH2NCH2SC6H5C4S2HNHCH3SFeCSCHCHC2H2C2H3C4HC2H2CHCH3SH3CNHCFeSFeCSFeS2HCSCFeS2FeSCHCNC7H2FeHCFeC4SCHC6H4SHC2H3SH4CHCHFeCH3CFeHSHFeSH2C3SH2S2HCHFeHS2NHCHS2FeS2FeSC2SHC2SHCFeSFeNH3C6H5C3HC2H2FeC2HCHNCHCHC3H2C2H2C2H2CNHSHSC2FeSHFe2CSCH4
_chemical_formula_sum              "H384 S128 C384 Fe64 N32"
_cell_length_a       34.506
_cell_length_b       31.5327
_cell_length_c       72.4147
_cell_angle_alpha    91.3514
_cell_angle_beta     90.1666
_cell_angle_gamma    121.336

_space_group_name_H-M_alt    "P 1"
_space_group_IT_number       1

loop_
  _space_group_symop_operation_xyz
  'x, y, z'

loop_
  _atom_site_type_symbol
  _atom_site_label
  _atom_site_symmetry_multiplicity
  _atom_site_fract_x
  _atom_site_fract_y
  _atom_site_fract_z
  _atom_site_occupancy
  H   H1        1.0  0.04785  0.14557  0.12355  1.0000
  S   S1        1.0  0.00123  0.02133  0.08417  1.0000
  H   H2        1.0  0.99740  0.04421  0.14895  1.0000
  H   H3        1.0  0.00090  0.10541  0.10802  1.0000
  H   H4        1.0  0.02886  0.08075  0.12086  1.0000
  C   C1        1.0  0.01742  0.10783  0.12154  1.0000
  H   H5        1.0  0.43204  0.38051  0.33283  1.0000
  H   H6        1.0  0.36820  0.29267  0.33321  1.0000
  H   H7        1.0  0.46705  0.35363  0.27888  1.0000
  C   C2        1.0  0.48725  0.06136  0.32581  1.0000
  H   H8        1.0  0.46881  0.31183  0.11210  1.0000
  C   C3        1.0  0.42503  0.35603  0.32087  1.0000
  C   C4        1.0  0.45282  0.37307  0.30549  1.0000
  C   C5        1.0  0.45462  0.07019  0.33338  1.0000
  C   C6        1.0  0.32165  0.08591  0.23203  1.0000
  C   C7        1.0  0.17968  0.04694  0.11141  1.0000
  C   C8        1.0  0.20822  0.06712  0.12713  1.0000
  S   S2        1.0  0.29612  0.15335  0.28382  1.0000
  S   S3        1.0  0.32327  0.14734  0.17569  1.0000
  C   C9        1.0  0.38924  0.30675  0.32110  1.0000
  H   H9        1.0  0.21163  0.08719  0.15595  1.0000
  C   C10       1.0  0.30598  0.14555  0.24657  1.0000
  S   S4        1.0  0.26565  0.08383  0.12538  1.0000
  H   H10       1.0  0.29920  0.17523  0.24537  1.0000
  H   H11       1.0  0.47528  0.26055  0.14550  1.0000
  C   C11       1.0  0.48283  0.29213  0.32869  1.0000
  H   H12       1.0  0.44653  0.35046  0.10570  1.0000
  H   H13       1.0  0.46437  0.25446  0.32340  1.0000
  C   C12       1.0  0.38179  0.27511  0.30589  1.0000
  C   C13       1.0  0.44873  0.32829  0.11689  1.0000
  C   C14       1.0  0.13312  0.03025  0.11235  1.0000
  C   C15       1.0  0.19002  0.07162  0.14376  1.0000
  S   S5        1.0  0.29288  0.05785  0.32063  1.0000
  S   S6        1.0  0.38883  0.16405  0.31618  1.0000
  S   S7        1.0  0.30388  0.16178  0.33795  1.0000
  C   C16       1.0  0.44462  0.34025  0.29058  1.0000
  C   C17       1.0  0.31644  0.21435  0.13174  1.0000
  Fe  Fe1       1.0  0.31513  0.13396  0.31077  1.0000
  H   H14       1.0  0.35396  0.23687  0.30620  1.0000
  H   H15       1.0  0.45836  0.07235  0.17452  1.0000
  S   S8        1.0  0.43446  0.28376  0.17605  1.0000
  C   C18       1.0  0.37815  0.24925  0.11027  1.0000
  Fe  Fe2       1.0  0.35015  0.10076  0.18616  1.0000
  S   S9        1.0  0.47031  0.12033  0.13929  1.0000
  H   H16       1.0  0.39696  0.22234  0.28020  1.0000
  H   H17       1.0  0.42900  0.27323  0.26526  1.0000
  Fe  Fe3       1.0  0.36638  0.09067  0.32850  1.0000
  H   H18       1.0  0.31506  0.17913  0.10571  1.0000
  N   N1        1.0  0.40310  0.28906  0.12211  1.0000
  H   H19       1.0  0.11143  0.01410  0.10021  1.0000
  Fe  Fe4       1.0  0.39669  0.20154  0.16930  1.0000
  H   H20       1.0  0.19348  0.04340  0.09846  1.0000
  H   H21       1.0  0.12952  0.05832  0.15765  1.0000
  H   H22       1.0  0.31344  0.13922  0.21721  1.0000
  S   S10       1.0  0.34242  0.06090  0.15889  1.0000
  S   S11       1.0  0.40520  0.05368  0.32042  1.0000
  H   H23       1.0  0.32807  0.03755  0.25067  1.0000
  C   C19       1.0  0.14345  0.05511  0.14469  1.0000
  C   C20       1.0  0.32214  0.06788  0.24949  1.0000
  S   S12       1.0  0.32854  0.05712  0.21223  1.0000
  C   C21       1.0  0.40097  0.25757  0.27530  1.0000
  H   H24       1.0  0.28309  0.18447  0.13568  1.0000
  C   C22       1.0  0.30654  0.12750  0.26403  1.0000
  N   N2        1.0  0.40961  0.29184  0.29098  1.0000
  Fe  Fe5       1.0  0.41381  0.12267  0.15402  1.0000
  H   H25       1.0  0.32894  0.25741  0.15705  1.0000
  C   C23       1.0  0.33443  0.21140  0.11487  1.0000
  H   H26       1.0  0.46796  0.35388  0.12878  1.0000
  C   C24       1.0  0.31524  0.08906  0.26548  1.0000
  H   H27       1.0  0.39229  0.24613  0.09731  1.0000
  C   C25       1.0  0.31403  0.12518  0.23061  1.0000
  H   H28       1.0  0.40501  0.32418  0.14797  1.0000
  C   C26       1.0  0.34200  0.25522  0.14367  1.0000
  H   H29       1.0  0.36902  0.24835  0.26799  1.0000
  H   H30       1.0  0.22895  0.00596  0.20708  1.0000
  Fe  Fe6       1.0  0.32010  0.11132  0.14808  1.0000
  S   S13       1.0  0.39127  0.17001  0.14078  1.0000
  S   S14       1.0  0.42349  0.15792  0.18216  1.0000
  C   C27       1.0  0.11468  0.03385  0.12906  1.0000
  C   C28       1.0  0.38528  0.29278  0.13849  1.0000
  H   H31       1.0  0.31591  0.07504  0.27888  1.0000
  S   S15       1.0  0.05586  0.01061  0.13130  1.0000
  C   C29       1.0  0.48930  0.07832  0.16838  1.0000
  H   H32       1.0  0.48166  0.41092  0.30542  1.0000
  H   H33       1.0  0.48243  0.04588  0.31190  1.0000
  C   C30       1.0  0.48731  0.31841  0.16526  1.0000
  H   H34       1.0  0.15582  0.99717  0.19719  1.0000
  H   H35       1.0  0.13211  0.10699  0.36211  1.0000
  S   S16       1.0  0.16896  0.39937  0.64695  1.0000
  N   N3        1.0  0.19594  0.33614  0.60866  1.0000
  C   C31       1.0  0.17324  0.28657  0.60398  1.0000
  Fe  Fe7       1.0  0.11816  0.31719  0.64912  1.0000
  S   S17       1.0  0.07542  0.26680  0.62505  1.0000
  H   H36       1.0  0.14461  0.35362  0.60598  1.0000
  H   H37       1.0  0.48906  0.36313  0.36594  1.0000
  C   C32       1.0  0.02967  0.12490  0.60712  1.0000
  H   H38       1.0  0.09081  0.16691  0.42653  1.0000
  S   S18       1.0  0.35886  0.11400  0.35707  1.0000
  C   C33       1.0  0.12051  0.09274  0.41969  1.0000
  C   C34       1.0  0.05665  0.11228  0.61726  1.0000
  H   H39       1.0  0.03778  0.11587  0.41699  1.0000
  C   C35       1.0  0.07507  0.13204  0.41800  1.0000
  C   C36       1.0  0.06766  0.20696  0.62248  1.0000
  C   C37       1.0  0.09388  0.19371  0.63275  1.0000
  C   C38       1.0  0.08889  0.14697  0.62996  1.0000
  H   H40       1.0  0.14294  0.27021  0.59524  1.0000
  H   H41       1.0  0.20185  0.10480  0.35597  1.0000
  H   H42       1.0  0.11872  0.21968  0.64263  1.0000
  H   H43       1.0  0.10990  0.13745  0.63783  1.0000
  H   H44       1.0  0.43580  0.09645  0.35740  1.0000
  S   S19       1.0  0.05229  0.05431  0.61445  1.0000
  H   H45       1.0  0.25764  0.48039  0.64464  1.0000
  H   H46       1.0  0.20138  0.40668  0.60575  1.0000
  S   S20       1.0  0.42550  0.25969  0.35838  1.0000
  S   S21       1.0  0.28794  0.42059  0.66236  1.0000
  C   C39       1.0  0.10001  0.04023  0.37782  1.0000
  H   H47       1.0  0.03227  0.07211  0.44578  1.0000
  H   H48       1.0  0.15685  0.05419  0.42141  1.0000
  C   C40       1.0  0.18789  0.25598  0.61080  1.0000
  C   C41       1.0  0.06906  0.03472  0.44852  1.0000
  Fe  Fe8       1.0  0.37657  0.18585  0.34417  1.0000
  C   C42       1.0  0.24851  0.32684  0.62742  1.0000
  H   H49       1.0  0.16935  0.21654  0.60722  1.0000
  C   C43       1.0  0.46085  0.08978  0.35141  1.0000
  N   N4        1.0  0.08520  0.09664  0.42613  1.0000
  H   H50       1.0  0.25120  0.39568  0.62411  1.0000
  C   C44       1.0  0.31721  0.48188  0.65453  1.0000
  C   C45       1.0  0.03553  0.17239  0.60961  1.0000
  C   C46       1.0  0.06007  0.06879  0.44056  1.0000
  H   H51       1.0  0.27768  0.34305  0.63680  1.0000
  H   H52       1.0  0.23679  0.25282  0.62839  1.0000
  H   H53       1.0  0.08764  0.14060  0.40363  1.0000
  S   S22       1.0  0.05238  0.04549  0.38290  1.0000
  H   H54       1.0  0.28914  0.00520  0.38322  1.0000
  H   H55       1.0  0.14025  0.11453  0.40816  1.0000
  C   C47       1.0  0.10470  0.00203  0.38473  1.0000
  H   H56       1.0  0.17925  0.36515  0.58586  1.0000
  C   C48       1.0  0.17499  0.07611  0.36398  1.0000
  C   C49       1.0  0.13537  0.07724  0.36748  1.0000
  C   C50       1.0  0.13009  0.05862  0.42717  1.0000
  C   C51       1.0  0.23322  0.35647  0.62020  1.0000
  H   H57       1.0  0.36304  0.01551  0.39279  1.0000
  C   C52       1.0  0.17986  0.03815  0.37098  1.0000
  S   S23       1.0  0.22983  0.03619  0.36754  1.0000
  H   H58       1.0  0.13945  0.48146  0.64491  1.0000
  C   C53       1.0  0.22559  0.27628  0.62270  1.0000
  C   C54       1.0  0.17966  0.36706  0.60120  1.0000
  Fe  Fe9       1.0  0.28666  0.08746  0.34840  1.0000
  C   C55       1.0  0.10400  0.02928  0.44162  1.0000
  H   H59       1.0  0.04825  0.01188  0.45968  1.0000
  H   H60       1.0  0.38276  0.49535  0.66289  1.0000
  C   C56       1.0  0.00497  0.08106  0.66013  1.0000
  C   C57       1.0  0.14456  0.00120  0.38140  1.0000
  C   C58       1.0  0.47178  0.30435  0.34575  1.0000
  C   C59       1.0  0.01048  0.17181  0.66378  1.0000
  S   S24       1.0  0.16434  0.30185  0.66567  1.0000
  H   H61       1.0  0.00360  0.04597  0.65853  1.0000
  Fe  Fe10      1.0  0.21243  0.38456  0.66551  1.0000
  H   H62       1.0  0.00501  0.09850  0.59714  1.0000
  H   H63       1.0  0.01518  0.18238  0.60153  1.0000
  H   H64       1.0  0.01305  0.20761  0.66480  1.0000
  H   H65       1.0  0.11046  0.00201  0.44733  1.0000
  C   C60       1.0  0.34821  0.99932  0.37931  1.0000
  Fe  Fe11      1.0  0.13335  0.31727  0.69008  1.0000
  C   C61       1.0  0.13641  0.40909  0.74261  1.0000
  S   S25       1.0  0.10270  0.26819  0.71427  1.0000
  N   N5        1.0  0.34902  0.42108  0.82771  1.0000
  C   C62       1.0  0.31829  0.39558  0.81188  1.0000
  Fe  Fe12      1.0  0.21376  0.42538  0.84841  1.0000
  S   S26       1.0  0.20760  0.44734  0.82000  1.0000
  Fe  Fe13      1.0  0.12392  0.32659  0.84470  1.0000
  S   S27       1.0  0.11222  0.34115  0.81547  1.0000
  S   S28       1.0  0.06498  0.25800  0.85714  1.0000
  Fe  Fe14      1.0  0.18597  0.36928  0.81180  1.0000
  S   S29       1.0  0.22214  0.36516  0.78673  1.0000
  Fe  Fe15      1.0  0.13504  0.41791  0.82631  1.0000
  S   S30       1.0  0.19649  0.34831  0.83999  1.0000
  S   S31       1.0  0.14218  0.40237  0.85579  1.0000
  C   C63       1.0  0.40656  0.47506  0.85733  1.0000
  S   S32       1.0  0.10504  0.45985  0.81423  1.0000
  H   H66       1.0  0.19837  0.33839  0.72000  1.0000
  C   C64       1.0  0.06766  0.20826  0.86635  1.0000
  H   H67       1.0  0.16829  0.43203  0.73573  1.0000
  H   H68       1.0  0.02378  0.32361  0.76705  1.0000
  C   C65       1.0  0.06859  0.12886  0.88308  1.0000
  C   C66       1.0  0.10940  0.17285  0.87923  1.0000
  C   C67       1.0  0.10899  0.21238  0.87077  1.0000
  S   S33       1.0  0.27648  0.47788  0.86548  1.0000
  N   N6        1.0  0.02705  0.10897  0.93884  1.0000
  C   C68       1.0  0.39352  0.45589  0.82463  1.0000
  H   H69       1.0  0.14052  0.24629  0.86796  1.0000
  C   C69       1.0  0.13588  0.29455  0.73444  1.0000
  C   C70       1.0  0.11556  0.28183  0.75177  1.0000
  C   C71       1.0  0.14163  0.30408  0.76794  1.0000
  C   C72       1.0  0.18826  0.33802  0.76679  1.0000
  C   C73       1.0  0.20858  0.35039  0.74947  1.0000
  C   C74       1.0  0.18236  0.32908  0.73331  1.0000
  H   H70       1.0  0.07961  0.25503  0.75270  1.0000
  H   H71       1.0  0.12588  0.29392  0.78129  1.0000
  H   H72       1.0  0.28475  0.48222  0.70039  1.0000
  H   H73       1.0  0.28521  0.36336  0.81608  1.0000
  C   C75       1.0  0.36114  0.43947  0.86035  1.0000
  C   C76       1.0  0.42296  0.48336  0.83937  1.0000
  S   S34       1.0  0.18638  0.39795  0.69182  1.0000
  H   H74       1.0  0.29692  0.38691  0.84771  1.0000
  C   C77       1.0  0.05514  0.34776  0.75999  1.0000
  C   C78       1.0  0.03830  0.16249  0.67481  1.0000
  C   C79       1.0  0.17304  0.45133  0.77204  1.0000
  H   H75       1.0  0.06216  0.20557  0.91039  1.0000
  H   H76       1.0  0.33347  0.38137  0.80185  1.0000
  H   H77       1.0  0.24472  0.37637  0.74856  1.0000
  S   S35       1.0  0.07019  0.08177  0.89513  1.0000
  H   H78       1.0  0.05747  0.10949  0.68137  1.0000
  S   S36       1.0  0.13692  0.47321  0.68496  1.0000
  C   C80       1.0  0.05537  0.14784  0.92805  1.0000
  H   H79       1.0  0.09052  0.38860  0.78475  1.0000
  H   H80       1.0  0.29588  0.47864  0.82651  1.0000
  H   H81       1.0  0.14144  0.17651  0.88290  1.0000
  C   C81       1.0  0.02732  0.12442  0.87835  1.0000
  C   C82       1.0  0.09891  0.37326  0.73217  1.0000
  H   H82       1.0  0.08943  0.15592  0.92528  1.0000
  C   C83       1.0  0.33262  0.41278  0.84528  1.0000
  H   H83       1.0  0.06387  0.07199  0.93711  1.0000
  H   H84       1.0  0.99570  0.09077  0.88131  1.0000
  C   C84       1.0  0.05818  0.34217  0.74097  1.0000
  H   H85       1.0  0.06494  0.09918  0.95961  1.0000
  C   C85       1.0  0.02691  0.16416  0.87016  1.0000
  H   H86       1.0  0.01509  0.04243  0.95138  1.0000
  C   C86       1.0  0.09313  0.38449  0.76996  1.0000
  N   N7        1.0  0.13301  0.41471  0.76122  1.0000
  H   H87       1.0  0.34742  0.43426  0.87414  1.0000
  H   H88       1.0  0.31114  0.42173  0.80477  1.0000
  H   H89       1.0  0.16311  0.46526  0.78430  1.0000
  H   H90       1.0  0.10174  0.36873  0.71743  1.0000
  H   H91       1.0  0.40604  0.46420  0.81065  1.0000
  C   C87       1.0  0.04016  0.17613  0.91959  1.0000
  H   H92       1.0  0.06219  0.19077  0.68462  1.0000
  H   H93       1.0  0.19208  0.43398  0.77686  1.0000
  Fe  Fe16      1.0  0.00419  0.01047  0.90043  1.0000
  C   C88       1.0  0.99576  0.16459  0.92232  1.0000
  H   H94       1.0  0.19577  0.48407  0.76375  1.0000
  C   C89       1.0  0.03560  0.11685  0.67299  1.0000
  H   H95       1.0  0.02931  0.31335  0.73306  1.0000
  C   C90       1.0  0.04359  0.07929  0.94721  1.0000
  S   S37       1.0  0.08436  0.32810  0.67370  1.0000
  Fe  Fe17      1.0  0.13999  0.40831  0.67342  1.0000
  H   H96       1.0  0.99484  0.16080  0.86677  1.0000
  H   H97       1.0  0.13315  0.49062  0.85246  1.0000
  N   N8        1.0  0.18396  0.96405  0.15689  1.0000
  C   C91       1.0  0.16707  0.94735  0.13790  1.0000
  C   C92       1.0  0.29335  0.94214  0.32560  1.0000
  H   H98       1.0  0.12718  0.96935  0.16508  1.0000
  H   H99       1.0  0.13970  0.95455  0.13425  1.0000
  H   H100      1.0  0.24364  0.96110  0.15248  1.0000
  C   C93       1.0  0.24024  0.98281  0.18045  1.0000
  H   H101      1.0  0.15361  0.90695  0.13614  1.0000
  C   C94       1.0  0.15913  0.97327  0.16928  1.0000
  H   H102      1.0  0.31284  0.97210  0.31566  1.0000
  C   C95       1.0  0.22393  0.96841  0.16228  1.0000
  C   C96       1.0  0.21591  0.99369  0.19304  1.0000
  H   H103      1.0  0.29639  0.90975  0.32166  1.0000
  H   H104      1.0  0.25699  0.93045  0.32430  1.0000
  H   H105      1.0  0.19489  0.96791  0.12794  1.0000
  Fe  Fe18      1.0  0.00252  0.97757  0.10801  1.0000
  C   C97       1.0  0.17501  0.98885  0.18747  1.0000
  H   H106      1.0  0.27189  0.98607  0.18472  1.0000
  S   S38       1.0  0.20421  0.78560  0.63443  1.0000
  Fe  Fe19      1.0  0.17757  0.80701  0.65901  1.0000
  S   S39       1.0  0.14543  0.85462  0.65847  1.0000
  Fe  Fe20      1.0  0.18409  0.71634  0.64998  1.0000
  C   C98       1.0  0.09312  0.84086  0.64832  1.0000
  C   C99       1.0  0.06151  0.79368  0.64100  1.0000
  C   C100      1.0  0.04471  0.87137  0.63769  1.0000
  C   C101      1.0  0.08401  0.87930  0.64696  1.0000
  H   H107      1.0  0.06783  0.76362  0.64209  1.0000
  H   H108      1.0  0.10798  0.91577  0.65279  1.0000
  S   S40       1.0  0.15886  0.64441  0.63401  1.0000
  C   C102      1.0  0.14831  0.55335  0.64000  1.0000
  Fe  Fe21      1.0  0.26965  0.81732  0.65054  1.0000
  C   C103      1.0  0.15326  0.59686  0.64805  1.0000
  C   C104      1.0  0.09127  0.80097  0.59606  1.0000
  S   S41       1.0  0.25151  0.74683  0.66411  1.0000
  C   C105      1.0  0.12626  0.84432  0.60473  1.0000
  N   N9        1.0  0.12527  0.88716  0.60500  1.0000
  H   H109      1.0  0.24475  0.65093  0.62870  1.0000
  H   H110      1.0  0.03861  0.90154  0.63640  1.0000
  H   H111      1.0  0.15329  0.84298  0.61190  1.0000
  C   C106      1.0  0.16216  0.93213  0.61423  1.0000
  C   C107      1.0  0.29397  0.50222  0.64635  1.0000
  H   H112      1.0  0.14763  0.54905  0.62511  1.0000
  C   C108      1.0  0.15404  0.60227  0.66728  1.0000
  H   H113      1.0  0.14979  0.95613  0.61973  1.0000
  H   H114      1.0  0.08955  0.92233  0.59665  1.0000
  H   H115      1.0  0.17591  0.92257  0.62632  1.0000
  H   H116      1.0  0.18993  0.95332  0.60441  1.0000
  C   C109      1.0  0.14369  0.51512  0.65117  1.0000
  C   C110      1.0  0.02170  0.78548  0.63206  1.0000
  C   C111      1.0  0.09073  0.88861  0.59628  1.0000
  C   C112      1.0  0.01349  0.82444  0.63005  1.0000
  C   C113      1.0  0.05519  0.84595  0.58750  1.0000
  H   H117      1.0  0.02663  0.84652  0.58145  1.0000
  H   H118      1.0  0.09125  0.76659  0.59653  1.0000
  C   C114      1.0  0.05537  0.80183  0.58753  1.0000
  H   H119      1.0  0.25723  0.97104  0.35213  1.0000
  H   H120      1.0  0.28560  0.63931  0.66837  1.0000
  H   H121      1.0  0.24345  0.57556  0.66289  1.0000
  H   H122      1.0  0.14796  0.97164  0.38685  1.0000
  H   H123      1.0  0.07781  0.97340  0.39276  1.0000
  H   H124      1.0  0.24483  0.72319  0.61591  1.0000
  C   C115      1.0  0.28887  0.97413  0.35631  1.0000
  S   S42       1.0  0.99758  0.92778  0.58689  1.0000
  C   C116      1.0  0.27648  0.68344  0.62476  1.0000
  C   C117      1.0  0.14322  0.52010  0.67040  1.0000
  C   C118      1.0  0.27652  0.72400  0.61749  1.0000
  H   H125      1.0  0.02705  0.76811  0.58139  1.0000
  H   H126      1.0  0.99754  0.74895  0.62632  1.0000
  C   C119      1.0  0.37094  0.98528  0.36705  1.0000
  C   C120      1.0  0.35188  0.96574  0.34954  1.0000
  H   H127      1.0  0.29967  0.56630  0.63370  1.0000
  H   H128      1.0  0.43123  0.94122  0.63865  1.0000
  H   H129      1.0  0.40384  0.99095  0.37081  1.0000
  C   C121      1.0  0.31763  0.76565  0.61244  1.0000
  H   H130      1.0  0.40933  0.80380  0.59513  1.0000
  H   H131      1.0  0.41802  0.79168  0.66605  1.0000
  N   N10       1.0  0.35769  0.76709  0.61483  1.0000
  H   H132      1.0  0.38956  0.72800  0.62343  1.0000
  H   H133      1.0  0.31768  0.65343  0.63232  1.0000
  C   C122      1.0  0.36453  0.51089  0.65662  1.0000
  C   C123      1.0  0.35789  0.72722  0.62177  1.0000
  C   C124      1.0  0.38511  0.86640  0.64699  1.0000
  H   H134      1.0  0.39815  0.84445  0.60917  1.0000
  S   S43       1.0  0.39381  0.64233  0.63548  1.0000
  H   H135      1.0  0.31735  0.79720  0.60694  1.0000
  C   C125      1.0  0.42807  0.90867  0.64484  1.0000
  C   C126      1.0  0.36512  0.58045  0.64261  1.0000
  H   H136      1.0  0.34847  0.79123  0.65642  1.0000
  C   C127      1.0  0.46711  0.90936  0.65070  1.0000
  C   C128      1.0  0.31790  0.55112  0.64019  1.0000
  H   H137      1.0  0.42485  0.58247  0.65267  1.0000
  C   C129      1.0  0.38841  0.56029  0.65089  1.0000
  C   C130      1.0  0.42089  0.82438  0.66022  1.0000
  C   C131      1.0  0.31735  0.68492  0.62687  1.0000
  S   S44       1.0  0.33768  0.86622  0.63776  1.0000
  C   C132      1.0  0.40048  0.81054  0.60917  1.0000
  C   C133      1.0  0.46386  0.86716  0.65814  1.0000
  C   C134      1.0  0.38145  0.82429  0.65493  1.0000
  Fe  Fe22      1.0  0.46252  0.69399  0.64867  1.0000
  H   H138      1.0  0.42851  0.81864  0.61901  1.0000
  N   N11       1.0  0.31133  0.96033  0.34438  1.0000
  C   C135      1.0  0.30680  0.99352  0.37397  1.0000
  H   H139      1.0  0.37069  0.95690  0.33979  1.0000
  S   S45       1.0  0.10798  0.73034  0.77903  1.0000
  C   C136      1.0  0.10384  0.86142  0.86439  1.0000
  C   C137      1.0  0.06172  0.89424  0.88012  1.0000
  C   C138      1.0  0.06429  0.81436  0.86356  1.0000
  H   H140      1.0  0.06115  0.92523  0.88657  1.0000
  H   H141      1.0  0.06511  0.78327  0.85740  1.0000
  H   H142      1.0  0.09411  0.70848  0.73987  1.0000
  Fe  Fe23      1.0  0.14349  0.74969  0.80679  1.0000
  S   S46       1.0  0.19757  0.82844  0.81364  1.0000
  Fe  Fe24      1.0  0.15701  0.71274  0.84298  1.0000
  S   S47       1.0  0.13953  0.64852  0.86115  1.0000
  Fe  Fe25      1.0  0.16615  0.81338  0.84180  1.0000
  S   S48       1.0  0.15701  0.87092  0.85752  1.0000
  S   S49       1.0  0.10885  0.73653  0.83418  1.0000
  S   S50       1.0  0.18570  0.71802  0.81493  1.0000
  C   C139      1.0  0.10209  0.90143  0.87241  1.0000
  H   H143      1.0  0.13246  0.93805  0.87306  1.0000
  C   C140      1.0  0.20689  0.75682  0.73281  1.0000
  C   C141      1.0  0.19144  0.75671  0.76551  1.0000
  C   C142      1.0  0.14533  0.73633  0.76145  1.0000
  C   C143      1.0  0.12982  0.72464  0.74305  1.0000
  C   C144      1.0  0.16064  0.73530  0.72871  1.0000
  H   H144      1.0  0.20389  0.76635  0.77961  1.0000
  H   H145      1.0  0.14863  0.72707  0.71453  1.0000
  C   C145      1.0  0.11292  0.58813  0.82993  1.0000
  C   C146      1.0  0.12745  0.59478  0.84839  1.0000
  C   C147      1.0  0.10531  0.54609  0.81964  1.0000
  H   H146      1.0  0.10711  0.61511  0.82359  1.0000
  H   H147      1.0  0.14802  0.56771  0.69328  1.0000
  N   N12       1.0  0.11182  0.79955  0.90086  1.0000
  C   C148      1.0  0.12699  0.84956  0.90829  1.0000
  H   H148      1.0  0.14538  0.56420  0.87083  1.0000
  C   C149      1.0  0.13426  0.55925  0.85654  1.0000
  C   C150      1.0  0.06692  0.76302  0.90137  1.0000
  C   C151      1.0  0.18920  0.85834  0.72645  1.0000
  C   C152      1.0  0.12975  0.74122  0.88778  1.0000
  C   C153      1.0  0.14315  0.78917  0.89420  1.0000
  N   N13       1.0  0.16763  0.84636  0.74304  1.0000
  C   C154      1.0  0.12122  0.82059  0.74359  1.0000
  Fe  Fe26      1.0  0.22241  0.77208  0.68631  1.0000
  H   H149      1.0  0.10409  0.81023  0.75674  1.0000
  C   C155      1.0  0.09519  0.80536  0.72722  1.0000
  H   H150      1.0  0.15464  0.73283  0.88272  1.0000
  H   H151      1.0  0.04201  0.77128  0.90657  1.0000
  C   C156      1.0  0.11693  0.81755  0.71025  1.0000
  H   H152      1.0  0.09386  0.54100  0.80539  1.0000
  C   C157      1.0  0.05223  0.71496  0.89455  1.0000
  C   C158      1.0  0.08399  0.70409  0.88772  1.0000
  C   C159      1.0  0.02281  0.84674  0.88007  1.0000
  C   C160      1.0  0.02405  0.80703  0.87147  1.0000
  H   H153      1.0  0.05844  0.78382  0.72771  1.0000
  H   H154      1.0  0.09738  0.80618  0.69737  1.0000
  C   C161      1.0  0.16418  0.84437  0.70985  1.0000
  C   C162      1.0  0.22209  0.76669  0.75123  1.0000
  H   H155      1.0  0.09890  0.85714  0.90822  1.0000
  H   H156      1.0  0.14014  0.85386  0.92263  1.0000
  H   H157      1.0  0.17868  0.81821  0.89360  1.0000
  S   S51       1.0  0.21254  0.78878  0.85268  1.0000
  H   H158      1.0  0.15419  0.87816  0.89959  1.0000
  H   H159      1.0  0.07336  0.66709  0.88230  1.0000
  H   H160      1.0  0.01648  0.68643  0.89445  1.0000
  C   C163      1.0  0.14847  0.56373  0.67840  1.0000
  H   H161      1.0  0.01034  0.92151  0.00234  1.0000
  H   H162      1.0  0.20436  0.60693  0.82099  1.0000
  H   H163      1.0  0.18121  0.85412  0.69671  1.0000
  C   C164      1.0  0.12753  0.51770  0.84613  1.0000
  H   H164      1.0  0.15780  0.63567  0.67361  1.0000
  C   C165      1.0  0.19451  0.86346  0.76028  1.0000
  H   H165      1.0  0.20445  0.90235  0.76370  1.0000
  H   H166      1.0  0.17508  0.83976  0.77199  1.0000
  H   H167      1.0  0.21750  0.65993  0.83578  1.0000
  H   H168      1.0  0.00739  0.93114  0.82760  1.0000
  S   S52       1.0  0.15224  0.73488  0.67356  1.0000
  S   S53       1.0  0.00572  0.95984  0.92143  1.0000
  C   C166      1.0  0.11298  0.51103  0.82767  1.0000
  H   H169      1.0  0.42857  0.49752  0.86880  1.0000
  H   H170      1.0  0.99396  0.77022  0.87120  1.0000
  C   C167      1.0  0.32513  0.51614  0.85256  1.0000
  H   H171      1.0  0.24313  0.60302  0.68498  1.0000
  H   H172      1.0  0.43502  0.61134  0.85851  1.0000
  H   H173      1.0  0.45763  0.51266  0.83676  1.0000
  H   H174      1.0  0.22553  0.58020  0.85006  1.0000
  H   H175      1.0  0.36481  0.53098  0.80872  1.0000
  H   H176      1.0  0.23751  0.51274  0.68721  1.0000
  S   S54       1.0  0.45923  0.73116  0.67478  1.0000
  H   H177      1.0  0.43677  0.80325  0.77288  1.0000
  H   H178      1.0  0.22552  0.86122  0.75908  1.0000
  H   H179      1.0  0.36618  0.78674  0.87010  1.0000
  H   H180      1.0  0.22596  0.87830  0.72597  1.0000
  C   C168      1.0  0.26537  0.60173  0.67418  1.0000
  C   C169      1.0  0.34016  0.61630  0.68351  1.0000
  S   S55       1.0  0.30896  0.82223  0.81372  1.0000
  H   H181      1.0  0.45507  0.76935  0.75861  1.0000
  H   H182      1.0  0.24248  0.66859  0.81332  1.0000
  C   C170      1.0  0.23166  0.64483  0.82561  1.0000
  C   C171      1.0  0.27406  0.53759  0.68839  1.0000
  S   S56       1.0  0.24691  0.77389  0.71529  1.0000
  N   N14       1.0  0.29406  0.58493  0.68214  1.0000
  C   C172      1.0  0.29570  0.60718  0.85599  1.0000
  S   S57       1.0  0.47679  0.73922  0.81567  1.0000
  C   C173      1.0  0.34936  0.67826  0.83890  1.0000
  C   C174      1.0  0.36749  0.60040  0.69129  1.0000
  H   H183      1.0  0.30982  0.79636  0.85211  1.0000
  H   H184      1.0  0.35623  0.65356  0.67829  1.0000
  C   C175      1.0  0.45556  0.80479  0.76022  1.0000
  H   H185      1.0  0.38413  0.70579  0.83568  1.0000
  C   C176      1.0  0.34049  0.64290  0.85203  1.0000
  H   H186      1.0  0.36843  0.64355  0.85917  1.0000
  H   H187      1.0  0.28839  0.57906  0.86606  1.0000
  C   C177      1.0  0.30044  0.52030  0.69603  1.0000
  H   H188      1.0  0.37285  0.79247  0.75618  1.0000
  H   H189      1.0  0.36837  0.53881  0.70307  1.0000
  C   C178      1.0  0.26030  0.60792  0.84687  1.0000
  C   C179      1.0  0.38634  0.81959  0.81845  1.0000
  C   C180      1.0  0.40426  0.58327  0.85145  1.0000
  H   H190      1.0  0.25782  0.78331  0.75449  1.0000
  C   C181      1.0  0.39289  0.80457  0.74376  1.0000
  H   H191      1.0  0.46313  0.84752  0.69931  1.0000
  Fe  Fe27      1.0  0.23804  0.79584  0.82380  1.0000
  C   C182      1.0  0.40430  0.57515  0.83237  1.0000
  H   H192      1.0  0.38496  0.83305  0.69939  1.0000
  C   C183      1.0  0.36473  0.53787  0.82343  1.0000
  S   S58       1.0  0.24566  0.84539  0.67369  1.0000
  C   C184      1.0  0.44304  0.83529  0.71174  1.0000
  C   C185      1.0  0.41783  0.81328  0.82849  1.0000
  N   N15       1.0  0.43610  0.81312  0.74364  1.0000
  C   C186      1.0  0.33981  0.80106  0.84549  1.0000
  C   C187      1.0  0.37385  0.81153  0.72785  1.0000
  C   C188      1.0  0.34742  0.55201  0.69749  1.0000
  S   S59       1.0  0.45450  0.60674  0.81979  1.0000
  C   C189      1.0  0.39923  0.82718  0.71178  1.0000
  N   N16       1.0  0.26936  0.64336  0.83422  1.0000
  S   S60       1.0  0.45000  0.79376  0.86009  1.0000
  C   C190      1.0  0.31320  0.67852  0.83027  1.0000
  H   H193      1.0  0.40414  0.62501  0.69214  1.0000
  C   C191      1.0  0.37186  0.79585  0.85567  1.0000
  H   H194      1.0  0.33960  0.80490  0.72799  1.0000
  C   C192      1.0  0.46094  0.82775  0.72785  1.0000
  H   H195      1.0  0.36504  0.55927  0.87636  1.0000
  C   C193      1.0  0.41094  0.80194  0.84720  1.0000
  C   C194      1.0  0.34727  0.81354  0.82689  1.0000
  H   H196      1.0  0.44788  0.81819  0.82185  1.0000
  C   C195      1.0  0.36476  0.55355  0.86155  1.0000
  H   H197      1.0  0.32048  0.70733  0.82055  1.0000
  H   H198      1.0  0.39235  0.82941  0.80409  1.0000
  C   C196      1.0  0.32535  0.50851  0.83348  1.0000
  H   H199      1.0  0.49137  0.83548  0.76258  1.0000
  Fe  Fe28      1.0  0.74318  0.18412  0.15898  1.0000
  S   S61       1.0  0.70190  0.17290  0.18413  1.0000
  S   S62       1.0  0.75858  0.24890  0.14131  1.0000
  Fe  Fe29      1.0  0.75031  0.09355  0.16512  1.0000
  S   S63       1.0  0.70837  0.07452  0.19079  1.0000
  S   S64       1.0  0.90578  0.05155  0.09500  1.0000
  Fe  Fe30      1.0  0.66329  0.09292  0.17504  1.0000
  S   S65       1.0  0.58829  0.04997  0.18098  1.0000
  Fe  Fe31      1.0  0.74983  0.15561  0.19809  1.0000
  S   S66       1.0  0.77495  0.18817  0.22684  1.0000
  S   S67       1.0  0.70087  0.10453  0.14850  1.0000
  S   S68       1.0  0.79542  0.17420  0.17364  1.0000
  S   S69       1.0  0.65401  0.14122  0.32374  1.0000
  Fe  Fe32      1.0  0.67969  0.08960  0.31965  1.0000
  S   S70       1.0  0.66659  0.04794  0.29249  1.0000
  H   H200      1.0  0.94386  0.02721  0.17436  1.0000
  S   S71       1.0  0.68575  0.45752  0.18167  1.0000
  S   S72       1.0  0.62125  0.41167  0.13531  1.0000
  C   C197      1.0  0.54262  0.10791  0.14334  1.0000
  C   C198      1.0  0.51812  0.36734  0.17139  1.0000
  S   S73       1.0  0.78189  0.43314  0.18783  1.0000
  C   C199      1.0  0.60408  0.06399  0.23357  1.0000
  C   C200      1.0  0.82896  0.01325  0.14114  1.0000
  C   C201      1.0  0.56981  0.09394  0.15269  1.0000
  H   H201      1.0  0.67245  0.47528  0.28049  1.0000
  C   C202      1.0  0.50249  0.10048  0.15120  1.0000
  C   C203      1.0  0.76357  0.29916  0.15440  1.0000
  C   C204      1.0  0.75903  0.33560  0.14569  1.0000
  C   C205      1.0  0.76235  0.37563  0.15602  1.0000
  C   C206      1.0  0.77184  0.38027  0.17501  1.0000
  C   C207      1.0  0.77694  0.34419  0.18367  1.0000
  C   C208      1.0  0.77252  0.30355  0.17342  1.0000
  H   H202      1.0  0.75255  0.33253  0.13094  1.0000
  H   H203      1.0  0.75892  0.40356  0.14919  1.0000
  H   H204      1.0  0.78476  0.34780  0.19832  1.0000
  H   H205      1.0  0.77706  0.27617  0.18019  1.0000
  C   C209      1.0  0.74792  0.14835  0.24529  1.0000
  C   C210      1.0  0.75128  0.16889  0.26302  1.0000
  C   C211      1.0  0.72728  0.13817  0.27769  1.0000
  C   C212      1.0  0.70056  0.08661  0.27479  1.0000
  C   C213      1.0  0.69840  0.06599  0.25720  1.0000
  C   C214      1.0  0.72185  0.09679  0.24248  1.0000
  H   H206      1.0  0.77115  0.20876  0.26527  1.0000
  H   H207      1.0  0.72825  0.15468  0.29103  1.0000
  H   H208      1.0  0.81402  0.10641  0.12762  1.0000
  H   H209      1.0  0.71982  0.08050  0.22901  1.0000
  C   C215      1.0  0.55611  0.07066  0.16963  1.0000
  H   H210      1.0  0.92019  0.45438  0.16959  1.0000
  S   S74       1.0  0.58161  0.42461  0.31060  1.0000
  H   H211      1.0  0.87185  0.44069  0.18362  1.0000
  C   C216      1.0  0.93308  0.11414  0.15197  1.0000
  H   H212      1.0  0.54736  0.31189  0.12919  1.0000
  Fe  Fe33      1.0  0.75628  0.47813  0.17474  1.0000
  C   C217      1.0  0.81316  0.04627  0.14144  1.0000
  C   C218      1.0  0.53929  0.32748  0.14097  1.0000
  C   C219      1.0  0.57147  0.01025  0.26010  1.0000
  C   C220      1.0  0.96300  0.12245  0.13757  1.0000
  H   H213      1.0  0.85871  0.16421  0.29348  1.0000
  C   C221      1.0  0.92608  0.07970  0.16528  1.0000
  H   H214      1.0  0.66416  0.18044  0.26576  1.0000
  H   H215      1.0  0.62815  0.41393  0.27290  1.0000
  H   H216      1.0  0.52518  0.31946  0.30482  1.0000
  H   H217      1.0  0.55277  0.12455  0.12997  1.0000
  H   H218      1.0  0.51601  0.19471  0.16944  1.0000
  Fe  Fe34      1.0  0.72408  0.19588  0.33431  1.0000
  H   H219      1.0  0.61506  0.09729  0.27859  1.0000
  H   H220      1.0  0.86442  0.10896  0.10258  1.0000
  N   N17       1.0  0.98559  0.09744  0.13657  1.0000
  C   C222      1.0  0.63165  0.11056  0.22599  1.0000
  C   C223      1.0  0.82619  0.08094  0.12754  1.0000
  C   C224      1.0  0.76481  0.36284  0.32786  1.0000
  C   C225      1.0  0.61838  0.10093  0.26372  1.0000
  N   N18       1.0  0.59768  0.05965  0.25224  1.0000
  H   H221      1.0  0.53385  0.26580  0.19079  1.0000
  H   H222      1.0  0.50491  0.04459  0.19052  1.0000
  N   N19       1.0  0.68901  0.44399  0.25765  1.0000
  C   C226      1.0  0.68548  0.43914  0.23878  1.0000
  H   H223      1.0  0.55127  0.06580  0.33018  1.0000
  C   C227      1.0  0.71626  0.43204  0.22866  1.0000
  S   S75       1.0  0.76026  0.27399  0.32402  1.0000
  C   C228      1.0  0.75081  0.43015  0.23788  1.0000
  S   S76       1.0  0.75099  0.14632  0.32774  1.0000
  C   C229      1.0  0.85755  0.01472  0.12706  1.0000
  H   H224      1.0  0.66371  0.31710  0.33615  1.0000
  H   H225      1.0  0.86811  0.13840  0.32465  1.0000
  S   S77       1.0  0.77568  0.04086  0.15902  1.0000
  H   H226      1.0  0.78120  0.43437  0.26446  1.0000
  C   C230      1.0  0.85466  0.08223  0.11337  1.0000
  N   N20       1.0  0.61465  0.28233  0.15103  1.0000
  C   C231      1.0  0.57594  0.23731  0.15335  1.0000
  C   C232      1.0  0.62582  0.32126  0.16309  1.0000
  C   C233      1.0  0.54676  0.23052  0.16782  1.0000
  C   C234      1.0  0.59705  0.31593  0.17761  1.0000
  C   C235      1.0  0.55714  0.27025  0.17991  1.0000
  C   C236      1.0  0.64478  0.28793  0.13584  1.0000
  H   H227      1.0  0.56713  0.20647  0.14382  1.0000
  H   H228      1.0  0.65643  0.35707  0.16120  1.0000
  C   C237      1.0  0.86298  0.45627  0.13891  1.0000
  C   C238      1.0  0.51774  0.32900  0.31825  1.0000
  H   H229      1.0  0.77536  0.42574  0.23005  1.0000
  H   H230      1.0  0.66930  0.32769  0.13311  1.0000
  H   H231      1.0  0.66388  0.26950  0.13927  1.0000
  H   H232      1.0  0.62478  0.27064  0.12288  1.0000
  H   H233      1.0  0.63703  0.11361  0.21126  1.0000
  H   H234      1.0  0.84771  0.23578  0.29081  1.0000
  C   C239      1.0  0.57014  0.37633  0.14712  1.0000
  C   C240      1.0  0.51573  0.06272  0.17743  1.0000
  H   H235      1.0  0.77713  0.36906  0.31386  1.0000
  N   N21       1.0  0.87329  0.46986  0.15718  1.0000
  S   S78       1.0  0.74865  0.48744  0.14471  1.0000
  H   H236      1.0  0.67809  0.02617  0.25487  1.0000
  H   H237      1.0  0.84494  0.27969  0.31907  1.0000
  H   H238      1.0  0.60500  0.34741  0.18666  1.0000
  C   C241      1.0  0.65323  0.15278  0.23756  1.0000
  H   H239      1.0  0.58342  0.43378  0.16731  1.0000
  Fe  Fe35      1.0  0.64851  0.47865  0.32443  1.0000
  H   H240      1.0  0.64144  0.46801  0.25978  1.0000
  H   H241      1.0  0.67639  0.18875  0.23183  1.0000
  C   C242      1.0  0.52622  0.07262  0.33612  1.0000
  H   H242      1.0  0.91416  0.13293  0.15243  1.0000
  H   H243      1.0  0.86470  0.40024  0.16459  1.0000
  H   H244      1.0  0.76834  0.43302  0.33054  1.0000
  H   H245      1.0  0.96707  0.14798  0.12690  1.0000
  H   H246      1.0  0.90189  0.07193  0.17619  1.0000
  H   H247      1.0  0.60073  0.09987  0.14653  1.0000
  C   C243      1.0  0.55979  0.39603  0.16251  1.0000
  H   H248      1.0  0.71412  0.42908  0.21373  1.0000
  C   C244      1.0  0.65601  0.45035  0.26817  1.0000
  C   C245      1.0  0.72235  0.44127  0.26682  1.0000
  H   H249      1.0  0.84607  0.47410  0.11258  1.0000
  C   C246      1.0  0.64631  0.14810  0.25655  1.0000
  C   C247      1.0  0.54245  0.37821  0.32498  1.0000
  Fe  Fe36      1.0  0.67963  0.47244  0.15218  1.0000
  H   H250      1.0  0.85998  0.42222  0.13354  1.0000
  C   C248      1.0  0.88322  0.43995  0.16931  1.0000
  H   H251      1.0  0.72573  0.44590  0.28171  1.0000
  C   C249      1.0  0.75390  0.31865  0.33642  1.0000
  C   C250      1.0  0.87030  0.04902  0.11303  1.0000
  S   S79       1.0  0.70118  0.45950  0.31851  1.0000
  H   H252      1.0  0.65969  0.44230  0.23141  1.0000
  C   C251      1.0  0.75397  0.43479  0.25710  1.0000
  C   C252      1.0  0.94935  0.05442  0.16418  1.0000
  H   H253      1.0  0.58852  0.03138  0.22438  1.0000
  C   C253      1.0  0.85866  0.18449  0.30580  1.0000
  H   H254      1.0  0.50980  0.38314  0.18302  1.0000
  C   C254      1.0  0.85249  0.22466  0.30429  1.0000
  C   C255      1.0  0.86389  0.16998  0.32325  1.0000
  H   H255      1.0  0.58763  0.18489  0.33362  1.0000
  C   C256      1.0  0.85078  0.24922  0.32035  1.0000
  C   C257      1.0  0.49838  0.29832  0.15021  1.0000
  H   H256      1.0  0.55662  0.01171  0.27353  1.0000
  Fe  Fe37      1.0  0.93050  0.99752  0.09327  1.0000
  C   C258      1.0  0.97943  0.06405  0.14971  1.0000
  H   H257      1.0  0.64500  0.23480  0.33035  1.0000
  C   C259      1.0  0.85512  0.48542  0.12698  1.0000
  C   C260      1.0  0.75967  0.39900  0.33726  1.0000
  N   N22       1.0  0.85405  0.23341  0.33741  1.0000
  H   H258      1.0  0.74100  0.01858  0.36060  1.0000
  H   H259      1.0  0.50324  0.11364  0.37602  1.0000
  H   H260      1.0  0.51847  0.25781  0.36790  1.0000
  H   H261      1.0  0.64428  0.37783  0.34788  1.0000
  Fe  Fe38      1.0  0.73180  0.11848  0.35641  1.0000
  C   C261      1.0  0.83677  0.08206  0.38728  1.0000
  S   S80       1.0  0.78819  0.12216  0.37415  1.0000
  H   H262      1.0  0.95898  0.14301  0.64249  1.0000
  S   S81       1.0  0.58031  0.10594  0.36761  1.0000
  H   H263      1.0  0.93357  0.06752  0.62556  1.0000
  S   S82       1.0  0.71003  0.17295  0.36362  1.0000
  C   C262      1.0  0.98004  0.13511  0.65114  1.0000
  Fe  Fe39      1.0  0.64111  0.11396  0.35267  1.0000
  C   C263      1.0  0.55069  0.27108  0.36111  1.0000
  C   C264      1.0  0.74436  0.39159  0.35543  1.0000
  S   S83       1.0  0.73584  0.43565  0.36708  1.0000
  H   H264      1.0  0.55155  0.42841  0.34756  1.0000
  C   C265      1.0  0.79877  0.07318  0.37676  1.0000
  H   H265      1.0  0.57190  0.34835  0.36424  1.0000
  C   C266      1.0  0.73422  0.34779  0.36415  1.0000
  H   H266      1.0  0.83245  0.22999  0.36519  1.0000
  H   H267      1.0  0.62795  0.20749  0.35267  1.0000
  C   C267      1.0  0.49897  0.09935  0.36194  1.0000
  H   H268      1.0  0.73020  0.27726  0.36135  1.0000
  H   H269      1.0  0.72233  0.34184  0.37821  1.0000
  C   C268      1.0  0.56297  0.23761  0.35461  1.0000
  C   C269      1.0  0.84614  0.04406  0.38989  1.0000
  H   H270      1.0  0.85887  0.11842  0.39361  1.0000
  C   C270      1.0  0.77037  0.02595  0.36871  1.0000
  C   C271      1.0  0.53202  0.09140  0.35426  1.0000
  S   S84       1.0  0.66118  0.05690  0.34794  1.0000
  N   N23       1.0  0.60325  0.25424  0.34585  1.0000
  S   S85       1.0  0.66678  0.49540  0.35452  1.0000
  H   H271      1.0  0.82730  0.27292  0.35138  1.0000
  C   C272      1.0  0.73842  0.31106  0.35458  1.0000
  H   H272      1.0  0.87524  0.05127  0.39814  1.0000
  N   N24       1.0  0.97781  0.09054  0.64937  1.0000
  H   H273      1.0  0.91532  0.02303  0.64371  1.0000
  H   H274      1.0  0.88306  0.28767  0.35918  1.0000
  H   H275      1.0  0.98049  0.03073  0.50247  1.0000
  C   C273      1.0  0.62103  0.33842  0.34970  1.0000
  H   H276      1.0  0.96145  0.03393  0.62888  1.0000
  C   C274      1.0  0.63192  0.30387  0.34317  1.0000
  C   C275      1.0  0.84924  0.25742  0.35411  1.0000
  C   C276      1.0  0.58037  0.32185  0.35888  1.0000
  C   C277      1.0  0.53280  0.39033  0.34237  1.0000
  H   H277      1.0  0.54026  0.19832  0.35671  1.0000
  C   C278      1.0  0.49732  0.35343  0.35271  1.0000
  H   H278      1.0  0.86491  0.18302  0.35252  1.0000
  S   S86       1.0  0.94948  0.01524  0.41368  1.0000
  C   C279      1.0  0.94534  0.05195  0.63630  1.0000
  Fe  Fe40      1.0  0.72341  0.48252  0.34786  1.0000
  C   C280      1.0  0.86192  0.19532  0.33900  1.0000
  C   C281      1.0  0.61664  0.21874  0.34029  1.0000
  C   C282      1.0  0.81737  0.99662  0.38206  1.0000
  H   H279      1.0  0.96158  0.06795  0.95088  1.0000
  S   S87       1.0  0.94094  0.00487  0.91107  1.0000
  H   H280      1.0  0.98324  0.18531  0.91532  1.0000
  H   H281      1.0  0.93282  0.11627  0.93595  1.0000
  C   C283      1.0  0.96752  0.12583  0.93381  1.0000
  C   C284      1.0  0.98398  0.09857  0.94219  1.0000
  Fe  Fe41      1.0  0.90516  0.89095  0.09948  1.0000
  H   H282      1.0  0.95931  0.78691  0.06008  1.0000
  S   S88       1.0  0.84064  0.82088  0.10775  1.0000
  H   H283      1.0  0.87109  0.57611  0.15788  1.0000
  H   H284      1.0  0.67134  0.92483  0.12127  1.0000
  H   H285      1.0  0.88346  0.87662  0.03648  1.0000
  Fe  Fe42      1.0  0.74599  0.54004  0.31239  1.0000
  H   H286      1.0  0.68003  0.57873  0.25025  1.0000
  Fe  Fe43      1.0  0.71572  0.53903  0.18665  1.0000
  C   C285      1.0  0.73971  0.89581  0.12696  1.0000
  S   S89       1.0  0.89722  0.92865  0.07499  1.0000
  Fe  Fe44      1.0  0.77341  0.56736  0.15231  1.0000
  S   S90       1.0  0.78726  0.55891  0.18192  1.0000
  S   S91       1.0  0.83293  0.62768  0.13662  1.0000
  C   C286      1.0  0.79108  0.90182  0.10321  1.0000
  H   H287      1.0  0.72161  0.87893  0.13949  1.0000
  S   S92       1.0  0.97384  0.90567  0.09133  1.0000
  H   H288      1.0  0.94738  0.83330  0.03594  1.0000
  C   C287      1.0  0.89280  0.75782  0.07151  1.0000
  H   H289      1.0  0.81894  0.98627  0.15184  1.0000
  H   H290      1.0  0.78446  0.70015  0.33057  1.0000
  N   N25       1.0  0.88026  0.81075  0.04438  1.0000
  C   C288      1.0  0.76541  0.56463  0.26644  1.0000
  H   H291      1.0  0.77101  0.85138  0.12563  1.0000
  H   H292      1.0  0.81573  0.78560  0.05645  1.0000
  S   S93       1.0  0.69177  0.55809  0.31636  1.0000
  C   C289      1.0  0.84014  0.76946  0.11734  1.0000
  C   C290      1.0  0.87923  0.76665  0.11815  1.0000
  C   C291      1.0  0.87661  0.72315  0.12427  1.0000
  C   C292      1.0  0.83517  0.68261  0.13000  1.0000
  C   C293      1.0  0.79633  0.68596  0.12959  1.0000
  C   C294      1.0  0.79878  0.72905  0.12313  1.0000
  H   H293      1.0  0.91128  0.79758  0.11377  1.0000
  H   H294      1.0  0.90683  0.72089  0.12461  1.0000
  H   H295      1.0  0.76422  0.65496  0.13390  1.0000
  H   H296      1.0  0.76832  0.73082  0.12250  1.0000
  H   H297      1.0  0.71718  0.57875  0.27954  1.0000
  C   C295      1.0  0.86921  0.54266  0.15243  1.0000
  C   C296      1.0  0.70624  0.94803  0.12713  1.0000
  C   C297      1.0  0.78683  0.93893  0.09509  1.0000
  C   C298      1.0  0.84680  0.78488  0.05683  1.0000
  S   S94       1.0  0.70321  0.55322  0.15742  1.0000
  S   S95       1.0  0.78920  0.55890  0.28712  1.0000
  H   H298      1.0  0.89764  0.73737  0.08221  1.0000
  N   N26       1.0  0.73609  0.93263  0.11903  1.0000
  H   H299      1.0  0.80628  0.95722  0.08295  1.0000
  C   C299      1.0  0.94190  0.96381  0.01580  1.0000
  H   H300      1.0  0.70516  0.94488  0.14243  1.0000
  H   H301      1.0  0.75657  0.98354  0.09705  1.0000
  H   H302      1.0  0.81309  0.89031  0.09727  1.0000
  S   S96       1.0  0.93376  0.95878  0.11805  1.0000
  Fe  Fe45      1.0  0.96791  0.94863  0.06791  1.0000
  C   C300      1.0  0.76742  0.88002  0.11922  1.0000
  S   S97       1.0  0.69409  0.56144  0.21256  1.0000
  C   C301      1.0  0.70828  0.57288  0.25000  1.0000
  H   H303      1.0  0.89566  0.84581  0.01824  1.0000
  C   C302      1.0  0.97188  0.94673  0.01743  1.0000
  H   H304      1.0  0.92995  0.97334  0.02808  1.0000
  C   C303      1.0  0.72920  0.57268  0.26663  1.0000
  C   C304      1.0  0.78148  0.55833  0.24948  1.0000
  H   H305      1.0  0.85212  0.55185  0.12479  1.0000
  H   H306      1.0  0.77207  0.55160  0.21996  1.0000
  C   C305      1.0  0.87653  0.51248  0.16400  1.0000
  C   C306      1.0  0.76021  0.55793  0.23286  1.0000
  H   H307      1.0  0.80966  0.55238  0.24921  1.0000
  H   H308      1.0  0.82557  0.73682  0.08019  1.0000
  H   H309      1.0  0.88389  0.52282  0.17855  1.0000
  C   C307      1.0  0.92031  0.81170  0.04549  1.0000
  C   C308      1.0  0.85225  0.75739  0.07036  1.0000
  C   C309      1.0  0.72330  0.56484  0.23307  1.0000
  C   C310      1.0  0.87397  0.83970  0.03044  1.0000
  H   H310      1.0  0.83825  0.82039  0.02531  1.0000
  C   C311      1.0  0.85855  0.52902  0.13381  1.0000
  C   C312      1.0  0.75886  0.95385  0.10320  1.0000
  H   H311      1.0  0.72613  0.71802  0.33660  1.0000
  H   H312      1.0  0.86930  0.98899  0.12701  1.0000
  C   C313      1.0  0.92725  0.78540  0.05909  1.0000
  H   H313      1.0  0.84252  0.74523  0.33578  1.0000
  C   C314      1.0  0.81069  0.74035  0.32979  1.0000
  H   H314      1.0  0.81601  0.75062  0.31505  1.0000
  H   H315      1.0  0.71898  0.98780  0.12455  1.0000
  H   H316      1.0  0.54314  0.98406  0.25066  1.0000
  S   S98       1.0  0.98933  0.93716  0.03930  1.0000
  H   H317      1.0  0.59417  0.99564  0.26260  1.0000
  H   H318      1.0  0.79610  0.80707  0.55858  1.0000
  H   H319      1.0  0.60519  0.68261  0.67121  1.0000
  C   C315      1.0  0.91605  0.88742  0.50403  1.0000
  N   N27       1.0  0.82895  0.91655  0.53868  1.0000
  H   H320      1.0  0.91219  0.88841  0.47418  1.0000
  C   C316      1.0  0.81234  0.91996  0.57072  1.0000
  Fe  Fe46      1.0  0.56722  0.75061  0.64961  1.0000
  S   S99       1.0  0.62640  0.74823  0.63663  1.0000
  Fe  Fe47      1.0  0.98946  0.98843  0.39800  1.0000
  C   C317      1.0  0.94730  0.96239  0.48618  1.0000
  S   S100      1.0  0.72151  0.63933  0.36203  1.0000
  Fe  Fe48      1.0  0.92082  0.88046  0.40620  1.0000
  S   S101      1.0  0.92791  0.92860  0.38266  1.0000
  S   S102      1.0  0.90805  0.80369  0.39942  1.0000
  H   H321      1.0  0.80962  0.53539  0.38914  1.0000
  C   C318      1.0  0.81733  0.86818  0.54026  1.0000
  S   S103      1.0  0.87605  0.89859  0.42282  1.0000
  C   C319      1.0  0.80100  0.87090  0.57249  1.0000
  Fe  Fe49      1.0  0.93363  0.91133  0.57201  1.0000
  S   S104      1.0  0.88787  0.85285  0.59200  1.0000
  S   S105      1.0  0.91766  0.88394  0.54184  1.0000
  Fe  Fe50      1.0  0.88795  0.91468  0.60810  1.0000
  S   S106      1.0  0.83013  0.92084  0.62052  1.0000
  C   C320      1.0  0.74527  0.58499  0.39974  1.0000
  H   H322      1.0  0.71120  0.57800  0.39772  1.0000
  C   C321      1.0  0.75649  0.55120  0.39276  1.0000
  N   N28       1.0  0.82206  0.63851  0.41077  1.0000
  C   C322      1.0  0.84323  0.94091  0.52087  1.0000
  C   C323      1.0  0.85694  0.76077  0.38786  1.0000
  C   C324      1.0  0.85473  0.72155  0.37739  1.0000
  C   C325      1.0  0.81350  0.68434  0.36928  1.0000
  C   C326      1.0  0.77403  0.68577  0.37177  1.0000
  C   C327      1.0  0.77628  0.72507  0.38222  1.0000
  C   C328      1.0  0.81769  0.76276  0.39010  1.0000
  H   H323      1.0  0.88502  0.71982  0.37564  1.0000
  H   H324      1.0  0.81232  0.65445  0.36124  1.0000
  Fe  Fe51      1.0  0.94160  0.96106  0.43541  1.0000
  H   H325      1.0  0.81902  0.79269  0.39829  1.0000
  C   C329      1.0  0.95462  0.96743  0.52002  1.0000
  Fe  Fe52      1.0  0.51606  0.80002  0.66295  1.0000
  C   C330      1.0  0.77957  0.98787  0.37142  1.0000
  C   C331      1.0  0.93118  0.91562  0.52069  1.0000
  C   C332      1.0  0.80361  0.84479  0.55721  1.0000
  C   C333      1.0  0.92410  0.91060  0.48686  1.0000
  S   S107      1.0  0.51611  0.76433  0.63574  1.0000
  C   C334      1.0  0.85659  0.68371  0.42074  1.0000
  H   H326      1.0  0.83559  0.98072  0.55236  1.0000
  C   C335      1.0  0.68290  0.79705  0.63245  1.0000
  C   C336      1.0  0.69759  0.84704  0.63600  1.0000
  C   C337      1.0  0.74281  0.88435  0.63241  1.0000
  C   C338      1.0  0.77394  0.87218  0.62536  1.0000
  C   C339      1.0  0.75944  0.82213  0.62213  1.0000
  C   C340      1.0  0.71416  0.78488  0.62559  1.0000
  H   H327      1.0  0.67398  0.85701  0.64127  1.0000
  H   H328      1.0  0.75362  0.92293  0.63496  1.0000
  H   H329      1.0  0.78301  0.81201  0.61695  1.0000
  H   H330      1.0  0.70326  0.74631  0.62292  1.0000
  S   S108      1.0  0.96505  0.81337  0.61719  1.0000
  H   H331      1.0  0.70257  0.77048  0.35306  1.0000
  C   C341      1.0  0.82639  0.94240  0.55360  1.0000
  C   C342      1.0  0.77858  0.62856  0.40889  1.0000
  H   H332      1.0  0.67599  0.76163  0.66914  1.0000
  H   H333      1.0  0.79082  0.85341  0.58576  1.0000
  H   H334      1.0  0.84261  0.88393  0.36147  1.0000
  S   S109      1.0  0.94835  0.93056  0.62563  1.0000
  H   H335      1.0  0.86521  0.83024  0.34534  1.0000
  H   H336      1.0  0.74586  0.72641  0.38427  1.0000
  H   H337      1.0  0.76966  0.65494  0.41403  1.0000
  H   H338      1.0  0.73100  0.51708  0.38575  1.0000
  C   C343      1.0  0.73830  0.78401  0.35123  1.0000
  H   H339      1.0  0.89788  0.84730  0.50438  1.0000
  C   C344      1.0  0.81697  0.84751  0.35604  1.0000
  H   H340      1.0  0.88870  0.70252  0.41288  1.0000
  Fe  Fe53      1.0  0.95218  0.87362  0.60782  1.0000
  C   C345      1.0  0.80080  0.56154  0.39473  1.0000
  H   H341      1.0  0.87549  0.97732  0.52261  1.0000
  H   H342      1.0  0.86784  0.61357  0.40531  1.0000
  H   H343      1.0  0.84594  0.71135  0.42249  1.0000
  C   C346      1.0  0.83339  0.60567  0.40385  1.0000
  Fe  Fe54      1.0  0.71603  0.57374  0.34601  1.0000
  H   H344      1.0  0.76136  0.85412  0.36569  1.0000
  S   S110      1.0  0.92956  0.97234  0.58708  1.0000
  H   H345      1.0  0.81081  0.94053  0.58265  1.0000
  Fe  Fe55      1.0  0.88734  0.95131  0.40001  1.0000
  S   S111      1.0  0.51268  0.67639  0.66010  1.0000
  H   H346      1.0  0.82039  0.84794  0.52859  1.0000
  H   H347      1.0  0.86338  0.67448  0.43461  1.0000
  C   C347      1.0  0.77117  0.83076  0.35835  1.0000
  C   C348      1.0  0.96250  0.99062  0.50285  1.0000
  C   C349      1.0  0.75188  0.75461  0.34189  1.0000
  S   S112      1.0  0.82666  0.94693  0.38535  1.0000
  H   H348      1.0  0.84976  0.91857  0.51063  1.0000
  H   H349      1.0  0.96642  0.98960  0.53271  1.0000
  S   S113      1.0  0.51425  0.87012  0.66509  1.0000
  S   S114      1.0  0.77404  0.56176  0.34146  1.0000
  H   H350      1.0  0.75707  0.95132  0.36532  1.0000
  C   C350      1.0  0.82942  0.81702  0.34682  1.0000
  H   H351      1.0  0.50011  0.94258  0.64913  1.0000
  Fe  Fe56      1.0  0.98974  0.98390  0.60365  1.0000
  H   H352      1.0  0.81660  0.94671  0.51504  1.0000
  S   S115      1.0  0.98590  0.93882  0.42048  1.0000
  S   S116      1.0  0.95766  0.99365  0.46500  1.0000
  N   N29       1.0  0.79698  0.77107  0.33998  1.0000
  H   H353      1.0  0.57343  0.66647  0.69201  1.0000
  C   C351      1.0  0.94224  0.95631  0.98199  1.0000
  H   H354      1.0  0.69450  0.93324  0.87567  1.0000
  S   S117      1.0  0.57149  0.79224  0.67597  1.0000
  S   S118      1.0  0.92194  0.96247  0.96022  1.0000
  Fe  Fe57      1.0  0.55056  0.78894  0.80959  1.0000
  S   S119      1.0  0.56852  0.83066  0.83700  1.0000
  S   S120      1.0  0.56914  0.82940  0.78279  1.0000
  Fe  Fe58      1.0  0.58308  0.77271  0.84644  1.0000
  S   S121      1.0  0.63547  0.78253  0.86814  1.0000
  C   C352      1.0  0.97253  0.93962  0.98362  1.0000
  C   C353      1.0  0.64251  0.94791  0.86729  1.0000
  S   S122      1.0  0.57086  0.73508  0.81837  1.0000
  H   H355      1.0  0.51656  0.79661  0.88786  1.0000
  C   C354      1.0  0.60853  0.68576  0.68656  1.0000
  C   C355      1.0  0.52130  0.72483  0.73203  1.0000
  S   S123      1.0  0.89658  0.88410  0.91159  1.0000
  H   H356      1.0  0.52421  0.72251  0.77904  1.0000
  C   C356      1.0  0.94137  0.92191  0.83113  1.0000
  Fe  Fe59      1.0  0.90271  0.93981  0.89121  1.0000
  S   S124      1.0  0.84974  0.93463  0.87077  1.0000
  Fe  Fe60      1.0  0.96360  0.89896  0.90037  1.0000
  N   N30       1.0  0.58283  0.86065  0.88492  1.0000
  H   H357      1.0  0.71771  0.85021  0.67883  1.0000
  H   H358      1.0  0.55035  0.82099  0.90891  1.0000
  H   H359      1.0  0.84854  0.83794  0.87248  1.0000
  C   C357      1.0  0.79019  0.89216  0.87040  1.0000
  C   C358      1.0  0.76380  0.89384  0.85590  1.0000
  C   C359      1.0  0.71648  0.86030  0.85486  1.0000
  C   C360      1.0  0.69506  0.82473  0.86837  1.0000
  C   C361      1.0  0.72143  0.82317  0.88289  1.0000
  C   C362      1.0  0.76876  0.85656  0.88389  1.0000
  H   H360      1.0  0.78008  0.92120  0.84537  1.0000
  H   H361      1.0  0.69662  0.86196  0.84362  1.0000
  H   H362      1.0  0.70515  0.79586  0.89344  1.0000
  H   H363      1.0  0.78857  0.85487  0.89514  1.0000
  H   H364      1.0  0.81834  0.82813  0.85101  1.0000
  C   C363      1.0  0.54210  0.77610  0.72995  1.0000
  C   C364      1.0  0.55718  0.80816  0.74560  1.0000
  C   C365      1.0  0.55085  0.78894  0.76335  1.0000
  H   H365      1.0  0.54718  0.79112  0.71630  1.0000
  C   C366      1.0  0.97377  0.90847  0.83325  1.0000
  C   C367      1.0  0.51486  0.70569  0.74975  1.0000
  H   H366      1.0  0.90377  0.98146  0.99708  1.0000
  H   H367      1.0  0.94959  0.95523  0.82387  1.0000
  Fe  Fe61      1.0  0.93959  0.95004  0.93094  1.0000
  C   C368      1.0  0.96316  0.86647  0.84317  1.0000
  C   C369      1.0  0.55145  0.81403  0.89389  1.0000
  H   H368      1.0  0.91286  0.80702  0.85920  1.0000
  C   C370      1.0  0.65872  0.92111  0.87608  1.0000
  H   H369      1.0  0.66565  0.98123  0.85998  1.0000
  N   N31       1.0  0.63416  0.73797  0.69286  1.0000
  C   C371      1.0  0.89870  0.89306  0.83903  1.0000
  H   H370      1.0  0.49882  0.66604  0.75143  1.0000
  C   C372      1.0  0.69196  0.82280  0.68770  1.0000
  H   H371      1.0  0.57383  0.84789  0.74400  1.0000
  C   C373      1.0  0.68221  0.83719  0.70459  1.0000
  C   C374      1.0  0.52935  0.73764  0.76540  1.0000
  C   C375      1.0  0.84486  0.82388  0.85797  1.0000
  H   H372      1.0  0.70034  0.87604  0.70901  1.0000
  H   H373      1.0  0.83263  0.78361  0.85797  1.0000
  C   C376      1.0  0.62548  0.75147  0.70973  1.0000
  C   C377      1.0  0.92024  0.83862  0.85097  1.0000
  H   H374      1.0  0.59980  0.72376  0.71851  1.0000
  H   H375      1.0  0.56230  0.78661  0.89178  1.0000
  C   C378      1.0  0.64910  0.80128  0.71580  1.0000
  C   C379      1.0  0.59632  0.93138  0.86784  1.0000
  H   H376      1.0  0.58320  0.95169  0.86097  1.0000
  H   H377      1.0  0.64118  0.85708  0.89191  1.0000
  C   C380      1.0  0.92712  0.96842  0.99818  1.0000
  N   N32       1.0  0.88858  0.85190  0.84875  1.0000
  H   H378      1.0  0.64139  0.81185  0.72904  1.0000
  S   S125      1.0  0.50486  0.68414  0.71269  1.0000
  H   H379      1.0  0.87415  0.90456  0.83775  1.0000
  S   S126      1.0  0.96691  0.95044  0.87884  1.0000
  C   C381      1.0  0.62830  0.87773  0.88512  1.0000
  C   C382      1.0  0.56680  0.88753  0.87687  1.0000
  Fe  Fe62      1.0  0.49579  0.77620  0.84370  1.0000
  S   S127      1.0  0.97268  0.83514  0.89116  1.0000
  H   H380      1.0  0.53082  0.87444  0.87696  1.0000
  Fe  Fe63      1.0  0.51362  0.71936  0.68528  1.0000
  Fe  Fe64      1.0  0.49802  0.68850  0.82680  1.0000
  C   C383      1.0  0.98714  0.93477  0.00125  1.0000
  S   S128      1.0  0.51117  0.72132  0.85544  1.0000
  C   C384      1.0  0.66788  0.77262  0.68216  1.0000
  H   H381      1.0  0.62595  0.66654  0.69124  1.0000
  H   H382      1.0  0.98446  0.93014  0.97131  1.0000
  H   H383      1.0  0.49493  0.83390  0.72765  1.0000
  H   H384      1.0  0.98843  0.85632  0.84530  1.0000
