data_image0
_chemical_formula_structural       SH3S2HCHSHFeSFeHFeS2C2HCSC6H4C4HCH2CNHC3HFeH3CH2SHCH2C6SNC2HC2FeHCNC2HC3H2C2HSFeCHC2HNH2FeH4Fe2H2C3H2CH2SHNSHCHC3H2CHFeCHC2HSHS3HSHNHFeSCHFeS2FeCFeH3SCHSC2SHC4H2C5H3CHFeC7FeCH3CH3C2HSH2CHC2HC3H2CHNCHFeHSFeCSCH2CH2SHCHC2HC2HSHCHSCHCH3NH4FeS2FeS2FeSFeHS2FeS2FeCSHS2FeSHCSCSCHC4HSC3SH3C3H2C6H4C2HC7H4CFeH2CHCHCH2SC5H2C2H2CHNH2CNHC3H2FeHSH3CHSCNHFeH3C2H3C2SH4SCH2CNSFeSHCHSCH2FeS2FeSCFeSFeS4C7H4C6H5CHCH2C2NH3FeHC7H4CHCHC2HN2HC2NHCSCHFeSC3H4C3H6C3H2NC2HSC2H2C2HFeHCSCHCH2C3HNC2H3CH2CH3C4HS2FeSHCHSHCH2SHNCSCSFeHSCH2CSFeSHCH2SC2FeHCS2HSC2SFeSFeSNSC4H2CHC2H2CH2CHC7H2CHC2H3CH4C2H2C3FeCH2C2NCFeC6H3Fe2CS2H3CS2HCNC3H2CH4CH2Fe2H3SHFeCFeS2FeS2HFeCS2HCFeHSFeS2Fe2S3C2FeH2S2NFeSCHFeSC2S2C2HSC7H4CHC4H2C5H2CH2FeHNC6H3SC4NH4C6SH4C3H4C2FeH2C2H2CH2SH2FeC2HCHCH3C3HC2H3NH2CSFeNH2CHSHC3HC3HC3H6C5HCH2CHC4HSFeSFeS2FeS2FeSFeS3C5H2C6HCH2C6H5C3H2CH2C3SHNCHC2H8C2HCH2CHNC3HSH2C2HCHC2H4NHCHCH2CH2CHC5H2FeSHSHSCNH2NHCH2CFeS2FeS2FeHFeS2C3H2C5H3C8H6CHSNH3NC2SH2C4HCHCNHSCHCH5C2HCH6C3S2HCH2SFeSHFeS2Fe2S3C7H4C2HSC2H3C2HNH3C3H2S2CHNHCHCHCHSHCHCNHCHSCHCFeH2CHC2H2CH2C2SH3CHC4H2CH3S2FeSH2FeSHSFeSC6H4SCH2CH2C2HSC6HFeH2C6H3C2H4NHSHC2HC3SCH4CH2CH2SCHCHCHCNCNHSHCHSHCHC2NH2CH2NCHCSH2FeSHFeSHFeCFeS3HCFeS2FeS2FeSFeS3FeH2FeS2FeSFeNS2HCNCSC2HC6HCH2C6H4C6H5C6H6C3HCH3CH2CNC6H4S2H3NC4HCH8CHSH3CHCHSC2FeS2FeS2FeSFeS3FeSHFeSCFeSFeS2FeSHFeS2FeCFeS3CHC6H7C6H4C3SC7H3NC2SNCHCHCH2CHCH2C2HNC2H2C2HNCHC3H4CHCH2CH8C3HC2H3CH7NHSC2HC2H3NH2CHCH2NH2SH2SFe2S2FeHFeS2HC2FeS2FeS2FeSFeS3C6HCH2C6SHCHC6H5CH4CHSCHC6H2C2NC4HCHCHC4H2CHNC3H5CSCHCH3SH5SHFeH2NH3FeC3HSH2CHCSC2HCH2CFeS2FeS2FeCFeS2CFeSCFeHC2H2C2SC7H4C8H3CH2CNHSH7CNH5SCH2CH2NSHCHC5HCSHCSFeCH2CSC2HC2HCHNC2HC2HFeH4SCHCSHCNHC2HC2H4C2FeSCFeS2FeHFeS2CFeSH2C2HCSC2HCHSH3C8H5CSH3CSHC2HCSHC2FeCHS2N2C5H2N2C2HC2H2C3HSC2H3CHCH2CH3CH2C2HC2SHC2H6NCHSH2FeNH3SHC4H4FeCHCNFeS2FeS2FeSFeS3CSHFeHCFe2S2FeSHFeSHFe2S2C5H4C3H2CH2CHC3HC6H3C3H3C7H4CH4CHC2H3NCH2C3SH4CHC4HCH2SC3HC3NHS2CH2CH2NCH3C3H2CFeHCSCSH3C2SH2C2
_chemical_formula_sum              "S288 H864 C864 Fe144 N72"
_cell_length_a       58.5927
_cell_length_b       58.5586
_cell_length_c       33.5954
_cell_angle_alpha    90.7916
_cell_angle_beta     89.8552
_cell_angle_gamma    117.526

_space_group_name_H-M_alt    "P 1"
_space_group_IT_number       1

loop_
  _space_group_symop_operation_xyz
  'x, y, z'

loop_
  _atom_site_type_symbol
  _atom_site_label
  _atom_site_symmetry_multiplicity
  _atom_site_fract_x
  _atom_site_fract_y
  _atom_site_fract_z
  _atom_site_occupancy
  S   S1        1.0  0.18067  0.20482  0.42503  1.0000
  H   H1        1.0  0.20928  0.11477  0.08772  1.0000
  H   H2        1.0  0.04355  0.37176  0.09577  1.0000
  H   H3        1.0  0.14198  0.44274  0.42043  1.0000
  S   S2        1.0  0.18383  0.26215  0.43466  1.0000
  S   S3        1.0  0.19872  0.19789  0.06843  1.0000
  H   H4        1.0  0.10422  0.18727  0.99495  1.0000
  C   C1        1.0  0.11648  0.48189  0.45142  1.0000
  H   H5        1.0  0.04734  0.45351  0.44673  1.0000
  S   S4        1.0  0.15244  0.43418  0.23070  1.0000
  H   H6        1.0  0.14795  0.24701  0.35674  1.0000
  Fe  Fe1       1.0  0.19979  0.24241  0.39283  1.0000
  S   S5        1.0  0.10026  0.44083  0.23021  1.0000
  Fe  Fe2       1.0  0.13558  0.45480  0.26900  1.0000
  H   H7        1.0  0.13038  0.45880  0.48227  1.0000
  Fe  Fe3       1.0  0.11850  0.42303  0.18919  1.0000
  S   S6        1.0  0.09298  0.38146  0.16683  1.0000
  S   S7        1.0  0.13814  0.45852  0.15202  1.0000
  C   C2        1.0  0.14870  0.27033  0.07269  1.0000
  C   C3        1.0  0.07100  0.41180  0.43002  1.0000
  H   H8        1.0  0.07873  0.39867  0.00929  1.0000
  C   C4        1.0  0.14414  0.21596  0.99706  1.0000
  S   S8        1.0  0.19485  0.25424  0.00278  1.0000
  C   C5        1.0  0.08913  0.36607  0.11920  1.0000
  C   C6        1.0  0.10341  0.37902  0.08589  1.0000
  C   C7        1.0  0.09871  0.36631  0.04844  1.0000
  C   C8        1.0  0.07956  0.34058  0.04350  1.0000
  C   C9        1.0  0.06544  0.32756  0.07687  1.0000
  C   C10       1.0  0.07025  0.34022  0.11439  1.0000
  H   H9        1.0  0.11801  0.39886  0.08896  1.0000
  H   H10       1.0  0.10988  0.37659  0.02295  1.0000
  H   H11       1.0  0.05054  0.30785  0.07370  1.0000
  H   H12       1.0  0.05901  0.32997  0.13984  1.0000
  C   C11       1.0  0.12747  0.46518  0.45354  1.0000
  C   C12       1.0  0.18570  0.13098  0.11154  1.0000
  C   C13       1.0  0.20109  0.07204  0.99224  1.0000
  C   C14       1.0  0.12998  0.46366  0.38040  1.0000
  H   H13       1.0  0.06390  0.22045  0.42208  1.0000
  C   C15       1.0  0.09703  0.25192  0.39631  1.0000
  H   H14       1.0  0.18568  0.44991  0.31952  1.0000
  H   H15       1.0  0.10055  0.29069  0.00339  1.0000
  C   C16       1.0  0.20357  0.15928  0.16845  1.0000
  N   N1        1.0  0.11484  0.21601  0.38212  1.0000
  H   H16       1.0  0.11076  0.18178  0.35361  1.0000
  C   C17       1.0  0.08215  0.22630  0.40705  1.0000
  C   C18       1.0  0.07627  0.44602  0.09689  1.0000
  C   C19       1.0  0.12082  0.25938  0.37808  1.0000
  H   H17       1.0  0.15139  0.30626  0.05328  1.0000
  Fe  Fe4       1.0  0.21921  0.27341  0.47297  1.0000
  H   H18       1.0  0.08034  0.18890  0.40999  1.0000
  H   H19       1.0  0.09027  0.26598  0.40278  1.0000
  H   H20       1.0  0.06841  0.44318  0.15977  1.0000
  C   C20       1.0  0.05465  0.40585  0.13159  1.0000
  H   H21       1.0  0.19862  0.03250  0.42043  1.0000
  H   H22       1.0  0.16932  0.27788  0.07671  1.0000
  S   S9        1.0  0.19211  0.24306  0.32566  1.0000
  H   H23       1.0  0.18010  0.24093  0.24216  1.0000
  C   C21       1.0  0.05245  0.39263  0.09564  1.0000
  H   H24       1.0  0.08164  0.44270  0.03425  1.0000
  H   H25       1.0  0.14356  0.20554  0.36192  1.0000
  C   C22       1.0  0.16592  0.00550  0.45289  1.0000
  C   C23       1.0  0.20737  0.23273  0.20944  1.0000
  C   C24       1.0  0.07211  0.41225  0.38840  1.0000
  C   C25       1.0  0.20744  0.12707  0.11059  1.0000
  C   C26       1.0  0.09152  0.20855  0.40003  1.0000
  C   C27       1.0  0.12941  0.24102  0.37089  1.0000
  S   S10       1.0  0.03561  0.24817  0.00305  1.0000
  N   N2        1.0  0.11257  0.27641  0.05242  1.0000
  C   C28       1.0  0.13845  0.28621  0.05917  1.0000
  C   C29       1.0  0.09642  0.25084  0.05809  1.0000
  H   H26       1.0  0.14015  0.23159  0.08791  1.0000
  C   C30       1.0  0.10599  0.23445  0.07173  1.0000
  C   C31       1.0  0.05440  0.44213  0.38886  1.0000
  Fe  Fe5       1.0  0.16710  0.22542  0.46896  1.0000
  H   H27       1.0  0.07799  0.40026  0.44590  1.0000
  C   C32       1.0  0.05376  0.44139  0.43050  1.0000
  N   N3        1.0  0.06211  0.42642  0.45051  1.0000
  C   C33       1.0  0.20179  0.07727  0.44536  1.0000
  C   C34       1.0  0.06652  0.43268  0.13208  1.0000
  H   H28       1.0  0.04845  0.45455  0.37313  1.0000
  C   C35       1.0  0.06378  0.42756  0.36777  1.0000
  C   C36       1.0  0.11772  0.20719  0.98957  1.0000
  C   C37       1.0  0.12387  0.19681  0.37478  1.0000
  H   H29       1.0  0.12450  0.18763  0.40324  1.0000
  H   H30       1.0  0.09319  0.21400  0.07461  1.0000
  C   C38       1.0  0.07390  0.43220  0.06148  1.0000
  C   C39       1.0  0.18373  0.14724  0.14054  1.0000
  H   H31       1.0  0.13269  0.27928  0.36987  1.0000
  S   S11       1.0  0.13641  0.44949  0.33701  1.0000
  Fe  Fe6       1.0  0.17105  0.47071  0.19581  1.0000
  C   C40       1.0  0.13231  0.24430  0.07899  1.0000
  H   H32       1.0  0.19505  0.09186  0.45177  1.0000
  C   C41       1.0  0.13405  0.45609  0.41830  1.0000
  C   C42       1.0  0.20659  0.23695  0.28247  1.0000
  H   H33       1.0  0.17071  0.12188  0.08915  1.0000
  N   N4        1.0  0.06211  0.40584  0.06121  1.0000
  H   H34       1.0  0.19935  0.23308  0.18063  1.0000
  H   H35       1.0  0.04787  0.39534  0.15908  1.0000
  Fe  Fe7       1.0  0.21633  0.21969  0.46268  1.0000
  H   H36       1.0  0.21091  0.44192  0.19159  1.0000
  H   H37       1.0  0.20209  0.17227  0.19046  1.0000
  H   H38       1.0  0.06535  0.42868  0.33556  1.0000
  H   H39       1.0  0.07613  0.24273  0.05073  1.0000
  Fe  Fe8       1.0  0.12229  0.47731  0.19535  1.0000
  Fe  Fe9       1.0  0.21413  0.23079  0.02552  1.0000
  H   H40       1.0  0.04646  0.39497  0.00297  1.0000
  H   H41       1.0  0.08295  0.28784  0.04875  1.0000
  C   C43       1.0  0.05958  0.39190  0.02351  1.0000
  C   C44       1.0  0.19646  0.23717  0.24450  1.0000
  C   C45       1.0  0.20925  0.11652  0.00497  1.0000
  H   H42       1.0  0.08021  0.40153  0.37223  1.0000
  H   H43       1.0  0.22003  0.08313  0.46208  1.0000
  C   C46       1.0  0.10228  0.29292  0.03631  1.0000
  H   H44       1.0  0.16721  0.15093  0.14091  1.0000
  H   H45       1.0  0.08581  0.46695  0.09732  1.0000
  S   S12       1.0  0.19679  0.13870  0.01229  1.0000
  H   H46       1.0  0.15084  0.20282  0.00810  1.0000
  N   N5        1.0  0.18275  0.05146  0.45749  1.0000
  S   S13       1.0  0.07348  0.32628  0.99478  1.0000
  H   H47       1.0  0.11471  0.31359  0.04380  1.0000
  C   C47       1.0  0.20129  0.46601  0.30490  1.0000
  H   H48       1.0  0.20571  0.07774  0.41296  1.0000
  C   C48       1.0  0.18377  0.03030  0.44162  1.0000
  C   C49       1.0  0.16170  0.24175  0.99085  1.0000
  C   C50       1.0  0.11980  0.48104  0.37833  1.0000
  H   H49       1.0  0.05176  0.37080  0.02787  1.0000
  H   H50       1.0  0.22140  0.44455  0.28770  1.0000
  C   C51       1.0  0.19203  0.09034  0.99822  1.0000
  H   H51       1.0  0.17155  0.08418  0.99751  1.0000
  Fe  Fe10      1.0  0.21920  0.18137  0.02930  1.0000
  C   C52       1.0  0.22134  0.46304  0.28720  1.0000
  H   H52       1.0  0.16685  0.98877  0.44034  1.0000
  C   C53       1.0  0.14732  0.00242  0.48123  1.0000
  C   C54       1.0  0.16484  0.04864  0.48584  1.0000
  H   H53       1.0  0.18765  0.05201  0.98677  1.0000
  S   S14       1.0  0.21052  0.08876  0.54819  1.0000
  H   H54       1.0  0.13153  0.25604  0.48882  1.0000
  S   S15       1.0  0.09285  0.45212  0.59803  1.0000
  S   S16       1.0  0.15004  0.44928  0.65255  1.0000
  S   S17       1.0  0.07483  0.21247  0.97082  1.0000
  H   H55       1.0  0.00408  0.17898  0.71700  1.0000
  S   S18       1.0  0.03405  0.45227  0.66252  1.0000
  H   H56       1.0  0.98534  0.21486  0.80920  1.0000
  N   N6        1.0  0.21406  0.40017  0.60832  1.0000
  H   H57       1.0  0.07059  0.25000  0.74704  1.0000
  Fe  Fe11      1.0  0.05330  0.23502  0.95400  1.0000
  S   S19       1.0  0.06932  0.27250  0.92184  1.0000
  C   C55       1.0  0.97882  0.42303  0.74892  1.0000
  H   H58       1.0  0.16606  0.27848  0.97126  1.0000
  Fe  Fe12      1.0  0.03166  0.25542  0.88743  1.0000
  S   S20       1.0  0.03315  0.26367  0.82001  1.0000
  S   S21       1.0  0.01695  0.21670  0.91657  1.0000
  Fe  Fe13      1.0  0.00261  0.22783  0.52660  1.0000
  C   C56       1.0  0.99210  0.42139  0.78245  1.0000
  Fe  Fe14      1.0  0.07614  0.47060  0.64078  1.0000
  H   H59       1.0  0.02968  0.24394  0.61120  1.0000
  H   H60       1.0  0.18593  0.36145  0.62127  1.0000
  H   H61       1.0  0.22216  0.42855  0.82495  1.0000
  S   S22       1.0  0.21237  0.02631  0.57794  1.0000
  C   C57       1.0  0.10365  0.21648  0.49704  1.0000
  H   H62       1.0  0.21393  0.36469  0.59434  1.0000
  S   S23       1.0  0.18204  0.99695  0.93005  1.0000
  C   C58       1.0  0.01210  0.24870  0.77854  1.0000
  C   C59       1.0  0.03783  0.21312  0.73633  1.0000
  S   S24       1.0  0.01336  0.27089  0.93240  1.0000
  H   H63       1.0  0.07431  0.26280  0.67634  1.0000
  C   C60       1.0  0.00347  0.24902  0.70685  1.0000
  C   C61       1.0  0.01827  0.26093  0.74132  1.0000
  C   C62       1.0  0.21049  0.08935  0.89838  1.0000
  C   C63       1.0  0.10854  0.22406  0.97596  1.0000
  H   H64       1.0  0.00873  0.25861  0.67852  1.0000
  H   H65       1.0  0.03489  0.27963  0.73903  1.0000
  C   C64       1.0  0.09363  0.25242  0.50058  1.0000
  C   C65       1.0  0.01872  0.42947  0.77907  1.0000
  C   C66       1.0  0.03191  0.43902  0.74289  1.0000
  C   C67       1.0  0.01859  0.44046  0.70926  1.0000
  C   C68       1.0  0.20280  0.99320  0.74662  1.0000
  H   H66       1.0  0.98139  0.43340  0.68693  1.0000
  H   H67       1.0  0.02926  0.42825  0.80468  1.0000
  H   H68       1.0  0.05232  0.44499  0.74096  1.0000
  C   C69       1.0  0.21884  0.45383  0.68567  1.0000
  H   H69       1.0  0.22036  0.28092  0.92830  1.0000
  Fe  Fe15      1.0  0.12958  0.47268  0.63421  1.0000
  C   C70       1.0  0.05942  0.24400  0.68483  1.0000
  C   C71       1.0  0.19552  0.40698  0.59756  1.0000
  C   C72       1.0  0.02257  0.20471  0.66837  1.0000
  C   C73       1.0  0.04348  0.23611  0.61584  1.0000
  C   C74       1.0  0.20716  0.15295  0.51001  1.0000
  C   C75       1.0  0.18330  0.46173  0.66350  1.0000
  C   C76       1.0  0.19235  0.44515  0.67890  1.0000
  Fe  Fe16      1.0  0.04976  0.28505  0.96916  1.0000
  C   C77       1.0  0.02022  0.19690  0.70800  1.0000
  H   H70       1.0  0.17878  0.42538  0.68507  1.0000
  H   H71       1.0  0.18267  0.11794  0.54081  1.0000
  H   H72       1.0  0.98576  0.33844  0.83952  1.0000
  C   C78       1.0  0.20128  0.12900  0.52717  1.0000
  H   H73       1.0  0.21611  0.37265  0.64677  1.0000
  H   H74       1.0  0.09992  0.27288  0.49858  1.0000
  H   H75       1.0  0.03867  0.21973  0.59470  1.0000
  C   C79       1.0  0.05758  0.23682  0.72476  1.0000
  C   C80       1.0  0.98208  0.22467  0.70912  1.0000
  H   H76       1.0  0.00805  0.19256  0.64695  1.0000
  S   S25       1.0  0.20159  0.23743  0.50979  1.0000
  H   H77       1.0  0.99300  0.36770  0.78080  1.0000
  H   H78       1.0  0.06307  0.25116  0.60784  1.0000
  C   C81       1.0  0.20220  0.43244  0.58772  1.0000
  H   H79       1.0  0.19535  0.02790  0.83666  1.0000
  C   C82       1.0  0.05966  0.20921  0.51057  1.0000
  C   C83       1.0  0.19970  0.04514  0.85422  1.0000
  H   H80       1.0  0.11939  0.26290  0.95831  1.0000
  C   C84       1.0  0.07765  0.19973  0.50514  1.0000
  C   C85       1.0  0.06755  0.23562  0.50800  1.0000
  C   C86       1.0  0.15263  0.25850  0.97629  1.0000
  H   H81       1.0  0.16466  0.06542  0.49966  1.0000
  H   H82       1.0  0.07131  0.17923  0.50675  1.0000
  C   C87       1.0  0.12617  0.24975  0.96896  1.0000
  H   H83       1.0  0.13296  0.02198  0.52101  1.0000
  N   N7        1.0  0.04218  0.22787  0.65716  1.0000
  C   C88       1.0  0.18073  0.05316  0.85880  1.0000
  H   H84       1.0  0.03554  0.20789  0.76753  1.0000
  Fe  Fe17      1.0  0.21773  0.01508  0.96772  1.0000
  H   H85       1.0  0.19315  0.16014  0.51051  1.0000
  S   S26       1.0  0.04557  0.24855  0.51224  1.0000
  Fe  Fe18      1.0  0.00050  0.23280  0.96330  1.0000
  C   C89       1.0  0.20705  0.37341  0.61808  1.0000
  S   S27       1.0  0.98253  0.19179  0.56232  1.0000
  C   C90       1.0  0.14688  0.02411  0.49814  1.0000
  H   H86       1.0  0.17160  0.08168  0.88549  1.0000
  H   H87       1.0  0.03965  0.19605  0.51616  1.0000
  C   C91       1.0  0.99042  0.22457  0.78094  1.0000
  H   H88       1.0  0.22227  0.29884  0.57525  1.0000
  H   H89       1.0  0.16193  0.04211  0.84521  1.0000
  S   S28       1.0  0.98824  0.25076  0.56436  1.0000
  H   H90       1.0  0.21487  0.10649  0.91624  1.0000
  C   C92       1.0  0.21668  0.00397  0.71140  1.0000
  H   H91       1.0  0.18738  0.43800  0.58065  1.0000
  C   C93       1.0  0.06169  0.42590  0.49416  1.0000
  C   C94       1.0  0.18618  0.07536  0.88121  1.0000
  H   H92       1.0  0.17535  0.39287  0.59712  1.0000
  C   C95       1.0  0.21552  0.99449  0.78279  1.0000
  C   C96       1.0  0.99197  0.43240  0.71264  1.0000
  H   H93       1.0  0.97484  0.36007  0.86151  1.0000
  S   S29       1.0  0.97643  0.40835  0.82860  1.0000
  H   H94       1.0  0.20649  0.00261  0.68394  1.0000
  C   C97       1.0  0.97553  0.21273  0.74652  1.0000
  H   H95       1.0  0.08107  0.43039  0.50587  1.0000
  S   S30       1.0  0.12502  0.20330  0.48754  1.0000
  C   C98       1.0  0.21926  0.11933  0.52696  1.0000
  H   H96       1.0  0.04734  0.40667  0.50462  1.0000
  C   C99       1.0  0.11161  0.24293  0.49506  1.0000
  H   H97       1.0  0.05686  0.44069  0.50720  1.0000
  H   H98       1.0  0.22281  0.25141  0.92633  1.0000
  H   H99       1.0  0.21041  0.45230  0.77465  1.0000
  N   N8        1.0  0.22324  0.05859  0.87214  1.0000
  H   H100      1.0  0.18198  0.98367  0.74576  1.0000
  H   H101      1.0  0.13352  0.98326  0.49046  1.0000
  H   H102      1.0  0.17563  0.93407  0.07024  1.0000
  H   H103      1.0  0.16118  0.59008  0.17898  1.0000
  Fe  Fe19      1.0  0.11099  0.63683  0.12853  1.0000
  S   S31       1.0  0.07475  0.62171  0.09162  1.0000
  S   S32       1.0  0.13439  0.61742  0.15145  1.0000
  Fe  Fe20      1.0  0.11607  0.69120  0.13254  1.0000
  S   S33       1.0  0.08009  0.67984  0.09609  1.0000
  S   S34       1.0  0.13583  0.73074  0.16276  1.0000
  Fe  Fe21      1.0  0.06245  0.64425  0.13399  1.0000
  S   S35       1.0  0.02101  0.63144  0.15543  1.0000
  Fe  Fe22      1.0  0.09515  0.65853  0.05642  1.0000
  H   H104      1.0  0.14664  0.90464  0.05858  1.0000
  S   S36       1.0  0.09744  0.65715  0.17290  1.0000
  S   S37       1.0  0.13235  0.67215  0.09082  1.0000
  Fe  Fe23      1.0  0.04150  0.82511  0.38709  1.0000
  S   S38       1.0  0.02739  0.84778  0.42610  1.0000
  S   S39       1.0  0.04282  0.83173  0.31949  1.0000
  Fe  Fe24      1.0  0.05351  0.80092  0.46043  1.0000
  C   C100      1.0  0.11303  0.48996  0.41356  1.0000
  S   S40       1.0  0.20376  0.98219  0.01087  1.0000
  H   H105      1.0  0.06106  0.68162  0.17929  1.0000
  S   S41       1.0  0.01907  0.78796  0.41945  1.0000
  S   S42       1.0  0.07739  0.83632  0.42454  1.0000
  Fe  Fe25      1.0  0.01463  0.79926  0.02319  1.0000
  S   S43       1.0  0.00378  0.76136  0.05290  1.0000
  H   H106      1.0  0.12438  0.89852  0.44450  1.0000
  C   C101      1.0  0.06138  0.75058  0.15445  1.0000
  S   S44       1.0  0.09035  0.65468  0.98808  1.0000
  C   C102      1.0  0.00874  0.60801  0.27168  1.0000
  S   S45       1.0  0.99689  0.81320  0.07086  1.0000
  C   C103      1.0  0.00201  0.78335  0.20709  1.0000
  H   H107      1.0  0.16627  0.72794  0.24153  1.0000
  C   C104      1.0  0.00955  0.78607  0.27946  1.0000
  C   C105      1.0  0.02777  0.81201  0.27672  1.0000
  C   C106      1.0  0.03336  0.82329  0.23880  1.0000
  C   C107      1.0  0.02055  0.80914  0.20426  1.0000
  H   H108      1.0  0.04743  0.84332  0.23619  1.0000
  S   S46       1.0  0.21297  0.49207  0.17593  1.0000
  C   C108      1.0  0.02082  0.61732  0.23471  1.0000
  C   C109      1.0  0.00672  0.61949  0.20271  1.0000
  C   C110      1.0  0.20107  0.48968  0.30299  1.0000
  S   S47       1.0  0.09920  0.49721  0.17312  1.0000
  H   H109      1.0  0.04103  0.62277  0.23100  1.0000
  H   H110      1.0  0.18014  0.90348  0.11972  1.0000
  H   H111      1.0  0.00969  0.68849  0.20199  1.0000
  C   C111      1.0  0.17323  0.68311  0.18845  1.0000
  C   C112      1.0  0.20554  0.72389  0.21104  1.0000
  C   C113      1.0  0.19086  0.68032  0.16331  1.0000
  H   H112      1.0  0.15360  0.66776  0.18927  1.0000
  H   H113      1.0  0.98265  0.75189  0.24749  1.0000
  C   C114      1.0  0.16949  0.75137  0.16070  1.0000
  C   C115      1.0  0.18562  0.74591  0.13594  1.0000
  C   C116      1.0  0.97771  0.82184  0.33924  1.0000
  C   C117      1.0  0.98240  0.60060  0.27729  1.0000
  C   C118      1.0  0.22079  0.51001  0.28289  1.0000
  C   C119      1.0  0.18042  0.77335  0.18563  1.0000
  H   H114      1.0  0.17750  0.72916  0.11644  1.0000
  H   H115      1.0  0.08767  0.73563  0.16852  1.0000
  H   H116      1.0  0.16811  0.77782  0.20480  1.0000
  H   H117      1.0  0.99744  0.72063  0.17514  1.0000
  C   C120      1.0  0.08694  0.89791  0.02062  1.0000
  C   C121      1.0  0.20782  0.87302  0.06723  1.0000
  H   H118      1.0  0.08191  0.91103  0.03687  1.0000
  C   C122      1.0  0.07612  0.85416  0.99947  1.0000
  C   C123      1.0  0.12415  0.58387  0.15709  1.0000
  C   C124      1.0  0.09913  0.56517  0.14767  1.0000
  C   C125      1.0  0.09188  0.53880  0.15278  1.0000
  C   C126      1.0  0.10949  0.53076  0.16732  1.0000
  C   C127      1.0  0.13453  0.54946  0.17671  1.0000
  C   C128      1.0  0.14177  0.57583  0.17163  1.0000
  H   H119      1.0  0.08535  0.57100  0.13644  1.0000
  H   H120      1.0  0.07247  0.52454  0.14542  1.0000
  H   H121      1.0  0.14831  0.54361  0.18785  1.0000
  H   H122      1.0  0.04139  0.67715  0.22237  1.0000
  C   C129      1.0  0.16185  0.70741  0.23768  1.0000
  Fe  Fe26      1.0  0.98380  0.77433  0.09858  1.0000
  H   H123      1.0  0.03065  0.76047  0.14455  1.0000
  H   H124      1.0  0.05221  0.86398  0.03736  1.0000
  C   C130      1.0  0.16728  0.91646  0.05106  1.0000
  H   H125      1.0  0.07440  0.70170  0.22297  1.0000
  C   C131      1.0  0.05692  0.69187  0.20401  1.0000
  H   H126      1.0  0.99816  0.65187  0.03618  1.0000
  C   C132      1.0  0.21244  0.76198  0.13680  1.0000
  H   H127      1.0  0.16834  0.92299  0.01989  1.0000
  H   H128      1.0  0.02772  0.65054  0.02791  1.0000
  S   S48       1.0  0.05451  0.82078  0.99551  1.0000
  C   C133      1.0  0.06785  0.73232  0.17025  1.0000
  C   C134      1.0  0.99683  0.77187  0.24487  1.0000
  C   C135      1.0  0.13281  0.91359  0.46691  1.0000
  C   C136      1.0  0.01728  0.72397  0.17367  1.0000
  C   C137      1.0  0.98042  0.61221  0.20835  1.0000
  H   H129      1.0  0.10461  0.50291  0.41139  1.0000
  H   H130      1.0  0.00503  0.77702  0.30827  1.0000
  C   C138      1.0  0.01884  0.66376  0.02890  1.0000
  C   C139      1.0  0.03595  0.74639  0.15643  1.0000
  H   H131      1.0  0.97934  0.81707  0.23987  1.0000
  H   H132      1.0  0.07599  0.76787  0.14084  1.0000
  C   C140      1.0  0.18613  0.89619  0.09407  1.0000
  H   H133      1.0  0.00004  0.84307  0.27173  1.0000
  N   N9        1.0  0.18057  0.70491  0.21134  1.0000
  H   H134      1.0  0.22001  0.52809  0.28036  1.0000
  H   H135      1.0  0.18473  0.66309  0.14481  1.0000
  C   C141      1.0  0.07006  0.87125  0.02097  1.0000
  N   N10       1.0  0.18130  0.90147  0.05638  1.0000
  H   H136      1.0  0.01988  0.60639  0.29611  1.0000
  C   C142      1.0  0.18910  0.89250  0.02398  1.0000
  C   C143      1.0  0.02438  0.70603  0.18901  1.0000
  C   C144      1.0  0.20728  0.78934  0.18667  1.0000
  H   H137      1.0  0.21549  0.80580  0.20674  1.0000
  H   H138      1.0  0.16188  0.69908  0.26713  1.0000
  Fe  Fe27      1.0  0.00655  0.81107  0.46003  1.0000
  H   H139      1.0  0.14215  0.69739  0.22467  1.0000
  S   S49       1.0  0.98447  0.76466  0.16485  1.0000
  H   H140      1.0  0.18537  0.49205  0.31628  1.0000
  H   H141      1.0  0.17041  0.93096  0.43980  1.0000
  H   H142      1.0  0.02488  0.81829  0.17552  1.0000
  C   C145      1.0  0.15891  0.93204  0.46429  1.0000
  H   H143      1.0  0.20433  0.87874  0.12997  1.0000
  S   S50       1.0  0.15657  0.49229  0.23652  1.0000
  C   C146      1.0  0.19957  0.88201  0.10008  1.0000
  N   N11       1.0  0.04950  0.71059  0.18773  1.0000
  H   H144      1.0  0.12210  0.82542  0.48177  1.0000
  Fe  Fe28      1.0  0.06151  0.85596  0.46576  1.0000
  H   H145      1.0  0.18581  0.89714  0.99407  1.0000
  H   H146      1.0  0.98597  0.54627  0.31878  1.0000
  H   H147      1.0  0.21138  0.74130  0.22890  1.0000
  C   C147      1.0  0.22348  0.78352  0.16261  1.0000
  C   C148      1.0  0.21622  0.69984  0.16210  1.0000
  H   H148      1.0  0.11654  0.48715  0.34958  1.0000
  H   H149      1.0  0.20962  0.87213  0.00315  1.0000
  H   H150      1.0  0.98972  0.68420  0.00085  1.0000
  C   C149      1.0  0.20252  0.87823  0.02891  1.0000
  C   C150      1.0  0.97971  0.82820  0.26717  1.0000
  S   S51       1.0  0.07016  0.77469  0.48142  1.0000
  H   H151      1.0  0.02825  0.67816  0.05317  1.0000
  H   H152      1.0  0.99146  0.84200  0.34324  1.0000
  H   H153      1.0  0.00103  0.85081  0.00793  1.0000
  H   H154      1.0  0.00697  0.72983  0.46676  1.0000
  S   S52       1.0  0.12936  0.94162  0.99641  1.0000
  C   C151      1.0  0.10994  0.90777  0.99869  1.0000
  H   H155      1.0  0.21896  0.86272  0.07152  1.0000
  H   H156      1.0  0.98246  0.55209  0.24970  1.0000
  C   C152      1.0  0.22371  0.72173  0.18629  1.0000
  N   N12       1.0  0.02185  0.67689  0.99090  1.0000
  S   S53       1.0  0.20261  0.97568  0.48648  1.0000
  Fe  Fe29      1.0  0.12496  0.52262  0.63838  1.0000
  S   S54       1.0  0.14435  0.56303  0.66634  1.0000
  H   H157      1.0  0.10015  0.56443  0.62804  1.0000
  C   C153      1.0  0.03155  0.50949  0.68601  1.0000
  H   H158      1.0  0.06563  0.49558  0.71334  1.0000
  S   S55       1.0  0.18763  0.94372  0.93092  1.0000
  C   C154      1.0  0.20229  0.80150  0.80190  1.0000
  H   H159      1.0  0.06138  0.69625  0.91105  1.0000
  H   H160      1.0  0.01943  0.83202  0.93435  1.0000
  Fe  Fe30      1.0  0.12324  0.68884  0.69164  1.0000
  S   S56       1.0  0.09800  0.70294  0.72367  1.0000
  S   S57       1.0  0.10587  0.64854  0.66334  1.0000
  Fe  Fe31      1.0  0.17078  0.74126  0.69861  1.0000
  S   S58       1.0  0.14929  0.75870  0.73169  1.0000
  C   C155      1.0  0.12377  0.83286  0.51200  1.0000
  Fe  Fe32      1.0  0.13114  0.72185  0.76695  1.0000
  S   S59       1.0  0.12988  0.72748  0.83495  1.0000
  Fe  Fe33      1.0  0.11786  0.73846  0.68594  1.0000
  S   S60       1.0  0.09811  0.76115  0.66065  1.0000
  S   S61       1.0  0.15527  0.70582  0.73683  1.0000
  S   S62       1.0  0.14057  0.72303  0.65095  1.0000
  S   S63       1.0  0.14584  0.50815  0.59641  1.0000
  C   C156      1.0  0.17012  0.95209  0.49270  1.0000
  C   C157      1.0  0.07735  0.77082  0.53154  1.0000
  C   C158      1.0  0.08887  0.75493  0.53947  1.0000
  C   C159      1.0  0.09509  0.75148  0.57875  1.0000
  C   C160      1.0  0.08968  0.76377  0.61068  1.0000
  C   C161      1.0  0.07798  0.77952  0.60276  1.0000
  C   C162      1.0  0.07192  0.78312  0.56347  1.0000
  H   H161      1.0  0.98369  0.83695  0.96234  1.0000
  H   H162      1.0  0.10411  0.73934  0.58431  1.0000
  H   H163      1.0  0.07376  0.78918  0.62721  1.0000
  H   H164      1.0  0.06309  0.79541  0.55794  1.0000
  C   C163      1.0  0.11922  0.70670  0.87700  1.0000
  C   C164      1.0  0.12455  0.71770  0.91563  1.0000
  C   C165      1.0  0.11641  0.70219  0.94991  1.0000
  C   C166      1.0  0.10256  0.67536  0.94609  1.0000
  C   C167      1.0  0.09706  0.66440  0.90746  1.0000
  C   C168      1.0  0.10544  0.67987  0.87319  1.0000
  H   H165      1.0  0.13504  0.73841  0.91915  1.0000
  H   H166      1.0  0.09034  0.58712  0.74178  1.0000
  H   H167      1.0  0.08621  0.64370  0.90399  1.0000
  H   H168      1.0  0.10099  0.67102  0.84385  1.0000
  H   H169      1.0  0.09311  0.74528  0.51502  1.0000
  C   C169      1.0  0.06052  0.90586  0.93911  1.0000
  H   H170      1.0  0.03104  0.71328  0.89216  1.0000
  C   C170      1.0  0.09394  0.53084  0.74003  1.0000
  H   H171      1.0  0.10665  0.52285  0.74836  1.0000
  H   H172      1.0  0.10431  0.85088  0.96173  1.0000
  C   C171      1.0  0.01706  0.72905  0.56613  1.0000
  C   C172      1.0  0.11761  0.91506  0.49801  1.0000
  N   N13       1.0  0.99226  0.75125  0.55230  1.0000
  H   H173      1.0  0.20054  0.80376  0.68185  1.0000
  H   H174      1.0  0.16341  0.96860  0.54627  1.0000
  H   H175      1.0  0.13184  0.81794  0.63996  1.0000
  Fe  Fe34      1.0  0.20294  0.97979  0.89373  1.0000
  H   H176      1.0  0.07269  0.92647  0.94248  1.0000
  C   C173      1.0  0.17579  0.62467  0.60094  1.0000
  C   C174      1.0  0.13227  0.58575  0.66720  1.0000
  C   C175      1.0  0.14537  0.60860  0.68979  1.0000
  C   C176      1.0  0.13715  0.62774  0.68994  1.0000
  C   C177      1.0  0.11574  0.62423  0.66731  1.0000
  C   C178      1.0  0.10224  0.60109  0.64558  1.0000
  C   C179      1.0  0.11044  0.58193  0.64546  1.0000
  H   H177      1.0  0.16219  0.61163  0.70692  1.0000
  H   H178      1.0  0.14757  0.64533  0.70711  1.0000
  H   H179      1.0  0.08563  0.59819  0.62802  1.0000
  H   H180      1.0  0.16463  0.68419  0.65741  1.0000
  C   C180      1.0  0.11742  0.86039  0.55998  1.0000
  H   H181      1.0  0.16407  0.83579  0.62003  1.0000
  C   C181      1.0  0.11602  0.85156  0.52087  1.0000
  H   H182      1.0  0.11909  0.56881  0.76293  1.0000
  C   C182      1.0  0.99303  0.74657  0.51243  1.0000
  C   C183      1.0  0.10089  0.55663  0.74831  1.0000
  H   H183      1.0  0.02835  0.71410  0.51495  1.0000
  N   N14       1.0  0.13395  0.83174  0.58098  1.0000
  N   N15       1.0  0.20260  0.76196  0.81944  1.0000
  H   H184      1.0  0.04994  0.55955  0.70582  1.0000
  C   C184      1.0  0.15443  0.61431  0.57564  1.0000
  C   C185      1.0  0.14096  0.62822  0.56836  1.0000
  N   N16       1.0  0.17021  0.66253  0.61103  1.0000
  H   H185      1.0  0.03037  0.90536  0.97612  1.0000
  C   C186      1.0  0.12890  0.93493  0.52668  1.0000
  S   S64       1.0  0.03921  0.82090  0.50316  1.0000
  C   C187      1.0  0.22072  0.81115  0.67481  1.0000
  H   H186      1.0  0.05520  0.67328  0.97437  1.0000
  Fe  Fe35      1.0  0.10836  0.48854  0.56238  1.0000
  S   S65       1.0  0.21345  0.76097  0.68325  1.0000
  C   C188      1.0  0.18344  0.64894  0.61855  1.0000
  C   C189      1.0  0.14387  0.82177  0.61275  1.0000
  C   C190      1.0  0.20098  0.48725  0.65567  1.0000
  H   H187      1.0  0.19429  0.50021  0.64383  1.0000
  H   H188      1.0  0.12750  0.85711  0.62027  1.0000
  H   H189      1.0  0.17553  0.70111  0.61117  1.0000
  H   H190      1.0  0.13851  0.80839  0.53541  1.0000
  C   C191      1.0  0.13293  0.82324  0.54255  1.0000
  C   C192      1.0  0.05412  0.86431  0.91502  1.0000
  C   C193      1.0  0.12654  0.85023  0.58988  1.0000
  H   H191      1.0  0.17572  0.77392  0.84236  1.0000
  H   H192      1.0  0.99088  0.78671  0.55769  1.0000
  H   H193      1.0  0.19956  0.65647  0.63915  1.0000
  H   H194      1.0  0.13771  0.66250  0.58251  1.0000
  H   H195      1.0  0.01986  0.49152  0.70266  1.0000
  H   H196      1.0  0.12068  0.71103  0.97926  1.0000
  C   C194      1.0  0.99753  0.85523  0.97720  1.0000
  C   C195      1.0  0.06197  0.55118  0.71587  1.0000
  C   C196      1.0  0.15503  0.95332  0.52415  1.0000
  H   H197      1.0  0.14323  0.80307  0.60409  1.0000
  H   H198      1.0  0.11731  0.93618  0.55092  1.0000
  N   N17       1.0  0.02187  0.86764  0.95547  1.0000
  C   C197      1.0  0.07086  0.51560  0.71988  1.0000
  C   C198      1.0  0.03669  0.89378  0.95828  1.0000
  H   H199      1.0  0.03643  0.50403  0.65653  1.0000
  S   S66       1.0  0.11166  0.48856  0.67911  1.0000
  C   C199      1.0  0.14904  0.65236  0.58668  1.0000
  C   C200      1.0  0.00536  0.68657  0.98112  1.0000
  H   H200      1.0  0.00433  0.74717  0.61059  1.0000
  H   H201      1.0  0.08808  0.90003  0.90355  1.0000
  C   C201      1.0  0.04548  0.69358  0.93046  1.0000
  C   C202      1.0  0.08478  0.56689  0.73637  1.0000
  H   H202      1.0  0.99513  0.70723  0.93777  1.0000
  Fe  Fe36      1.0  0.22253  0.96506  0.97050  1.0000
  H   H203      1.0  0.13385  0.89791  0.96085  1.0000
  C   C203      1.0  0.19215  0.77852  0.82316  1.0000
  S   S67       1.0  0.08866  0.50566  0.60218  1.0000
  C   C204      1.0  0.17744  0.68724  0.63145  1.0000
  H   H204      1.0  0.97622  0.76507  0.59857  1.0000
  C   C205      1.0  0.19145  0.73767  0.84116  1.0000
  H   H205      1.0  0.98785  0.86766  0.97896  1.0000
  H   H206      1.0  0.14782  0.59513  0.56289  1.0000
  C   C206      1.0  0.01776  0.72405  0.52555  1.0000
  C   C207      1.0  0.00430  0.74293  0.57906  1.0000
  C   C208      1.0  0.09949  0.86396  0.97850  1.0000
  H   H207      1.0  0.11135  0.87495  0.56686  1.0000
  N   N18       1.0  0.05523  0.52583  0.70808  1.0000
  C   C209      1.0  0.00577  0.73291  0.49847  1.0000
  C   C210      1.0  0.11631  0.89062  0.97802  1.0000
  H   H208      1.0  0.12377  0.61994  0.54991  1.0000
  H   H209      1.0  0.06120  0.85242  0.89975  1.0000
  H   H210      1.0  0.18566  0.61345  0.60809  1.0000
  C   C211      1.0  0.03046  0.85287  0.93471  1.0000
  H   H211      1.0  0.02704  0.72291  0.58729  1.0000
  H   H212      1.0  0.19370  0.81437  0.80452  1.0000
  C   C212      1.0  0.04189  0.68053  0.96634  1.0000
  H   H213      1.0  0.20651  0.73231  0.85038  1.0000
  H   H214      1.0  0.18144  0.73903  0.86862  1.0000
  H   H215      1.0  0.17703  0.72204  0.82207  1.0000
  C   C213      1.0  0.06921  0.89098  0.91728  1.0000
  C   C214      1.0  0.02852  0.70314  0.91994  1.0000
  C   C215      1.0  0.22324  0.80749  0.77680  1.0000
  C   C216      1.0  0.00836  0.69971  0.94544  1.0000
  H   H216      1.0  0.01943  0.51920  0.68110  1.0000
  S   S68       1.0  0.19664  0.97997  0.82598  1.0000
  S   S69       1.0  0.97957  0.78271  0.98340  1.0000
  Fe  Fe37      1.0  0.16960  0.96238  0.96962  1.0000
  S   S70       1.0  0.10460  0.49142  0.49438  1.0000
  H   H217      1.0  0.19773  0.69639  0.64210  1.0000
  C   C217      1.0  0.97929  0.76617  0.56587  1.0000
  H   H218      1.0  0.10883  0.85916  0.49756  1.0000
  S   S71       1.0  0.08448  0.89281  0.50223  1.0000
  H   H219      1.0  0.98394  0.75361  0.49117  1.0000
  C   C218      1.0  0.22270  0.76739  0.79405  1.0000
  H   H220      1.0  0.36568  0.20530  0.32975  1.0000
  H   H221      1.0  0.31860  0.41202  0.16528  1.0000
  S   S72       1.0  0.40667  0.44378  0.15770  1.0000
  H   H222      1.0  0.38141  0.17093  0.34055  1.0000
  N   N19       1.0  0.39943  0.21024  0.36017  1.0000
  C   C219      1.0  0.38680  0.21804  0.32947  1.0000
  S   S73       1.0  0.29774  0.45258  0.16340  1.0000
  C   C220      1.0  0.39881  0.09467  0.12317  1.0000
  S   S74       1.0  0.35129  0.45070  0.09724  1.0000
  Fe  Fe38      1.0  0.45047  0.40262  0.35935  1.0000
  H   H223      1.0  0.39019  0.23823  0.33407  1.0000
  S   S75       1.0  0.42620  0.42142  0.33689  1.0000
  C   C221      1.0  0.23566  0.12421  0.00606  1.0000
  H   H224      1.0  0.24470  0.42749  0.18721  1.0000
  H   H225      1.0  0.47277  0.10338  0.08775  1.0000
  C   C222      1.0  0.40637  0.07592  0.06329  1.0000
  S   S76       1.0  0.44637  0.31689  0.32582  1.0000
  Fe  Fe39      1.0  0.46799  0.13941  0.30496  1.0000
  S   S77       1.0  0.43450  0.36642  0.39609  1.0000
  H   H226      1.0  0.33378  0.43483  0.20516  1.0000
  C   C223      1.0  0.41647  0.22810  0.38629  1.0000
  H   H227      1.0  0.39801  0.09578  0.15540  1.0000
  H   H228      1.0  0.43356  0.41799  0.19046  1.0000
  S   S78       1.0  0.23651  0.25661  0.42821  1.0000
  C   C224      1.0  0.39736  0.11138  0.05850  1.0000
  C   C225      1.0  0.40535  0.09309  0.99730  1.0000
  Fe  Fe40      1.0  0.26764  0.23309  0.02136  1.0000
  H   H229      1.0  0.34878  0.39681  0.15121  1.0000
  C   C226      1.0  0.39527  0.11234  0.09993  1.0000
  S   S79       1.0  0.25093  0.25329  0.06028  1.0000
  S   S80       1.0  0.25599  0.20032  0.06461  1.0000
  H   H230      1.0  0.39188  0.12726  0.11412  1.0000
  S   S81       1.0  0.42766  0.17300  0.27281  1.0000
  C   C227      1.0  0.33893  0.39644  0.24985  1.0000
  C   C228      1.0  0.22877  0.22818  0.21178  1.0000
  S   S82       1.0  0.43216  0.11966  0.26680  1.0000
  Fe  Fe41      1.0  0.44839  0.15684  0.23327  1.0000
  S   S83       1.0  0.44803  0.16139  0.16509  1.0000
  Fe  Fe42      1.0  0.41458  0.13715  0.30973  1.0000
  S   S84       1.0  0.37251  0.11806  0.33107  1.0000
  N   N20       1.0  0.22485  0.15533  0.16728  1.0000
  S   S85       1.0  0.44920  0.15424  0.34985  1.0000
  C   C229      1.0  0.22782  0.23211  0.28479  1.0000
  C   C230      1.0  0.24472  0.10593  0.99995  1.0000
  C   C231      1.0  0.42976  0.22103  0.41402  1.0000
  C   C232      1.0  0.47212  0.29310  0.36262  1.0000
  H   H231      1.0  0.37285  0.09385  0.47207  1.0000
  H   H232      1.0  0.30371  0.40628  0.21303  1.0000
  C   C233      1.0  0.47056  0.25279  0.33788  1.0000
  H   H233      1.0  0.35525  0.38165  0.29414  1.0000
  C   C234      1.0  0.45703  0.14958  0.12147  1.0000
  C   C235      1.0  0.32263  0.41399  0.19783  1.0000
  H   H234      1.0  0.46003  0.15811  0.02015  1.0000
  H   H235      1.0  0.24422  0.13709  0.13692  1.0000
  C   C236      1.0  0.22986  0.45484  0.18060  1.0000
  H   H236      1.0  0.29444  0.30587  0.01173  1.0000
  H   H237      1.0  0.25544  0.22450  0.25212  1.0000
  C   C237      1.0  0.34927  0.39266  0.18249  1.0000
  H   H238      1.0  0.23595  0.23194  0.31360  1.0000
  C   C238      1.0  0.45614  0.15997  0.08422  1.0000
  C   C239      1.0  0.35863  0.10580  0.37857  1.0000
  C   C240      1.0  0.33209  0.09731  0.38426  1.0000
  C   C241      1.0  0.32024  0.08767  0.42131  1.0000
  C   C242      1.0  0.33480  0.08636  0.45336  1.0000
  C   C243      1.0  0.36133  0.09481  0.44766  1.0000
  C   C244      1.0  0.37317  0.10443  0.41062  1.0000
  H   H239      1.0  0.32057  0.09819  0.35979  1.0000
  H   H240      1.0  0.29986  0.08125  0.42503  1.0000
  C   C245      1.0  0.36349  0.38015  0.19420  1.0000
  H   H241      1.0  0.39351  0.11057  0.40682  1.0000
  C   C246      1.0  0.40424  0.07621  0.10480  1.0000
  C   C247      1.0  0.42532  0.19551  0.41518  1.0000
  H   H242      1.0  0.26249  0.18447  0.18045  1.0000
  H   H243      1.0  0.40391  0.15749  0.38968  1.0000
  H   H244      1.0  0.37376  0.37472  0.17221  1.0000
  C   C248      1.0  0.39478  0.18512  0.36138  1.0000
  H   H245      1.0  0.43594  0.18983  0.43579  1.0000
  H   H246      1.0  0.37710  0.36701  0.24415  1.0000
  H   H247      1.0  0.46396  0.12087  0.15058  1.0000
  H   H248      1.0  0.39451  0.21672  0.29973  1.0000
  C   C249      1.0  0.40750  0.17737  0.38906  1.0000
  C   C250      1.0  0.45612  0.29261  0.33144  1.0000
  H   H249      1.0  0.39509  0.12550  0.04068  1.0000
  H   H250      1.0  0.44402  0.23542  0.43357  1.0000
  C   C251      1.0  0.24601  0.16865  0.19573  1.0000
  C   C252      1.0  0.45449  0.25227  0.30682  1.0000
  C   C253      1.0  0.44731  0.27207  0.30369  1.0000
  Fe  Fe43      1.0  0.38672  0.46699  0.13641  1.0000
  C   C254      1.0  0.46110  0.15005  0.04843  1.0000
  H   H251      1.0  0.44774  0.23670  0.28507  1.0000
  H   H252      1.0  0.43496  0.27156  0.27942  1.0000
  C   C255      1.0  0.27391  0.46334  0.16422  1.0000
  C   C256      1.0  0.24909  0.44675  0.17822  1.0000
  N   N21       1.0  0.33697  0.40034  0.21020  1.0000
  C   C257      1.0  0.36544  0.37593  0.23454  1.0000
  Fe  Fe44      1.0  0.46312  0.18930  0.31104  1.0000
  C   C258      1.0  0.41216  0.43815  0.20781  1.0000
  C   C259      1.0  0.40276  0.44654  0.24015  1.0000
  C   C260      1.0  0.40723  0.44123  0.27939  1.0000
  C   C261      1.0  0.42113  0.42751  0.28683  1.0000
  C   C262      1.0  0.43066  0.41927  0.25448  1.0000
  C   C263      1.0  0.42620  0.42459  0.21525  1.0000
  H   H253      1.0  0.39197  0.45703  0.23497  1.0000
  H   H254      1.0  0.39982  0.44775  0.30420  1.0000
  H   H255      1.0  0.44139  0.40871  0.25969  1.0000
  Fe  Fe45      1.0  0.23654  0.21926  0.10087  1.0000
  Fe  Fe46      1.0  0.46037  0.35539  0.35918  1.0000
  C   C264      1.0  0.23882  0.22784  0.24974  1.0000
  S   S86       1.0  0.24349  0.22227  0.16875  1.0000
  S   S87       1.0  0.30947  0.25674  0.00042  1.0000
  H   H256      1.0  0.42056  0.24813  0.38495  1.0000
  H   H257      1.0  0.40739  0.06263  0.12264  1.0000
  H   H258      1.0  0.32975  0.40316  0.27186  1.0000
  C   C265      1.0  0.35317  0.38417  0.26263  1.0000
  S   S88       1.0  0.24013  0.19827  0.47169  1.0000
  S   S89       1.0  0.47088  0.11429  0.00497  1.0000
  H   H259      1.0  0.26783  0.16901  0.47891  1.0000
  C   C266      1.0  0.23538  0.47979  0.16945  1.0000
  N   N22       1.0  0.40314  0.09352  0.04077  1.0000
  C   C267      1.0  0.46694  0.12942  0.04930  1.0000
  C   C268      1.0  0.46832  0.11936  0.08661  1.0000
  C   C269      1.0  0.22708  0.13969  0.13857  1.0000
  H   H260      1.0  0.25636  0.48134  0.25385  1.0000
  H   H261      1.0  0.25231  0.15509  0.20849  1.0000
  C   C270      1.0  0.46346  0.12934  0.12242  1.0000
  H   H262      1.0  0.41125  0.06195  0.04928  1.0000
  H   H263      1.0  0.26521  0.11212  0.00045  1.0000
  H   H264      1.0  0.24912  0.14427  0.01131  1.0000
  H   H265      1.0  0.45123  0.17563  0.08299  1.0000
  C   C271      1.0  0.22753  0.07979  0.99288  1.0000
  H   H266      1.0  0.32497  0.99206  0.48443  1.0000
  H   H267      1.0  0.24029  0.17752  0.22078  1.0000
  Fe  Fe47      1.0  0.46918  0.38722  0.43625  1.0000
  Fe  Fe48      1.0  0.33799  0.47380  0.13675  1.0000
  H   H268      1.0  0.47113  0.47239  0.30989  1.0000
  H   H269      1.0  0.24904  0.28395  0.98920  1.0000
  H   H270      1.0  0.47318  0.48106  0.20269  1.0000
  S   S90       1.0  0.47361  0.39013  0.31997  1.0000
  H   H271      1.0  0.41517  0.08165  0.98746  1.0000
  Fe  Fe49      1.0  0.25104  0.03566  0.60476  1.0000
  C   C272      1.0  0.36443  0.00378  0.56435  1.0000
  Fe  Fe50      1.0  0.30993  0.44635  0.76900  1.0000
  S   S91       1.0  0.24296  0.05022  0.49306  1.0000
  S   S92       1.0  0.30665  0.44007  0.83695  1.0000
  Fe  Fe51      1.0  0.29103  0.41588  0.68822  1.0000
  S   S93       1.0  0.30689  0.45229  0.65286  1.0000
  S   S94       1.0  0.26576  0.37470  0.66397  1.0000
  H   H272      1.0  0.42210  0.39357  0.53119  1.0000
  Fe  Fe52      1.0  0.29019  0.46730  0.70077  1.0000
  C   C273      1.0  0.35170  0.99252  0.52880  1.0000
  S   S95       1.0  0.32711  0.42884  0.72552  1.0000
  S   S96       1.0  0.27248  0.43041  0.73431  1.0000
  H   H273      1.0  0.46630  0.37452  0.64872  1.0000
  C   C274      1.0  0.38183  0.23523  0.87403  1.0000
  Fe  Fe53      1.0  0.43531  0.32510  0.72612  1.0000
  H   H274      1.0  0.32959  0.32018  0.96196  1.0000
  S   S97       1.0  0.42739  0.32024  0.65850  1.0000
  Fe  Fe54      1.0  0.40623  0.30938  0.80729  1.0000
  S   S98       1.0  0.44323  0.32606  0.84247  1.0000
  S   S99       1.0  0.36470  0.28574  0.82996  1.0000
  Fe  Fe55      1.0  0.45760  0.35938  0.80008  1.0000
  Fe  Fe56      1.0  0.45692  0.30718  0.79597  1.0000
  S   S100      1.0  0.23185  0.21297  0.98384  1.0000
  S   S101      1.0  0.41925  0.34429  0.76815  1.0000
  S   S102      1.0  0.41951  0.28883  0.76274  1.0000
  C   C275      1.0  0.42803  0.41261  0.54600  1.0000
  C   C276      1.0  0.33148  0.45695  0.95278  1.0000
  Fe  Fe57      1.0  0.27967  0.05811  0.52493  1.0000
  H   H275      1.0  0.31890  0.31158  0.89002  1.0000
  H   H276      1.0  0.37000  0.03141  0.61072  1.0000
  S   S103      1.0  0.27068  0.07573  0.57925  1.0000
  S   S104      1.0  0.26262  0.01878  0.55244  1.0000
  N   N23       1.0  0.34313  0.03038  0.56679  1.0000
  Fe  Fe58      1.0  0.45955  0.14691  0.86670  1.0000
  S   S105      1.0  0.43767  0.10892  0.89805  1.0000
  C   C277      1.0  0.26582  0.26593  0.59039  1.0000
  H   H277      1.0  0.26504  0.21358  0.55023  1.0000
  Fe  Fe59      1.0  0.45722  0.09366  0.85505  1.0000
  S   S106      1.0  0.43971  0.05262  0.82800  1.0000
  C   C278      1.0  0.35993  0.02281  0.58307  1.0000
  C   C279      1.0  0.44978  0.25928  0.68660  1.0000
  S   S107      1.0  0.24018  0.05800  0.98293  1.0000
  S   S108      1.0  0.23939  0.99941  0.92987  1.0000
  C   C280      1.0  0.24248  0.00680  0.78317  1.0000
  C   C281      1.0  0.27627  0.29247  0.58447  1.0000
  H   H278      1.0  0.39843  0.37038  0.66449  1.0000
  S   S109      1.0  0.47080  0.39162  0.50487  1.0000
  C   C282      1.0  0.39987  0.01211  0.70952  1.0000
  C   C283      1.0  0.40491  0.99870  0.73955  1.0000
  C   C284      1.0  0.41699  0.01142  0.77542  1.0000
  C   C285      1.0  0.42432  0.03775  0.78194  1.0000
  C   C286      1.0  0.41939  0.05121  0.75184  1.0000
  C   C287      1.0  0.40718  0.03844  0.71601  1.0000
  C   C288      1.0  0.25998  0.46025  0.83547  1.0000
  H   H279      1.0  0.42061  0.00072  0.79839  1.0000
  H   H280      1.0  0.42484  0.07142  0.75623  1.0000
  H   H281      1.0  0.40343  0.04911  0.69315  1.0000
  H   H282      1.0  0.25776  0.25826  0.61921  1.0000
  C   C289      1.0  0.35618  0.47779  0.95011  1.0000
  H   H283      1.0  0.31790  0.02600  0.51828  1.0000
  C   C290      1.0  0.46847  0.38129  0.58516  1.0000
  C   C291      1.0  0.24676  0.44382  0.59992  1.0000
  C   C292      1.0  0.32189  0.99132  0.71064  1.0000
  C   C293      1.0  0.33084  0.01968  0.53163  1.0000
  H   H284      1.0  0.46057  0.24008  0.73157  1.0000
  H   H285      1.0  0.39291  0.44043  0.64723  1.0000
  C   C294      1.0  0.44263  0.23638  0.81301  1.0000
  C   C295      1.0  0.43343  0.20996  0.82044  1.0000
  C   C296      1.0  0.44987  0.20061  0.83539  1.0000
  C   C297      1.0  0.39823  0.42593  0.63649  1.0000
  C   C298      1.0  0.40377  0.25886  0.87854  1.0000
  H   H286      1.0  0.42961  0.24339  0.80243  1.0000
  H   H287      1.0  0.41330  0.19676  0.81551  1.0000
  C   C299      1.0  0.23568  0.44815  0.81736  1.0000
  H   H288      1.0  0.27410  0.24683  0.49910  1.0000
  H   H289      1.0  0.36569  0.19421  0.88151  1.0000
  Fe  Fe60      1.0  0.34172  0.46663  0.69309  1.0000
  H   H290      1.0  0.25265  0.00776  0.81047  1.0000
  N   N24       1.0  0.41566  0.40969  0.58493  1.0000
  C   C300      1.0  0.32449  0.26364  0.95269  1.0000
  C   C301      1.0  0.31082  0.25333  0.91728  1.0000
  C   C302      1.0  0.32348  0.26029  0.88018  1.0000
  C   C303      1.0  0.34995  0.27761  0.87783  1.0000
  C   C304      1.0  0.36364  0.28782  0.91325  1.0000
  C   C305      1.0  0.35099  0.28084  0.95033  1.0000
  H   H291      1.0  0.29046  0.24012  0.91847  1.0000
  H   H292      1.0  0.31266  0.25221  0.85304  1.0000
  H   H293      1.0  0.38391  0.30132  0.91213  1.0000
  S   S110      1.0  0.38402  0.99688  0.66392  1.0000
  C   C306      1.0  0.45944  0.37093  0.54685  1.0000
  C   C307      1.0  0.46652  0.25743  0.71429  1.0000
  C   C308      1.0  0.33482  0.00052  0.51223  1.0000
  C   C309      1.0  0.40117  0.38659  0.64613  1.0000
  N   N25       1.0  0.26560  0.24989  0.56020  1.0000
  H   H294      1.0  0.27717  0.02663  0.74861  1.0000
  H   H295      1.0  0.33683  0.00977  0.72131  1.0000
  H   H296      1.0  0.25484  0.05394  0.89440  1.0000
  H   H297      1.0  0.29782  0.42952  0.92058  1.0000
  C   C310      1.0  0.24889  0.33154  0.54216  1.0000
  C   C311      1.0  0.23618  0.31901  0.57678  1.0000
  C   C312      1.0  0.24168  0.33254  0.61360  1.0000
  C   C313      1.0  0.25987  0.35878  0.61649  1.0000
  C   C314      1.0  0.27235  0.37139  0.58180  1.0000
  C   C315      1.0  0.26691  0.35783  0.54500  1.0000
  S   S111      1.0  0.32104  0.07431  0.50098  1.0000
  H   H298      1.0  0.29557  0.00596  0.69487  1.0000
  H   H299      1.0  0.28635  0.39152  0.58331  1.0000
  H   H300      1.0  0.27691  0.36777  0.51850  1.0000
  H   H301      1.0  0.34443  0.05334  0.61788  1.0000
  C   C316      1.0  0.44087  0.34511  0.54352  1.0000
  C   C317      1.0  0.43140  0.33002  0.57797  1.0000
  C   C318      1.0  0.44037  0.34039  0.61626  1.0000
  H   H302      1.0  0.44452  0.28330  0.64373  1.0000
  H   H303      1.0  0.26498  0.44974  0.85722  1.0000
  H   H304      1.0  0.43356  0.33685  0.51442  1.0000
  H   H305      1.0  0.41689  0.31014  0.57488  1.0000
  C   C319      1.0  0.39423  0.40505  0.66028  1.0000
  C   C320      1.0  0.27777  0.29304  0.90001  1.0000
  Fe  Fe61      1.0  0.22516  0.01199  0.52421  1.0000
  H   H306      1.0  0.45045  0.24199  0.95514  1.0000
  H   H307      1.0  0.25416  0.21743  0.59849  1.0000
  C   C321      1.0  0.32649  0.45497  0.87978  1.0000
  C   C322      1.0  0.29866  0.98905  0.69551  1.0000
  H   H308      1.0  0.40327  0.27637  0.86984  1.0000
  H   H309      1.0  0.31875  0.04689  0.58357  1.0000
  C   C323      1.0  0.31681  0.44568  0.91791  1.0000
  H   H310      1.0  0.44337  0.27822  0.89690  1.0000
  H   H311      1.0  0.45188  0.22097  0.91628  1.0000
  S   S112      1.0  0.26221  0.02840  0.66751  1.0000
  H   H312      1.0  0.29347  0.32289  0.54177  1.0000
  H   H313      1.0  0.23397  0.21253  0.55527  1.0000
  Fe  Fe62      1.0  0.23282  0.06536  0.54882  1.0000
  C   C324      1.0  0.24916  0.15786  0.49229  1.0000
  C   C325      1.0  0.28507  0.28590  0.51630  1.0000
  H   H314      1.0  0.25406  0.41269  0.61806  1.0000
  C   C326      1.0  0.25636  0.01737  0.74785  1.0000
  H   H315      1.0  0.40597  0.19664  0.90894  1.0000
  C   C327      1.0  0.30361  0.30607  0.91185  1.0000
  H   H316      1.0  0.29163  0.29339  0.48677  1.0000
  H   H317      1.0  0.38583  0.40324  0.68967  1.0000
  H   H318      1.0  0.27331  0.28885  0.86863  1.0000
  C   C328      1.0  0.40538  0.21427  0.90092  1.0000
  C   C329      1.0  0.40925  0.42808  0.59879  1.0000
  C   C330      1.0  0.45774  0.28196  0.66501  1.0000
  H   H319      1.0  0.23177  0.32256  0.64013  1.0000
  C   C331      1.0  0.23144  0.27150  0.91534  1.0000
  C   C332      1.0  0.23942  0.41815  0.60939  1.0000
  H   H320      1.0  0.23419  0.02906  0.86087  1.0000
  H   H321      1.0  0.42284  0.42422  0.52549  1.0000
  H   H322      1.0  0.22557  0.44080  0.69702  1.0000
  N   N26       1.0  0.25851  0.28547  0.92766  1.0000
  H   H323      1.0  0.36434  0.23449  0.86178  1.0000
  H   H324      1.0  0.32370  0.44942  0.98170  1.0000
  C   C333      1.0  0.23653  0.47928  0.67726  1.0000
  S   S113      1.0  0.43654  0.16798  0.84973  1.0000
  Fe  Fe63      1.0  0.47275  0.12261  0.93756  1.0000
  N   N27       1.0  0.42689  0.23758  0.90491  1.0000
  H   H325      1.0  0.43064  0.24341  0.68221  1.0000
  H   H326      1.0  0.26678  0.45829  0.60206  1.0000
  C   C334      1.0  0.35109  0.47596  0.87710  1.0000
  H   H327      1.0  0.37770  0.99779  0.57745  1.0000
  S   S114      1.0  0.24419  0.31518  0.49518  1.0000
  H   H328      1.0  0.35109  0.06951  0.57047  1.0000
  C   C335      1.0  0.25413  0.22205  0.56655  1.0000
  C   C336      1.0  0.26430  0.29025  0.96729  1.0000
  C   C337      1.0  0.24360  0.01607  0.71168  1.0000
  H   H329      1.0  0.24751  0.09120  0.90797  1.0000
  C   C338      1.0  0.38258  0.21273  0.88520  1.0000
  C   C339      1.0  0.33925  0.05102  0.58577  1.0000
  C   C340      1.0  0.30964  0.31098  0.95223  1.0000
  H   H330      1.0  0.36178  0.28904  0.97746  1.0000
  C   C341      1.0  0.42628  0.25974  0.89413  1.0000
  C   C342      1.0  0.41186  0.38921  0.60813  1.0000
  C   C343      1.0  0.22912  0.46142  0.78916  1.0000
  H   H331      1.0  0.25727  0.12670  0.50883  1.0000
  H   H332      1.0  0.41710  0.37474  0.59728  1.0000
  H   H333      1.0  0.22907  0.27084  0.88250  1.0000
  H   H334      1.0  0.41258  0.44454  0.58073  1.0000
  H   H335      1.0  0.44931  0.42209  0.54968  1.0000
  H   H336      1.0  0.27622  0.30520  0.60827  1.0000
  C   C344      1.0  0.45914  0.36614  0.61961  1.0000
  C   C345      1.0  0.45038  0.23895  0.92245  1.0000
  C   C346      1.0  0.46845  0.25367  0.82037  1.0000
  C   C347      1.0  0.24323  0.13385  0.50924  1.0000
  C   C348      1.0  0.28602  0.30245  0.54719  1.0000
  H   H337      1.0  0.38598  0.08473  0.98326  1.0000
  C   C349      1.0  0.23119  0.16755  0.49253  1.0000
  H   H338      1.0  0.23337  0.47093  0.58284  1.0000
  H   H339      1.0  0.25561  0.06025  0.84146  1.0000
  C   C350      1.0  0.28991  0.30297  0.98019  1.0000
  H   H340      1.0  0.46782  0.25498  0.90945  1.0000
  C   C351      1.0  0.22800  0.45093  0.58896  1.0000
  C   C352      1.0  0.24301  0.05012  0.86688  1.0000
  C   C353      1.0  0.27482  0.25953  0.52339  1.0000
  C   C354      1.0  0.22889  0.08062  0.89355  1.0000
  H   H341      1.0  0.41733  0.11292  0.98618  1.0000
  S   S115      1.0  0.35568  0.50905  0.09855  1.0000
  Fe  Fe64      1.0  0.39128  0.52081  0.13639  1.0000
  S   S116      1.0  0.41376  0.56134  0.16208  1.0000
  Fe  Fe65      1.0  0.30263  0.87760  0.26582  1.0000
  S   S117      1.0  0.31629  0.85334  0.22983  1.0000
  S   S118      1.0  0.29868  0.87514  0.33437  1.0000
  Fe  Fe66      1.0  0.28716  0.89664  0.18920  1.0000
  S   S119      1.0  0.30031  0.87420  0.14904  1.0000
  S   S120      1.0  0.26743  0.92068  0.16974  1.0000
  Fe  Fe67      1.0  0.28057  0.84173  0.19208  1.0000
  S   S121      1.0  0.25753  0.80092  0.16648  1.0000
  Fe  Fe68      1.0  0.33485  0.88762  0.18976  1.0000
  S   S122      1.0  0.37499  0.90545  0.16167  1.0000
  S   S123      1.0  0.26554  0.86343  0.23041  1.0000
  S   S124      1.0  0.32304  0.91264  0.22760  1.0000
  C   C355      1.0  0.46557  0.49182  0.21983  1.0000
  C   C356      1.0  0.26230  0.92786  0.12012  1.0000
  C   C357      1.0  0.25170  0.93871  0.04193  1.0000
  C   C358      1.0  0.26490  0.92414  0.04806  1.0000
  C   C359      1.0  0.27012  0.91869  0.08682  1.0000
  H   H342      1.0  0.27095  0.91682  0.02259  1.0000
  H   H343      1.0  0.28013  0.90730  0.09090  1.0000
  C   C360      1.0  0.31742  0.89116  0.37762  1.0000
  C   C361      1.0  0.30764  0.88148  0.41554  1.0000
  C   C362      1.0  0.32112  0.89385  0.45079  1.0000
  C   C363      1.0  0.34456  0.91638  0.44874  1.0000
  C   C364      1.0  0.35431  0.92616  0.41083  1.0000
  C   C365      1.0  0.34093  0.91365  0.37555  1.0000
  H   H344      1.0  0.28945  0.86418  0.41771  1.0000
  C   C366      1.0  0.24407  0.94809  0.07523  1.0000
  H   H345      1.0  0.37238  0.94358  0.40867  1.0000
  H   H346      1.0  0.34876  0.92147  0.34677  1.0000
  C   C367      1.0  0.39876  0.89496  0.16618  1.0000
  C   C368      1.0  0.39546  0.87454  0.19063  1.0000
  C   C369      1.0  0.41497  0.86693  0.19331  1.0000
  C   C370      1.0  0.43792  0.87959  0.17162  1.0000
  C   C371      1.0  0.44119  0.89994  0.14702  1.0000
  C   C372      1.0  0.42167  0.90754  0.14430  1.0000
  H   H347      1.0  0.37790  0.86464  0.20751  1.0000
  H   H348      1.0  0.41224  0.85109  0.21231  1.0000
  H   H349      1.0  0.42436  0.92332  0.12522  1.0000
  H   H350      1.0  0.24323  0.73737  0.18504  1.0000
  H   H351      1.0  0.43725  0.52934  0.27988  1.0000
  C   C373      1.0  0.44774  0.57889  0.16600  1.0000
  C   C374      1.0  0.45869  0.60324  0.18478  1.0000
  C   C375      1.0  0.27928  0.48814  0.15250  1.0000
  H   H352      1.0  0.27127  0.54511  0.26627  1.0000
  H   H353      1.0  0.44632  0.61034  0.19813  1.0000
  C   C376      1.0  0.28613  0.92452  0.34089  1.0000
  H   H354      1.0  0.37722  0.85419  0.10585  1.0000
  H   H355      1.0  0.44752  0.83723  0.09437  1.0000
  C   C377      1.0  0.44287  0.51731  0.22141  1.0000
  C   C378      1.0  0.26976  0.92366  0.27602  1.0000
  C   C379      1.0  0.24469  0.88846  0.32155  1.0000
  S   S125      1.0  0.46166  0.86901  0.17573  1.0000
  H   H356      1.0  0.45870  0.90980  0.13006  1.0000
  N   N28       1.0  0.40998  0.86451  0.06807  1.0000
  C   C380      1.0  0.24105  0.48395  0.26805  1.0000
  H   H357      1.0  0.26457  0.51559  0.14632  1.0000
  C   C381      1.0  0.24939  0.94272  0.11402  1.0000
  C   C382      1.0  0.45617  0.95790  0.20213  1.0000
  H   H358      1.0  0.32826  0.97592  0.28806  1.0000
  H   H359      1.0  0.44182  0.96361  0.19287  1.0000
  H   H360      1.0  0.42754  0.61288  0.12314  1.0000
  H   H361      1.0  0.39014  0.54279  0.03088  1.0000
  H   H362      1.0  0.37061  0.85095  0.05301  1.0000
  H   H363      1.0  0.46098  0.62889  0.11101  1.0000
  H   H364      1.0  0.28451  0.91559  0.36957  1.0000
  H   H365      1.0  0.27510  0.52351  0.23127  1.0000
  C   C383      1.0  0.44956  0.88291  0.03119  1.0000
  C   C384      1.0  0.45751  0.50644  0.28200  1.0000
  H   H366      1.0  0.31321  0.88602  0.47953  1.0000
  C   C385      1.0  0.44928  0.93713  0.22758  1.0000
  H   H367      1.0  0.32358  0.95592  0.35457  1.0000
  H   H368      1.0  0.38573  0.88233  0.07730  1.0000
  C   C386      1.0  0.31102  0.95840  0.29518  1.0000
  H   H369      1.0  0.45580  0.55122  0.13438  1.0000
  N   N29       1.0  0.26715  0.91306  0.31286  1.0000
  C   C387      1.0  0.26013  0.49629  0.15517  1.0000
  C   C388      1.0  0.45729  0.86664  0.05029  1.0000
  C   C389      1.0  0.46766  0.92932  0.23814  1.0000
  H   H370      1.0  0.25239  0.53506  0.22075  1.0000
  S   S126      1.0  0.40781  0.50118  0.09689  1.0000
  H   H371      1.0  0.24333  0.95004  0.13948  1.0000
  H   H372      1.0  0.39688  0.58058  0.07271  1.0000
  C   C390      1.0  0.40945  0.55678  0.03983  1.0000
  C   C391      1.0  0.42563  0.88153  0.04039  1.0000
  H   H373      1.0  0.42749  0.53635  0.01080  1.0000
  C   C392      1.0  0.26092  0.52879  0.24519  1.0000
  H   H374      1.0  0.40532  0.83521  0.10929  1.0000
  C   C393      1.0  0.30836  0.94729  0.33250  1.0000
  C   C394      1.0  0.41743  0.84842  0.08683  1.0000
  H   H375      1.0  0.23934  0.88744  0.35348  1.0000
  H   H376      1.0  0.25510  0.91424  0.25332  1.0000
  H   H377      1.0  0.42957  0.92660  0.23792  1.0000
  H   H378      1.0  0.29824  0.50111  0.14161  1.0000
  N   N30       1.0  0.24050  0.50702  0.26590  1.0000
  H   H379      1.0  0.46198  0.91266  0.25695  1.0000
  C   C395      1.0  0.43049  0.55321  0.02847  1.0000
  H   H380      1.0  0.45107  0.50207  0.16756  1.0000
  C   C396      1.0  0.29159  0.94658  0.26675  1.0000
  H   H381      1.0  0.22998  0.69807  0.14229  1.0000
  H   H382      1.0  0.22768  0.88573  0.30362  1.0000
  C   C397      1.0  0.38464  0.86284  0.07631  1.0000
  H   H383      1.0  0.23401  0.95941  0.07110  1.0000
  H   H384      1.0  0.43816  0.63226  0.07874  1.0000
  C   C398      1.0  0.45315  0.50376  0.19972  1.0000
  H   H385      1.0  0.43311  0.52660  0.20619  1.0000
  C   C399      1.0  0.46396  0.56987  0.14910  1.0000
  C   C400      1.0  0.45522  0.57118  0.04036  1.0000
  C   C401      1.0  0.44126  0.84938  0.07845  1.0000
  C   C402      1.0  0.41341  0.57827  0.06318  1.0000
  C   C403      1.0  0.44512  0.51876  0.26281  1.0000
  H   H386      1.0  0.41971  0.89423  0.02541  1.0000
  H   H387      1.0  0.41038  0.93225  0.46690  1.0000
  Fe  Fe69      1.0  0.37091  0.48681  0.06093  1.0000
  S   S127      1.0  0.24412  0.94340  0.99227  1.0000
  H   H388      1.0  0.29363  0.95473  0.23730  1.0000
  S   S128      1.0  0.37226  0.48753  0.17796  1.0000
  H   H389      1.0  0.45910  0.50755  0.31422  1.0000
  S   S129      1.0  0.37590  0.49286  0.99301  1.0000
  C   C404      1.0  0.44132  0.61866  0.09787  1.0000
  N   N31       1.0  0.43772  0.59587  0.07456  1.0000
  H   H390      1.0  0.46222  0.89652  0.00951  1.0000
  H   H391      1.0  0.24922  0.87237  0.31471  1.0000
  N   N32       1.0  0.46732  0.49299  0.26052  1.0000
  H   H392      1.0  0.22478  0.75739  0.11791  1.0000
  C   C405      1.0  0.45854  0.59265  0.06329  1.0000
  H   H393      1.0  0.47169  0.56841  0.03210  1.0000
  H   H394      1.0  0.44299  0.94812  0.48446  1.0000
  C   C406      1.0  0.30665  0.94596  0.69788  1.0000
  Fe  Fe70      1.0  0.37763  0.90699  0.63095  1.0000
  S   S130      1.0  0.39365  0.94424  0.59767  1.0000
  S   S131      1.0  0.39873  0.88429  0.64899  1.0000
  Fe  Fe71      1.0  0.32332  0.90157  0.63287  1.0000
  S   S132      1.0  0.33585  0.93891  0.60030  1.0000
  S   S133      1.0  0.28115  0.88148  0.65231  1.0000
  Fe  Fe72      1.0  0.35760  0.92508  0.55961  1.0000
  H   H395      1.0  0.45937  0.56283  0.62539  1.0000
  Fe  Fe73      1.0  0.37067  0.95536  0.64079  1.0000
  S   S134      1.0  0.34321  0.88686  0.58987  1.0000
  S   S135      1.0  0.35652  0.91902  0.67624  1.0000
  C   C407      1.0  0.25787  0.80433  0.66356  1.0000
  C   C408      1.0  0.27324  0.83086  0.65684  1.0000
  C   C409      1.0  0.26246  0.84775  0.65930  1.0000
  H   H396      1.0  0.26650  0.79152  0.66190  1.0000
  H   H397      1.0  0.29346  0.83827  0.65003  1.0000
  C   C410      1.0  0.45473  0.56499  0.74618  1.0000
  C   C411      1.0  0.27127  0.49770  0.79713  1.0000
  C   C412      1.0  0.45035  0.92118  0.64949  1.0000
  C   C413      1.0  0.43229  0.89563  0.65652  1.0000
  C   C414      1.0  0.44109  0.87804  0.66805  1.0000
  H   H398      1.0  0.45675  0.92988  0.53775  1.0000
  H   H399      1.0  0.44388  0.93491  0.64054  1.0000
  H   H400      1.0  0.42730  0.85823  0.67344  1.0000
  C   C415      1.0  0.39406  0.89338  0.51622  1.0000
  C   C416      1.0  0.43392  0.57273  0.65931  1.0000
  C   C417      1.0  0.44116  0.55551  0.64075  1.0000
  C   C418      1.0  0.42494  0.52872  0.64271  1.0000
  C   C419      1.0  0.40131  0.51885  0.66301  1.0000
  C   C420      1.0  0.39383  0.53611  0.68068  1.0000
  C   C421      1.0  0.41007  0.56285  0.67887  1.0000
  C   C422      1.0  0.25577  0.96402  0.66658  1.0000
  H   H401      1.0  0.43085  0.51556  0.62875  1.0000
  H   H402      1.0  0.37571  0.52886  0.69629  1.0000
  H   H403      1.0  0.40426  0.57599  0.69322  1.0000
  H   H404      1.0  0.24512  0.96769  0.69123  1.0000
  H   H405      1.0  0.24315  0.94483  0.65315  1.0000
  H   H406      1.0  0.30954  0.92894  0.69861  1.0000
  C   C423      1.0  0.23156  0.79431  0.67262  1.0000
  H   H407      1.0  0.35498  0.97766  0.51409  1.0000
  S   S136      1.0  0.36234  0.93330  0.49224  1.0000
  N   N33       1.0  0.27729  0.48485  0.82561  1.0000
  H   H408      1.0  0.23118  0.82509  0.75973  1.0000
  H   H409      1.0  0.28532  0.51675  0.78793  1.0000
  H   H410      1.0  0.24942  0.79454  0.75261  1.0000
  N   N34       1.0  0.41821  0.91388  0.51561  1.0000
  C   C424      1.0  0.47009  0.53142  0.71042  1.0000
  C   C425      1.0  0.43382  0.89136  0.55797  1.0000
  S   S137      1.0  0.27008  0.49118  0.68473  1.0000
  H   H411      1.0  0.26910  0.92586  0.67172  1.0000
  H   H412      1.0  0.22759  0.85060  0.67031  1.0000
  C   C426      1.0  0.43786  0.91327  0.53675  1.0000
  C   C427      1.0  0.46760  0.88584  0.67277  1.0000
  C   C428      1.0  0.44693  0.52155  0.73151  1.0000
  C   C429      1.0  0.36578  0.48720  0.91196  1.0000
  H   H413      1.0  0.43457  0.50092  0.73287  1.0000
  C   C430      1.0  0.38926  0.87130  0.53765  1.0000
  H   H414      1.0  0.40569  0.85372  0.57651  1.0000
  C   C431      1.0  0.30286  0.49713  0.84423  1.0000
  N   N35       1.0  0.28001  0.96579  0.68169  1.0000
  H   H415      1.0  0.39945  0.97848  0.73525  1.0000
  S   S138      1.0  0.45471  0.60644  0.66179  1.0000
  C   C432      1.0  0.22744  0.49597  0.66267  1.0000
  H   H416      1.0  0.31669  0.49387  0.82531  1.0000
  C   C433      1.0  0.32579  0.96957  0.71193  1.0000
  H   H417      1.0  0.25967  0.97870  0.64331  1.0000
  H   H418      1.0  0.42079  0.53107  0.76437  1.0000
  H   H419      1.0  0.44929  0.89105  0.57533  1.0000
  H   H420      1.0  0.30988  0.51816  0.84845  1.0000
  H   H421      1.0  0.38483  0.50326  0.90933  1.0000
  C   C434      1.0  0.23613  0.83772  0.66833  1.0000
  C   C435      1.0  0.43919  0.53849  0.74930  1.0000
  H   H422      1.0  0.23029  0.75380  0.78964  1.0000
  C   C436      1.0  0.28375  0.94438  0.68269  1.0000
  H   H423      1.0  0.34372  0.97106  0.72355  1.0000
  H   H424      1.0  0.24097  0.51574  0.65629  1.0000
  H   H425      1.0  0.44847  0.57836  0.75857  1.0000
  H   H426      1.0  0.24225  0.49675  0.75672  1.0000
  H   H427      1.0  0.36996  0.85537  0.53902  1.0000
  H   H428      1.0  0.41773  0.94977  0.51350  1.0000
  C   C437      1.0  0.40934  0.87030  0.55845  1.0000
  C   C438      1.0  0.42265  0.93717  0.49409  1.0000
  C   C439      1.0  0.23359  0.79040  0.77294  1.0000
  S   S139      1.0  0.32634  0.48466  0.73843  1.0000
  S   S140      1.0  0.38260  0.48498  0.66795  1.0000
  H   H429      1.0  0.30259  0.48895  0.87403  1.0000
  C   C440      1.0  0.24696  0.48640  0.77911  1.0000
  H   H430      1.0  0.37825  0.89413  0.50052  1.0000
  H   H431      1.0  0.35892  0.48341  0.84818  1.0000
  S   S141      1.0  0.54669  0.43041  0.34139  1.0000
  Fe  Fe74      1.0  0.64755  0.10644  0.43402  1.0000
  S   S142      1.0  0.66160  0.14498  0.40465  1.0000
  H   H432      1.0  0.62535  0.01959  0.40809  1.0000
  Fe  Fe75      1.0  0.63379  0.07670  0.35252  1.0000
  S   S143      1.0  0.64747  0.11325  0.31774  1.0000
  S   S144      1.0  0.62017  0.03503  0.32979  1.0000
  Fe  Fe76      1.0  0.68109  0.13067  0.36033  1.0000
  Fe  Fe77      1.0  0.62680  0.12514  0.36413  1.0000
  S   S145      1.0  0.60617  0.14817  0.34458  1.0000
  S   S146      1.0  0.66908  0.09313  0.39194  1.0000
  S   S147      1.0  0.61114  0.08752  0.39664  1.0000
  C   C441      1.0  0.48078  0.48079  0.28125  1.0000
  C   C442      1.0  0.57274  0.13883  0.34274  1.0000
  C   C443      1.0  0.56480  0.15723  0.33203  1.0000
  C   C444      1.0  0.53853  0.15026  0.32656  1.0000
  C   C445      1.0  0.51990  0.12471  0.33160  1.0000
  C   C446      1.0  0.52781  0.10636  0.34269  1.0000
  C   C447      1.0  0.55407  0.11337  0.34841  1.0000
  H   H433      1.0  0.57912  0.17697  0.32751  1.0000
  H   H434      1.0  0.53275  0.16456  0.31786  1.0000
  H   H435      1.0  0.51354  0.08653  0.34657  1.0000
  H   H436      1.0  0.55991  0.09900  0.35647  1.0000
  C   C448      1.0  0.60543  0.01940  0.28386  1.0000
  C   C449      1.0  0.59817  0.99299  0.27853  1.0000
  H   H437      1.0  0.48737  0.11505  0.22846  1.0000
  S   S148      1.0  0.48506  0.17585  0.26946  1.0000
  C   C450      1.0  0.58979  0.01936  0.21658  1.0000
  C   C451      1.0  0.60112  0.03249  0.25257  1.0000
  H   H438      1.0  0.53645  0.47425  0.35763  1.0000
  H   H439      1.0  0.58674  0.02979  0.19259  1.0000
  H   H440      1.0  0.60661  0.05277  0.25600  1.0000
  C   C452      1.0  0.56540  0.46431  0.33626  1.0000
  C   C453      1.0  0.51613  0.32507  0.28880  1.0000
  H   H441      1.0  0.70320  0.10201  0.29996  1.0000
  N   N36       1.0  0.52247  0.34976  0.30051  1.0000
  H   H442      1.0  0.59833  0.46107  0.31388  1.0000
  H   H443      1.0  0.51963  0.38438  0.28954  1.0000
  H   H444      1.0  0.55995  0.35550  0.38031  1.0000
  C   C454      1.0  0.68275  0.03771  0.29116  1.0000
  C   C455      1.0  0.54779  0.34680  0.35444  1.0000
  C   C456      1.0  0.47928  0.27326  0.36578  1.0000
  H   H445      1.0  0.54881  0.31054  0.35906  1.0000
  H   H446      1.0  0.57890  0.12345  0.21725  1.0000
  S   S149      1.0  0.48689  0.11429  0.32086  1.0000
  S   S150      1.0  0.48336  0.42445  0.40212  1.0000
  C   C457      1.0  0.58256  0.99297  0.21121  1.0000
  H   H447      1.0  0.57992  0.17326  0.20882  1.0000
  N   N37       1.0  0.55191  0.13715  0.23088  1.0000
  H   H448      1.0  0.48690  0.98681  0.16786  1.0000
  C   C458      1.0  0.52583  0.31076  0.30929  1.0000
  H   H449      1.0  0.47899  0.30875  0.38422  1.0000
  C   C459      1.0  0.53803  0.36068  0.33294  1.0000
  H   H450      1.0  0.71150  0.19423  0.35354  1.0000
  C   C460      1.0  0.68212  0.06121  0.28973  1.0000
  H   H451      1.0  0.66468  0.06187  0.28056  1.0000
  S   S151      1.0  0.49404  0.37400  0.40113  1.0000
  H   H452      1.0  0.70616  0.01901  0.30429  1.0000
  C   C461      1.0  0.51525  0.15113  0.20412  1.0000
  H   H453      1.0  0.50313  0.31617  0.26386  1.0000
  C   C462      1.0  0.50761  0.12765  0.22296  1.0000
  N   N38       1.0  0.67335  0.04497  0.47637  1.0000
  H   H454      1.0  0.52010  0.10271  0.25121  1.0000
  C   C463      1.0  0.54164  0.32168  0.34245  1.0000
  H   H455      1.0  0.54292  0.38019  0.34252  1.0000
  S   S152      1.0  0.72286  0.15097  0.33915  1.0000
  C   C464      1.0  0.54141  0.16763  0.19900  1.0000
  H   H456      1.0  0.71899  0.02852  0.00598  1.0000
  C   C465      1.0  0.59066  0.47416  0.32163  1.0000
  Fe  Fe78      1.0  0.50557  0.40972  0.36456  1.0000
  H   H457      1.0  0.54751  0.18606  0.18479  1.0000
  H   H458      1.0  0.58766  0.14586  0.25896  1.0000
  C   C466      1.0  0.55959  0.16029  0.21266  1.0000
  H   H459      1.0  0.48068  0.46462  0.26341  1.0000
  C   C467      1.0  0.51223  0.36429  0.27801  1.0000
  C   C468      1.0  0.64202  0.02213  0.42535  1.0000
  H   H460      1.0  0.66571  0.02003  0.28311  1.0000
  H   H461      1.0  0.49088  0.35466  0.28004  1.0000
  C   C469      1.0  0.52628  0.12082  0.23593  1.0000
  H   H462      1.0  0.50093  0.15669  0.19398  1.0000
  H   H463      1.0  0.68434  0.99786  0.43510  1.0000
  C   C470      1.0  0.57138  0.12956  0.24343  1.0000
  C   C471      1.0  0.65209  0.04133  0.45489  1.0000
  S   S153      1.0  0.48035  0.22851  0.34306  1.0000
  H   H464      1.0  0.64292  0.05349  0.46024  1.0000
  H   H465      1.0  0.56346  0.11349  0.26492  1.0000
  H   H466      1.0  0.64616  0.99160  0.39502  1.0000
  C   C472      1.0  0.67522  0.01011  0.44031  1.0000
  H   H467      1.0  0.52043  0.29101  0.30030  1.0000
  C   C473      1.0  0.70400  0.08385  0.30065  1.0000
  C   C474      1.0  0.65374  0.00650  0.41797  1.0000
  C   C475      1.0  0.68485  0.02955  0.46959  1.0000
  C   C476      1.0  0.70530  0.03714  0.30312  1.0000
  H   H468      1.0  0.51791  0.36540  0.24627  1.0000
  H   H469      1.0  0.49171  0.27381  0.38994  1.0000
  C   C477      1.0  0.55579  0.48152  0.34618  1.0000
  H   H470      1.0  0.48728  0.08658  0.79060  1.0000
  H   H471      1.0  0.61273  0.47800  0.93429  1.0000
  H   H472      1.0  0.64659  0.21611  0.87708  1.0000
  S   S154      1.0  0.70557  0.15300  0.84282  1.0000
  S   S155      1.0  0.48053  0.28730  0.81477  1.0000
  Fe  Fe79      1.0  0.70546  0.14826  0.72597  1.0000
  S   S156      1.0  0.68891  0.17086  0.75943  1.0000
  H   H473      1.0  0.48280  0.40125  0.58823  1.0000
  H   H474      1.0  0.62275  0.13043  0.93274  1.0000
  Fe  Fe80      1.0  0.67172  0.13715  0.80056  1.0000
  S   S157      1.0  0.63099  0.11799  0.82609  1.0000
  H   H475      1.0  0.70401  0.06098  0.92418  1.0000
  S   S158      1.0  0.68624  0.11346  0.76498  1.0000
  Fe  Fe81      1.0  0.50921  0.14201  0.86553  1.0000
  S   S159      1.0  0.55056  0.16260  0.84269  1.0000
  C   C478      1.0  0.60850  0.13032  0.82883  1.0000
  C   C479      1.0  0.61365  0.15416  0.81296  1.0000
  C   C480      1.0  0.59559  0.16364  0.81725  1.0000
  C   C481      1.0  0.57222  0.14941  0.83731  1.0000
  C   C482      1.0  0.56691  0.12540  0.85272  1.0000
  C   C483      1.0  0.58499  0.11594  0.84848  1.0000
  H   H476      1.0  0.63159  0.16536  0.79760  1.0000
  H   H477      1.0  0.59980  0.18218  0.80507  1.0000
  H   H478      1.0  0.54900  0.11423  0.86815  1.0000
  H   H479      1.0  0.58085  0.09747  0.86085  1.0000
  S   S160      1.0  0.59726  0.47508  0.84773  1.0000
  C   C484      1.0  0.61785  0.18419  0.90883  1.0000
  H   H480      1.0  0.54262  0.05870  0.78189  1.0000
  H   H481      1.0  0.60416  0.19188  0.90930  1.0000
  C   C485      1.0  0.49421  0.04582  0.80475  1.0000
  H   H482      1.0  0.69005  0.22250  0.86798  1.0000
  H   H483      1.0  0.50627  0.45609  0.83367  1.0000
  C   C486      1.0  0.52463  0.45818  0.94022  1.0000
  C   C487      1.0  0.53703  0.07370  0.77708  1.0000
  H   H484      1.0  0.56222  0.13507  0.74358  1.0000
  S   S161      1.0  0.71074  0.15166  0.65785  1.0000
  C   C488      1.0  0.66273  0.11280  0.54408  1.0000
  C   C489      1.0  0.68656  0.13487  0.54184  1.0000
  C   C490      1.0  0.70081  0.14641  0.57690  1.0000
  C   C491      1.0  0.69144  0.13630  0.61480  1.0000
  C   C492      1.0  0.66756  0.11428  0.61705  1.0000
  C   C493      1.0  0.65343  0.10257  0.58194  1.0000
  H   H485      1.0  0.69410  0.14299  0.51309  1.0000
  Fe  Fe82      1.0  0.72148  0.13191  0.80472  1.0000
  H   H486      1.0  0.66004  0.10616  0.64579  1.0000
  H   H487      1.0  0.63507  0.08551  0.58418  1.0000
  C   C494      1.0  0.51094  0.42196  0.82462  1.0000
  C   C495      1.0  0.52876  0.41231  0.82283  1.0000
  C   C496      1.0  0.55518  0.42893  0.82910  1.0000
  C   C497      1.0  0.56410  0.45535  0.83702  1.0000
  C   C498      1.0  0.54633  0.46508  0.83822  1.0000
  C   C499      1.0  0.51990  0.44844  0.83220  1.0000
  H   H488      1.0  0.52214  0.39199  0.81716  1.0000
  H   H489      1.0  0.56875  0.42119  0.82814  1.0000
  H   H490      1.0  0.69853  0.19805  0.88139  1.0000
  C   C500      1.0  0.49079  0.27828  0.72042  1.0000
  C   C501      1.0  0.65197  0.16366  0.90334  1.0000
  H   H491      1.0  0.64099  0.00239  0.70281  1.0000
  H   H492      1.0  0.52352  0.42443  0.91192  1.0000
  H   H493      1.0  0.50462  0.45270  0.93358  1.0000
  H   H494      1.0  0.65129  0.98836  0.63510  1.0000
  N   N39       1.0  0.57632  0.47285  0.95455  1.0000
  H   H495      1.0  0.50361  0.27728  0.74284  1.0000
  S   S162      1.0  0.49088  0.10427  0.89700  1.0000
  H   H496      1.0  0.48879  0.21082  0.85266  1.0000
  C   C502      1.0  0.49795  0.30082  0.69887  1.0000
  C   C503      1.0  0.54003  0.48134  0.96017  1.0000
  H   H497      1.0  0.59223  0.14901  0.93788  1.0000
  C   C504      1.0  0.53521  0.44223  0.92816  1.0000
  C   C505      1.0  0.64180  0.19770  0.89044  1.0000
  C   C506      1.0  0.50627  0.08937  0.78212  1.0000
  S   S163      1.0  0.47729  0.40165  0.81992  1.0000
  C   C507      1.0  0.68313  0.20134  0.86739  1.0000
  H   H498      1.0  0.51871  0.12846  0.76314  1.0000
  H   H499      1.0  0.51649  0.31725  0.70491  1.0000
  H   H500      1.0  0.48473  0.33960  0.66676  1.0000
  H   H501      1.0  0.70825  0.06058  0.97671  1.0000
  C   C508      1.0  0.72241  0.02923  0.90610  1.0000
  H   H502      1.0  0.48885  0.04940  0.83514  1.0000
  H   H503      1.0  0.51044  0.33572  0.64280  1.0000
  C   C509      1.0  0.70157  0.04806  0.94959  1.0000
  H   H504      1.0  0.56962  0.43798  0.92445  1.0000
  H   H505      1.0  0.50519  0.25741  0.83922  1.0000
  S   S164      1.0  0.49352  0.16138  0.90853  1.0000
  C   C510      1.0  0.56129  0.44999  0.93538  1.0000
  H   H506      1.0  0.70062  0.06650  0.52239  1.0000
  C   C511      1.0  0.54824  0.11665  0.75513  1.0000
  H   H507      1.0  0.50168  0.03158  0.80698  1.0000
  C   C512      1.0  0.61110  0.16005  0.92479  1.0000
  H   H508      1.0  0.47926  0.32250  0.61999  1.0000
  C   C513      1.0  0.48513  0.24419  0.83371  1.0000
  N   N40       1.0  0.71652  0.03397  0.94377  1.0000
  C   C514      1.0  0.55496  0.09695  0.76061  1.0000
  N   N41       1.0  0.65862  0.18751  0.88834  1.0000
  H   H509      1.0  0.57422  0.09997  0.75330  1.0000
  S   S165      1.0  0.47672  0.13063  0.82130  1.0000
  H   H510      1.0  0.47643  0.03709  0.78618  1.0000
  C   C515      1.0  0.68376  0.06578  0.50631  1.0000
  H   H511      1.0  0.71695  0.03672  0.88045  1.0000
  S   S166      1.0  0.64436  0.09645  0.50077  1.0000
  H   H512      1.0  0.68090  0.19466  0.83589  1.0000
  C   C516      1.0  0.60351  0.48026  0.96200  1.0000
  H   H513      1.0  0.66468  0.15494  0.89982  1.0000
  C   C517      1.0  0.62823  0.14966  0.92204  1.0000
  C   C518      1.0  0.52380  0.11294  0.76611  1.0000
  N   N42       1.0  0.51299  0.07015  0.78743  1.0000
  H   H514      1.0  0.65489  0.48041  0.80802  1.0000
  H   H515      1.0  0.71924  0.16337  0.57457  1.0000
  C   C519      1.0  0.48947  0.32618  0.64908  1.0000
  H   H516      1.0  0.68084  0.03429  0.95271  1.0000
  H   H517      1.0  0.66874  0.06330  0.52859  1.0000
  N   N43       1.0  0.48168  0.30225  0.67099  1.0000
  C   C520      1.0  0.47591  0.21778  0.84127  1.0000
  H   H518      1.0  0.68986  0.08469  0.49181  1.0000
  C   C521      1.0  0.72349  0.02461  0.97610  1.0000
  S   S167      1.0  0.47417  0.34182  0.75604  1.0000
  H   H519      1.0  0.60526  0.46812  0.98565  1.0000
  H   H520      1.0  0.70158  0.03212  0.48673  1.0000
  Fe  Fe83      1.0  0.55153  0.93569  0.14157  1.0000
  S   S168      1.0  0.53648  0.90096  0.18057  1.0000
  H   H521      1.0  0.51746  0.94071  0.26817  1.0000
  Fe  Fe84      1.0  0.52978  0.90182  0.06427  1.0000
  S   S169      1.0  0.51272  0.86513  0.09971  1.0000
  H   H522      1.0  0.67611  0.62796  0.37556  1.0000
  Fe  Fe85      1.0  0.50028  0.88662  0.14375  1.0000
  C   C522      1.0  0.62068  0.65964  0.32259  1.0000
  Fe  Fe86      1.0  0.55027  0.88268  0.13325  1.0000
  S   S170      1.0  0.57445  0.86244  0.14794  1.0000
  S   S171      1.0  0.51447  0.92189  0.10669  1.0000
  S   S172      1.0  0.56818  0.91872  0.09589  1.0000
  H   H523      1.0  0.50332  0.57842  0.13684  1.0000
  C   C523      1.0  0.60759  0.63280  0.32383  1.0000
  Fe  Fe87      1.0  0.55570  0.67032  0.19317  1.0000
  S   S173      1.0  0.59349  0.68268  0.22502  1.0000
  S   S174      1.0  0.53568  0.62933  0.16771  1.0000
  Fe  Fe88      1.0  0.55943  0.72372  0.20157  1.0000
  S   S175      1.0  0.59722  0.73970  0.23435  1.0000
  S   S176      1.0  0.53510  0.74426  0.19072  1.0000
  Fe  Fe89      1.0  0.60851  0.71852  0.18789  1.0000
  S   S177      1.0  0.65034  0.73537  0.16578  1.0000
  Fe  Fe90      1.0  0.57950  0.70269  0.26910  1.0000
  S   S178      1.0  0.58930  0.70371  0.33581  1.0000
  S   S179      1.0  0.57163  0.70474  0.15294  1.0000
  S   S180      1.0  0.54077  0.68809  0.23953  1.0000
  Fe  Fe91      1.0  0.71084  0.57526  0.29357  1.0000
  H   H524      1.0  0.69407  0.65738  0.14438  1.0000
  H   H525      1.0  0.60145  0.98261  0.30237  1.0000
  Fe  Fe92      1.0  0.65700  0.57101  0.29939  1.0000
  S   S181      1.0  0.66966  0.60915  0.26935  1.0000
  S   S182      1.0  0.61556  0.55199  0.32185  1.0000
  Fe  Fe93      1.0  0.69023  0.59555  0.22587  1.0000
  S   S183      1.0  0.69244  0.60618  0.15962  1.0000
  Fe  Fe94      1.0  0.70507  0.62398  0.30825  1.0000
  N   N44       1.0  0.64358  0.63251  0.35760  1.0000
  S   S184      1.0  0.67557  0.55645  0.25376  1.0000
  S   S185      1.0  0.69095  0.58691  0.34136  1.0000
  H   H526      1.0  0.69650  0.68247  0.17885  1.0000
  C   C524      1.0  0.65663  0.65883  0.35631  1.0000
  N   N45       1.0  0.49229  0.94206  0.22414  1.0000
  C   C525      1.0  0.48134  0.97076  0.18792  1.0000
  S   S186      1.0  0.72080  0.66497  0.33437  1.0000
  C   C526      1.0  0.51134  0.93408  0.23709  1.0000
  C   C527      1.0  0.65484  0.61840  0.37878  1.0000
  H   H527      1.0  0.55110  0.72296  0.32939  1.0000
  C   C528      1.0  0.66491  0.74701  0.11849  1.0000
  C   C529      1.0  0.69192  0.76141  0.11629  1.0000
  C   C530      1.0  0.70447  0.77036  0.07948  1.0000
  C   C531      1.0  0.69020  0.76451  0.04406  1.0000
  C   C532      1.0  0.66321  0.75001  0.04627  1.0000
  C   C533      1.0  0.65062  0.74147  0.08316  1.0000
  H   H528      1.0  0.70322  0.76592  0.14337  1.0000
  C   C534      1.0  0.55702  0.74192  0.31710  1.0000
  H   H529      1.0  0.65189  0.74539  0.01919  1.0000
  H   H530      1.0  0.62988  0.73041  0.08414  1.0000
  C   C535      1.0  0.54259  0.66659  0.44991  1.0000
  C   C536      1.0  0.56927  0.68227  0.45147  1.0000
  C   C537      1.0  0.58313  0.69338  0.41634  1.0000
  C   C538      1.0  0.57065  0.68899  0.37909  1.0000
  C   C539      1.0  0.54398  0.67335  0.37753  1.0000
  C   C540      1.0  0.53012  0.66231  0.41267  1.0000
  H   H531      1.0  0.65002  0.61742  0.41088  1.0000
  H   H532      1.0  0.60375  0.70537  0.41803  1.0000
  H   H533      1.0  0.53400  0.66963  0.34927  1.0000
  H   H534      1.0  0.50952  0.65018  0.41093  1.0000
  C   C541      1.0  0.64483  0.56597  0.04631  1.0000
  C   C542      1.0  0.63596  0.55561  0.08425  1.0000
  C   C543      1.0  0.65040  0.56727  0.11910  1.0000
  C   C544      1.0  0.67390  0.58972  0.11658  1.0000
  C   C545      1.0  0.68266  0.60021  0.07870  1.0000
  C   C546      1.0  0.66838  0.58837  0.04380  1.0000
  H   H535      1.0  0.61779  0.53834  0.08674  1.0000
  H   H536      1.0  0.64330  0.55892  0.14788  1.0000
  H   H537      1.0  0.70075  0.61758  0.07627  1.0000
  H   H538      1.0  0.67550  0.59668  0.01501  1.0000
  H   H539      1.0  0.58660  0.63437  0.14045  1.0000
  C   C547      1.0  0.56291  0.82917  0.15758  1.0000
  C   C548      1.0  0.53679  0.81260  0.16359  1.0000
  C   C549      1.0  0.52860  0.78658  0.17300  1.0000
  C   C550      1.0  0.54636  0.77677  0.17635  1.0000
  C   C551      1.0  0.57246  0.79326  0.17002  1.0000
  C   C552      1.0  0.58067  0.81933  0.16078  1.0000
  H   H540      1.0  0.52293  0.81991  0.16127  1.0000
  H   H541      1.0  0.50836  0.77398  0.17780  1.0000
  H   H542      1.0  0.58635  0.78599  0.17240  1.0000
  H   H543      1.0  0.60091  0.83198  0.15606  1.0000
  H   H544      1.0  0.64745  0.59844  0.36677  1.0000
  H   H545      1.0  0.58149  0.95961  0.23898  1.0000
  C   C553      1.0  0.57134  0.50827  0.34156  1.0000
  C   C554      1.0  0.59665  0.51812  0.32703  1.0000
  C   C555      1.0  0.61937  0.61945  0.34166  1.0000
  H   H546      1.0  0.56378  0.52142  0.34953  1.0000
  C   C556      1.0  0.49087  0.58539  0.15031  1.0000
  H   H547      1.0  0.52014  0.73189  0.29023  1.0000
  H   H548      1.0  0.60091  0.60094  0.15165  1.0000
  H   H549      1.0  0.58833  0.62243  0.31142  1.0000
  C   C557      1.0  0.50181  0.61002  0.16833  1.0000
  H   H550      1.0  0.61163  0.67028  0.30938  1.0000
  H   H551      1.0  0.62562  0.50813  0.30585  1.0000
  C   C558      1.0  0.64541  0.67278  0.33872  1.0000
  N   N46       1.0  0.65818  0.65438  0.16275  1.0000
  C   C559      1.0  0.65060  0.67286  0.15572  1.0000
  C   C560      1.0  0.64070  0.62883  0.16088  1.0000
  C   C561      1.0  0.62481  0.66592  0.14740  1.0000
  C   C562      1.0  0.61472  0.62122  0.15288  1.0000
  C   C563      1.0  0.60674  0.63994  0.14635  1.0000
  C   C564      1.0  0.68528  0.66172  0.17091  1.0000
  H   H552      1.0  0.66441  0.69317  0.15664  1.0000
  H   H553      1.0  0.64684  0.61417  0.16564  1.0000
  H   H554      1.0  0.61890  0.68068  0.14203  1.0000
  H   H555      1.0  0.49370  0.63766  0.19987  1.0000
  S   S187      1.0  0.51914  0.90038  0.99769  1.0000
  S   S188      1.0  0.70492  0.77376  0.99620  1.0000
  H   H556      1.0  0.51891  0.97281  0.18849  1.0000
  H   H557      1.0  0.68696  0.65056  0.19628  1.0000
  H   H558      1.0  0.67584  0.66919  0.36900  1.0000
  N   N47       1.0  0.57267  0.79002  0.28355  1.0000
  C   C565      1.0  0.58990  0.78523  0.30468  1.0000
  C   C566      1.0  0.54773  0.77135  0.27918  1.0000
  C   C567      1.0  0.58231  0.76118  0.32198  1.0000
  C   C568      1.0  0.53961  0.74697  0.29547  1.0000
  H   H559      1.0  0.60901  0.59855  0.34280  1.0000
  C   C569      1.0  0.58127  0.81536  0.26558  1.0000
  H   H560      1.0  0.60975  0.79991  0.30774  1.0000
  H   H561      1.0  0.53412  0.77486  0.26172  1.0000
  H   H562      1.0  0.59609  0.75716  0.33804  1.0000
  H   H563      1.0  0.65571  0.69365  0.33791  1.0000
  H   H564      1.0  0.47781  0.60642  0.07273  1.0000
  H   H565      1.0  0.58745  0.83061  0.28903  1.0000
  H   H566      1.0  0.59759  0.81950  0.24504  1.0000
  H   H567      1.0  0.56581  0.81635  0.24763  1.0000
  C   C570      1.0  0.60621  0.50089  0.31704  1.0000
  H   H568      1.0  0.52879  0.94238  0.21807  1.0000
  S   S189      1.0  0.62535  0.55048  0.00352  1.0000
  H   H569      1.0  0.70083  0.72241  0.98857  1.0000
  H   H570      1.0  0.50313  0.91275  0.23515  1.0000
  H   H571      1.0  0.50106  0.49515  0.28743  1.0000
  C   C571      1.0  0.48556  0.61880  0.18576  1.0000
  H   H572      1.0  0.57929  0.68564  0.47963  1.0000
  C   C572      1.0  0.49933  0.96265  0.19953  1.0000
  H   H573      1.0  0.47576  0.86753  0.04333  1.0000
  S   S190      1.0  0.56823  0.97755  0.16495  1.0000
  C   C573      1.0  0.58676  0.97984  0.24257  1.0000
  C   C574      1.0  0.71946  0.72263  0.98991  1.0000
  Fe  Fe95      1.0  0.54507  0.84966  0.69541  1.0000
  S   S191      1.0  0.58255  0.86937  0.72874  1.0000
  S   S192      1.0  0.52344  0.80677  0.67894  1.0000
  Fe  Fe96      1.0  0.53867  0.89852  0.69297  1.0000
  S   S193      1.0  0.57587  0.92134  0.72663  1.0000
  S   S194      1.0  0.51935  0.92206  0.67033  1.0000
  Fe  Fe97      1.0  0.59261  0.90210  0.68585  1.0000
  S   S195      1.0  0.63394  0.92685  0.66328  1.0000
  Fe  Fe98      1.0  0.56296  0.88730  0.76689  1.0000
  S   S196      1.0  0.57198  0.89059  0.83419  1.0000
  S   S197      1.0  0.55620  0.88118  0.65001  1.0000
  S   S198      1.0  0.52464  0.86557  0.73587  1.0000
  Fe  Fe99      1.0  0.66563  0.56699  0.86099  1.0000
  S   S199      1.0  0.65005  0.58996  0.89615  1.0000
  H   H574      1.0  0.68669  0.95666  0.63995  1.0000
  Fe  Fe100     1.0  0.61441  0.51775  0.86388  1.0000
  S   S200      1.0  0.59543  0.53701  0.89894  1.0000
  C   C575      1.0  0.62179  0.97505  0.59018  1.0000
  Fe  Fe101     1.0  0.61493  0.57005  0.85654  1.0000
  S   S201      1.0  0.59285  0.59112  0.83393  1.0000
  Fe  Fe102     1.0  0.63194  0.55529  0.93585  1.0000
  S   S202      1.0  0.63165  0.54940  0.81904  1.0000
  S   S203      1.0  0.64979  0.53374  0.90296  1.0000
  Fe  Fe103     1.0  0.49478  0.62853  0.63515  1.0000
  S   S204      1.0  0.51423  0.61253  0.59400  1.0000
  H   H575      1.0  0.52292  0.56243  0.69800  1.0000
  Fe  Fe104     1.0  0.54191  0.68206  0.63879  1.0000
  S   S205      1.0  0.56480  0.66938  0.59822  1.0000
  S   S206      1.0  0.56427  0.72297  0.66371  1.0000
  Fe  Fe105     1.0  0.52880  0.65020  0.56094  1.0000
  C   C576      1.0  0.63436  0.92717  0.57976  1.0000
  Fe  Fe106     1.0  0.54851  0.63320  0.63480  1.0000
  S   S207      1.0  0.57281  0.61433  0.65559  1.0000
  S   S208      1.0  0.50670  0.66485  0.59989  1.0000
  S   S209      1.0  0.52833  0.64722  0.67768  1.0000
  C   C577      1.0  0.67354  0.95157  0.54032  1.0000
  H   H576      1.0  0.50411  0.89721  0.91535  1.0000
  C   C578      1.0  0.58583  0.59528  0.78385  1.0000
  C   C579      1.0  0.56927  0.60616  0.77660  1.0000
  C   C580      1.0  0.56470  0.61171  0.73757  1.0000
  C   C581      1.0  0.57667  0.60639  0.70520  1.0000
  C   C582      1.0  0.59293  0.59520  0.71239  1.0000
  C   C583      1.0  0.59753  0.58969  0.75144  1.0000
  H   H577      1.0  0.56018  0.61064  0.80147  1.0000
  H   H578      1.0  0.55229  0.62049  0.73266  1.0000
  H   H579      1.0  0.60226  0.59097  0.68759  1.0000
  H   H580      1.0  0.61039  0.58142  0.75650  1.0000
  H   H581      1.0  0.54266  0.80830  0.76015  1.0000
  H   H582      1.0  0.58765  0.85067  0.81492  1.0000
  H   H583      1.0  0.50446  0.55848  0.65290  1.0000
  C   C584      1.0  0.53528  0.78382  0.67551  1.0000
  C   C585      1.0  0.56113  0.79041  0.68249  1.0000
  C   C586      1.0  0.56960  0.77147  0.67931  1.0000
  C   C587      1.0  0.55239  0.74581  0.66897  1.0000
  C   C588      1.0  0.52654  0.73922  0.66210  1.0000
  C   C589      1.0  0.51807  0.75813  0.66541  1.0000
  H   H584      1.0  0.57463  0.81010  0.69012  1.0000
  H   H585      1.0  0.58966  0.77680  0.68462  1.0000
  H   H586      1.0  0.51306  0.71957  0.65419  1.0000
  H   H587      1.0  0.49801  0.75280  0.66012  1.0000
  C   C590      1.0  0.64860  0.93482  0.61523  1.0000
  C   C591      1.0  0.67540  0.95061  0.61283  1.0000
  C   C592      1.0  0.68782  0.95880  0.57574  1.0000
  S   S210      1.0  0.68776  0.96318  0.49279  1.0000
  C   C593      1.0  0.61318  0.67240  0.69907  1.0000
  C   C594      1.0  0.53415  0.89747  0.95262  1.0000
  C   C595      1.0  0.55750  0.89632  0.95239  1.0000
  C   C596      1.0  0.56871  0.89436  0.91595  1.0000
  C   C597      1.0  0.55683  0.89347  0.87910  1.0000
  C   C598      1.0  0.53331  0.89427  0.87930  1.0000
  C   C599      1.0  0.52214  0.89630  0.91575  1.0000
  H   H588      1.0  0.67667  0.54369  0.76559  1.0000
  H   H589      1.0  0.58686  0.89372  0.91640  1.0000
  H   H590      1.0  0.52384  0.89359  0.85139  1.0000
  N   N48       1.0  0.54834  0.82360  0.81948  1.0000
  C   C600      1.0  0.53414  0.81292  0.78574  1.0000
  C   C601      1.0  0.53771  0.83009  0.85120  1.0000
  S   S211      1.0  0.70556  0.58615  0.83293  1.0000
  N   N49       1.0  0.68616  0.51487  0.78663  1.0000
  C   C602      1.0  0.50853  0.80832  0.78328  1.0000
  H   H591      1.0  0.58803  0.95864  0.55270  1.0000
  C   C603      1.0  0.54663  0.71730  0.53506  1.0000
  H   H592      1.0  0.51768  0.58834  0.67982  1.0000
  C   C604      1.0  0.63087  0.98110  0.62935  1.0000
  H   H593      1.0  0.64122  0.67611  0.81870  1.0000
  H   H594      1.0  0.51008  0.69334  0.50665  1.0000
  C   C605      1.0  0.57848  0.95981  0.61443  1.0000
  H   H595      1.0  0.49069  0.94873  0.64852  1.0000
  C   C606      1.0  0.52452  0.74756  0.56164  1.0000
  H   H596      1.0  0.58160  0.70022  0.74843  1.0000
  H   H597      1.0  0.56106  0.77085  0.58957  1.0000
  C   C607      1.0  0.59290  0.69003  0.74372  1.0000
  C   C608      1.0  0.49766  0.81524  0.81527  1.0000
  H   H598      1.0  0.54928  0.83949  0.87735  1.0000
  N   N50       1.0  0.56056  0.73853  0.55855  1.0000
  C   C609      1.0  0.51232  0.82622  0.84950  1.0000
  C   C610      1.0  0.48567  0.91136  0.66575  1.0000
  H   H599      1.0  0.61715  0.66811  0.66905  1.0000
  H   H600      1.0  0.55784  0.95097  0.60929  1.0000
  C   C611      1.0  0.57561  0.82982  0.82087  1.0000
  C   C612      1.0  0.64672  0.93571  0.54268  1.0000
  H   H601      1.0  0.59698  0.68474  0.80599  1.0000
  N   N51       1.0  0.61560  0.66817  0.76981  1.0000
  C   C613      1.0  0.60160  0.68121  0.77598  1.0000
  H   H602      1.0  0.70840  0.97102  0.57464  1.0000
  C   C614      1.0  0.62482  0.65951  0.80418  1.0000
  C   C615      1.0  0.51000  0.72563  0.53841  1.0000
  C   C616      1.0  0.50864  0.56712  0.68335  1.0000
  H   H603      1.0  0.58916  0.72779  0.57571  1.0000
  H   H604      1.0  0.63113  0.64489  0.79550  1.0000
  H   H605      1.0  0.58027  0.81852  0.79838  1.0000
  H   H606      1.0  0.63067  0.96847  0.71017  1.0000
  C   C617      1.0  0.66247  0.50165  0.80977  1.0000
  H   H607      1.0  0.51605  0.75942  0.57281  1.0000
  C   C618      1.0  0.59539  0.96413  0.58279  1.0000
  H   H608      1.0  0.64692  0.50579  0.79858  1.0000
  H   H609      1.0  0.60911  0.65000  0.82621  1.0000
  C   C619      1.0  0.58728  0.74535  0.56877  1.0000
  H   H610      1.0  0.63231  0.65316  0.72689  1.0000
  H   H611      1.0  0.61443  0.50075  0.97175  1.0000
  H   H612      1.0  0.70156  0.49041  0.80692  1.0000
  H   H613      1.0  0.63541  0.92994  0.51557  1.0000
  H   H614      1.0  0.49011  0.72027  0.53120  1.0000
  H   H615      1.0  0.59190  0.69207  0.67984  1.0000
  H   H616      1.0  0.59373  0.75786  0.59593  1.0000
  H   H617      1.0  0.58085  0.82565  0.85067  1.0000
  C   C620      1.0  0.59873  0.68553  0.70507  1.0000
  C   C621      1.0  0.55001  0.75390  0.57116  1.0000
  C   C622      1.0  0.62162  0.66390  0.73196  1.0000
  H   H618      1.0  0.61376  0.91507  0.58093  1.0000
  C   C623      1.0  0.52116  0.71051  0.52469  1.0000
  C   C624      1.0  0.58826  0.96649  0.65314  1.0000
  H   H619      1.0  0.55504  0.70524  0.52460  1.0000
  H   H620      1.0  0.71253  0.69793  0.93846  1.0000
  H   H621      1.0  0.50443  0.83244  0.87417  1.0000
  C   C625      1.0  0.69055  0.53626  0.76535  1.0000
  H   H622      1.0  0.70963  0.54509  0.87646  1.0000
  H   H623      1.0  0.57483  0.96281  0.67748  1.0000
  H   H624      1.0  0.56706  0.89717  0.98029  1.0000
  H   H625      1.0  0.60016  0.75552  0.54364  1.0000
  H   H626      1.0  0.63511  0.97789  0.56599  1.0000
  H   H627      1.0  0.49752  0.80023  0.75614  1.0000
  H   H628      1.0  0.71725  0.56701  0.72863  1.0000
  N   N52       1.0  0.61418  0.97696  0.66018  1.0000
  H   H629      1.0  0.72296  0.72853  0.63600  1.0000
  S   S212      1.0  0.52374  0.65210  0.49316  1.0000
  C   C626      1.0  0.70453  0.50665  0.78860  1.0000
  C   C627      1.0  0.71354  0.54960  0.74439  1.0000
  H   H630      1.0  0.66632  0.50798  0.84140  1.0000
  C   C628      1.0  0.62431  0.98283  0.70096  1.0000
  C   C629      1.0  0.47688  0.92894  0.65396  1.0000
  H   H631      1.0  0.57779  0.50636  0.98298  1.0000
  H   H632      1.0  0.55287  0.48534  0.84436  1.0000
  H   H633      1.0  0.47404  0.87208  0.68175  1.0000
  N   N53       1.0  0.48497  0.55744  0.70686  1.0000
  H   H634      1.0  0.47811  0.81257  0.81321  1.0000
  H   H635      1.0  0.48907  0.59483  0.72113  1.0000
  C   C630      1.0  0.56594  0.48829  0.96751  1.0000
  H   H636      1.0  0.53208  0.49399  0.96953  1.0000
  C   C631      1.0  0.47771  0.57420  0.72473  1.0000
  H   H637      1.0  0.60960  0.98218  0.72250  1.0000
  H   H638      1.0  0.47579  0.51816  0.69605  1.0000
  N   N54       1.0  0.89962  0.28434  0.14724  1.0000
  H   H639      1.0  0.88625  0.25809  0.09815  1.0000
  H   H640      1.0  0.87783  0.24830  0.17553  1.0000
  S   S213      1.0  0.79825  0.01304  0.42102  1.0000
  H   H641      1.0  0.73563  0.00880  0.24522  1.0000
  H   H642      1.0  0.74429  0.05945  0.32300  1.0000
  S   S214      1.0  0.74618  0.01925  0.43941  1.0000
  Fe  Fe107     1.0  0.79142  0.06821  0.02489  1.0000
  Fe  Fe108     1.0  0.81123  0.05263  0.10029  1.0000
  S   S215      1.0  0.83260  0.03650  0.06258  1.0000
  S   S216      1.0  0.81681  0.05185  0.16816  1.0000
  Fe  Fe109     1.0  0.84480  0.07188  0.02496  1.0000
  H   H643      1.0  0.75143  0.12294  0.30357  1.0000
  Fe  Fe110     1.0  0.79714  0.01874  0.02431  1.0000
  S   S217      1.0  0.82613  0.08940  0.06481  1.0000
  S   S218      1.0  0.77495  0.03298  0.06377  1.0000
  H   H644      1.0  0.77486  0.18240  0.31305  1.0000
  C   C632      1.0  0.80658  0.99038  0.17691  1.0000
  C   C633      1.0  0.84724  0.36260  0.40873  1.0000
  Fe  Fe111     1.0  0.83147  0.29483  0.29776  1.0000
  S   S219      1.0  0.85349  0.28056  0.25885  1.0000
  S   S220      1.0  0.79007  0.27290  0.31971  1.0000
  Fe  Fe112     1.0  0.87694  0.34921  0.30390  1.0000
  S   S221      1.0  0.90231  0.33829  0.26570  1.0000
  S   S222      1.0  0.89320  0.38808  0.33671  1.0000
  Fe  Fe113     1.0  0.86740  0.31817  0.22585  1.0000
  S   S223      1.0  0.86456  0.31483  0.15714  1.0000
  Fe  Fe114     1.0  0.88649  0.30179  0.30179  1.0000
  S   S224      1.0  0.91149  0.28310  0.32182  1.0000
  S   S225      1.0  0.84292  0.33108  0.26245  1.0000
  S   S226      1.0  0.86361  0.31405  0.34232  1.0000
  C   C634      1.0  0.88488  0.41353  0.33254  1.0000
  C   C635      1.0  0.89613  0.43467  0.35909  1.0000
  C   C636      1.0  0.88906  0.45465  0.35855  1.0000
  C   C637      1.0  0.87051  0.45363  0.33149  1.0000
  C   C638      1.0  0.85954  0.43270  0.30451  1.0000
  C   C639      1.0  0.86677  0.41280  0.30484  1.0000
  H   H645      1.0  0.91019  0.43543  0.38061  1.0000
  C   C640      1.0  0.90897  0.18124  0.41825  1.0000
  H   H646      1.0  0.84523  0.43176  0.28336  1.0000
  H   H647      1.0  0.85801  0.39671  0.28415  1.0000
  C   C641      1.0  0.92841  0.26559  0.44953  1.0000
  C   C642      1.0  0.91172  0.27647  0.44338  1.0000
  C   C643      1.0  0.90644  0.28205  0.40471  1.0000
  C   C644      1.0  0.91793  0.27699  0.37147  1.0000
  C   C645      1.0  0.93473  0.26622  0.37761  1.0000
  C   C646      1.0  0.93990  0.26049  0.41631  1.0000
  S   S227      1.0  0.88480  0.09231  0.99755  1.0000
  H   H648      1.0  0.89351  0.29034  0.40064  1.0000
  C   C647      1.0  0.92637  0.30089  0.21884  1.0000
  H   H649      1.0  0.90163  0.26265  0.23946  1.0000
  C   C648      1.0  0.89855  0.36359  0.04375  1.0000
  C   C649      1.0  0.90846  0.37390  0.08177  1.0000
  C   C650      1.0  0.89814  0.35958  0.11677  1.0000
  C   C651      1.0  0.87768  0.33459  0.11433  1.0000
  C   C652      1.0  0.86780  0.32428  0.07632  1.0000
  C   C653      1.0  0.87807  0.33861  0.04134  1.0000
  H   H650      1.0  0.92429  0.39317  0.08420  1.0000
  H   H651      1.0  0.90607  0.36788  0.14559  1.0000
  H   H652      1.0  0.85196  0.30502  0.07385  1.0000
  H   H653      1.0  0.87015  0.33029  0.01252  1.0000
  H   H654      1.0  0.89251  0.09652  0.44695  1.0000
  C   C654      1.0  0.88163  0.20924  0.41639  1.0000
  H   H655      1.0  0.88214  0.13700  0.03351  1.0000
  H   H656      1.0  0.93649  0.30740  0.24708  1.0000
  H   H657      1.0  0.88874  0.21213  0.35313  1.0000
  H   H658      1.0  0.94381  0.26225  0.35225  1.0000
  C   C655      1.0  0.91720  0.17023  0.01576  1.0000
  H   H659      1.0  0.91964  0.17024  0.41960  1.0000
  S   S228      1.0  0.85953  0.47730  0.33125  1.0000
  C   C656      1.0  0.90524  0.19043  0.38202  1.0000
  H   H660      1.0  0.91316  0.18681  0.35487  1.0000
  C   C657      1.0  0.76886  0.01914  0.28283  1.0000
  C   C658      1.0  0.79577  0.03075  0.28351  1.0000
  C   C659      1.0  0.80995  0.04087  0.24829  1.0000
  C   C660      1.0  0.79756  0.03942  0.21173  1.0000
  C   C661      1.0  0.77061  0.02767  0.21097  1.0000
  C   C662      1.0  0.75642  0.01772  0.24629  1.0000
  H   H661      1.0  0.80571  0.03212  0.31124  1.0000
  H   H662      1.0  0.83075  0.04991  0.24941  1.0000
  C   C663      1.0  0.73109  0.20180  0.34300  1.0000
  C   C664      1.0  0.74125  0.18493  0.33389  1.0000
  N   N55       1.0  0.88581  0.20056  0.45189  1.0000
  C   C665      1.0  0.74629  0.22860  0.33846  1.0000
  C   C666      1.0  0.77181  0.23890  0.32475  1.0000
  C   C667      1.0  0.78199  0.22204  0.31565  1.0000
  C   C668      1.0  0.76678  0.19523  0.32022  1.0000
  H   H663      1.0  0.76072  0.02634  0.18322  1.0000
  C   C669      1.0  0.90028  0.14363  0.01813  1.0000
  H   H664      1.0  0.80156  0.22965  0.30506  1.0000
  C   C670      1.0  0.74843  0.10720  0.32442  1.0000
  H   H665      1.0  0.87134  0.22059  0.41542  1.0000
  C   C671      1.0  0.88067  0.10085  0.46736  1.0000
  C   C672      1.0  0.82507  0.38262  0.37222  1.0000
  C   C673      1.0  0.89899  0.18645  0.45306  1.0000
  C   C674      1.0  0.80721  0.38176  0.34389  1.0000
  H   H666      1.0  0.86464  0.27054  0.11503  1.0000
  H   H667      1.0  0.82097  0.00295  0.19820  1.0000
  C   C675      1.0  0.89343  0.26773  0.17838  1.0000
  H   H668      1.0  0.74512  0.11315  0.35457  1.0000
  N   N56       1.0  0.82860  0.36145  0.37872  1.0000
  C   C676      1.0  0.81402  0.33883  0.35862  1.0000
  C   C677      1.0  0.79601  0.33729  0.33007  1.0000
  C   C678      1.0  0.79273  0.35895  0.32252  1.0000
  H   H669      1.0  0.81638  0.32183  0.36428  1.0000
  H   H670      1.0  0.78483  0.31937  0.31374  1.0000
  H   H671      1.0  0.77906  0.35807  0.30007  1.0000
  H   H672      1.0  0.86299  0.38259  0.41272  1.0000
  H   H673      1.0  0.85675  0.35086  0.39905  1.0000
  C   C679      1.0  0.93229  0.31783  0.18716  1.0000
  S   S229      1.0  0.91258  0.38279  0.00065  1.0000
  C   C680      1.0  0.90678  0.27570  0.21454  1.0000
  H   H674      1.0  0.89255  0.29040  0.08661  1.0000
  C   C681      1.0  0.85407  0.08395  0.46957  1.0000
  H   H675      1.0  0.84563  0.06670  0.45114  1.0000
  H   H676      1.0  0.83330  0.00032  0.12826  1.0000
  H   H677      1.0  0.94692  0.33769  0.19065  1.0000
  S   S230      1.0  0.74983  0.00640  0.32651  1.0000
  H   H678      1.0  0.92197  0.43691  0.00144  1.0000
  H   H679      1.0  0.83717  0.13269  0.00163  1.0000
  H   H680      1.0  0.73818  0.24140  0.34558  1.0000
  H   H681      1.0  0.83665  0.40062  0.38803  1.0000
  H   H682      1.0  0.74224  0.00268  0.99676  1.0000
  S   S231      1.0  0.76800  0.08798  0.00324  1.0000
  H   H683      1.0  0.92288  0.32268  0.12722  1.0000
  Fe  Fe115     1.0  0.78355  0.02870  0.47062  1.0000
  H   H684      1.0  0.91188  0.18393  0.02934  1.0000
  H   H685      1.0  0.95280  0.25217  0.42040  1.0000
  N   N57       1.0  0.72607  0.08317  0.31212  1.0000
  H   H686      1.0  0.90277  0.28061  0.46876  1.0000
  H   H687      1.0  0.80508  0.39887  0.33805  1.0000
  H   H688      1.0  0.83745  0.35542  0.43758  1.0000
  Fe  Fe116     1.0  0.75982  0.00122  0.39126  1.0000
  C   C682      1.0  0.89140  0.20444  0.38098  1.0000
  C   C683      1.0  0.88512  0.27537  0.10984  1.0000
  C   C684      1.0  0.91867  0.30918  0.15131  1.0000
  H   H689      1.0  0.87704  0.40280  0.99579  1.0000
  S   S232      1.0  0.97032  0.21580  0.48172  1.0000
  H   H690      1.0  0.89753  0.47052  0.37968  1.0000
  H   H691      1.0  0.90209  0.17931  0.48104  1.0000
  C   C685      1.0  0.90668  0.12575  0.99984  1.0000
  H   H692      1.0  0.76640  0.10521  0.32484  1.0000
  C   C686      1.0  0.81349  0.98898  0.13756  1.0000
  S   S233      1.0  0.95979  0.21295  0.98904  1.0000
  C   C687      1.0  0.94070  0.17926  0.99523  1.0000
  C   C688      1.0  0.72690  0.06019  0.31366  1.0000
  H   H693      1.0  0.73180  0.20356  0.67839  1.0000
  C   C689      1.0  0.94743  0.16134  0.97800  1.0000
  H   H694      1.0  0.89976  0.12714  0.89761  1.0000
  H   H695      1.0  0.77011  0.08365  0.85609  1.0000
  C   C690      1.0  0.79420  0.23761  0.70367  1.0000
  Fe  Fe117     1.0  0.88214  0.34433  0.85766  1.0000
  S   S234      1.0  0.91975  0.35767  0.89078  1.0000
  S   S235      1.0  0.86294  0.30292  0.83356  1.0000
  Fe  Fe118     1.0  0.88546  0.39770  0.86239  1.0000
  S   S236      1.0  0.92289  0.41454  0.89617  1.0000
  S   S237      1.0  0.86123  0.41773  0.84728  1.0000
  Fe  Fe119     1.0  0.93485  0.39276  0.85176  1.0000
  C   C691      1.0  0.76447  0.09118  0.88180  1.0000
  Fe  Fe120     1.0  0.90506  0.37815  0.93272  1.0000
  S   S238      1.0  0.89826  0.37792  0.81586  1.0000
  S   S239      1.0  0.86661  0.36285  0.90180  1.0000
  C   C692      1.0  0.96152  0.35980  0.74106  1.0000
  Fe  Fe121     1.0  0.94869  0.18157  0.52103  1.0000
  S   S240      1.0  0.93136  0.20100  0.55942  1.0000
  C   C693      1.0  0.91927  0.33283  0.76736  1.0000
  Fe  Fe122     1.0  0.95437  0.23586  0.52171  1.0000
  H   H696      1.0  0.92622  0.34986  0.70924  1.0000
  C   C694      1.0  0.87313  0.45070  0.83544  1.0000
  C   C695      1.0  0.85550  0.46020  0.82772  1.0000
  H   H697      1.0  0.91323  0.46074  0.84127  1.0000
  H   H698      1.0  0.83507  0.44715  0.82795  1.0000
  C   C696      1.0  0.91612  0.46281  0.96250  1.0000
  C   C697      1.0  0.77079  0.08651  0.92036  1.0000
  S   S241      1.0  0.96368  0.20765  0.66623  1.0000
  C   C698      1.0  0.74919  0.21872  0.69152  1.0000
  C   C699      1.0  0.77585  0.24741  0.82594  1.0000
  C   C700      1.0  0.78457  0.27332  0.83744  1.0000
  C   C701      1.0  0.81111  0.29044  0.84061  1.0000
  C   C702      1.0  0.82928  0.28183  0.83218  1.0000
  C   C703      1.0  0.82055  0.25588  0.82089  1.0000
  C   C704      1.0  0.79400  0.23872  0.81793  1.0000
  H   H699      1.0  0.77073  0.28029  0.84365  1.0000
  H   H700      1.0  0.81751  0.31035  0.84924  1.0000
  H   H701      1.0  0.83442  0.24899  0.81440  1.0000
  H   H702      1.0  0.78762  0.21886  0.80904  1.0000
  C   C705      1.0  0.89833  0.46622  0.93905  1.0000
  C   C706      1.0  0.74342  0.00572  0.93301  1.0000
  C   C707      1.0  0.76960  0.25735  0.73194  1.0000
  C   C708      1.0  0.77365  0.19823  0.66244  1.0000
  C   C709      1.0  0.76312  0.09564  0.95387  1.0000
  C   C710      1.0  0.74355  0.11485  0.90965  1.0000
  C   C711      1.0  0.87391  0.04267  0.51457  1.0000
  C   C712      1.0  0.89946  0.46777  0.83529  1.0000
  H   H703      1.0  0.85756  0.10655  0.93087  1.0000
  H   H704      1.0  0.95506  0.32565  0.86364  1.0000
  H   H705      1.0  0.83817  0.11582  0.54070  1.0000
  C   C713      1.0  0.87657  0.12845  0.51795  1.0000
  H   H706      1.0  0.91837  0.31932  0.82659  1.0000
  H   H707      1.0  0.92512  0.17493  0.89786  1.0000
  C   C714      1.0  0.87221  0.06006  0.54197  1.0000
  N   N58       1.0  0.77243  0.21892  0.68593  1.0000
  H   H708      1.0  0.96544  0.16798  0.96217  1.0000
  S   S242      1.0  0.74205  0.16519  0.76298  1.0000
  H   H709      1.0  0.74380  0.11734  0.97388  1.0000
  H   H710      1.0  0.85936  0.44915  0.91772  1.0000
  H   H711      1.0  0.73295  0.12569  0.90586  1.0000
  H   H712      1.0  0.75411  0.99484  0.92912  1.0000
  H   H713      1.0  0.83029  0.07325  0.58601  1.0000
  H   H714      1.0  0.93594  0.47773  0.96429  1.0000
  H   H715      1.0  0.81194  0.02434  0.57496  1.0000
  C   C715      1.0  0.79317  0.25728  0.72650  1.0000
  N   N59       1.0  0.85822  0.14218  0.94767  1.0000
  H   H716      1.0  0.95901  0.19395  0.74880  1.0000
  H   H717      1.0  0.95837  0.41687  0.75082  1.0000
  H   H718      1.0  0.86458  0.09137  0.58871  1.0000
  H   H719      1.0  0.76837  0.27191  0.75088  1.0000
  H   H720      1.0  0.76684  0.18058  0.68063  1.0000
  S   S243      1.0  0.74161  0.10879  0.82690  1.0000
  C   C716      1.0  0.84824  0.07170  0.59163  1.0000
  H   H721      1.0  0.74123  0.01195  0.87033  1.0000
  H   H722      1.0  0.78095  0.07526  0.92410  1.0000
  C   C717      1.0  0.83866  0.08907  0.49637  1.0000
  H   H723      1.0  0.88510  0.14530  0.53721  1.0000
  H   H724      1.0  0.88841  0.07915  0.54516  1.0000
  N   N60       1.0  0.85009  0.05343  0.56316  1.0000
  S   S244      1.0  0.80578  0.06701  0.50381  1.0000
  H   H725      1.0  0.93566  0.12109  0.96615  1.0000
  C   C718      1.0  0.73688  0.01024  0.97117  1.0000
  H   H726      1.0  0.85381  0.00449  0.48833  1.0000
  C   C719      1.0  0.75060  0.10515  0.87614  1.0000
  C   C720      1.0  0.89175  0.13895  0.91050  1.0000
  C   C721      1.0  0.73618  0.01528  0.90017  1.0000
  C   C722      1.0  0.93069  0.33058  0.80259  1.0000
  C   C723      1.0  0.89211  0.12299  0.49187  1.0000
  H   H727      1.0  0.81247  0.23729  0.70057  1.0000
  C   C724      1.0  0.90598  0.16573  0.91070  1.0000
  S   S245      1.0  0.76611  0.99200  0.50566  1.0000
  H   H728      1.0  0.81468  0.99243  0.52881  1.0000
  C   C725      1.0  0.89610  0.18064  0.92949  1.0000
  S   S246      1.0  0.74225  0.22720  0.81947  1.0000
  Fe  Fe123     1.0  0.96683  0.21412  0.59847  1.0000
  C   C726      1.0  0.84997  0.11165  0.51996  1.0000
  H   H729      1.0  0.79346  0.20366  0.65193  1.0000
  H   H730      1.0  0.81034  0.27187  0.74111  1.0000
  C   C727      1.0  0.87301  0.44650  0.93641  1.0000
  S   S247      1.0  0.93350  0.25813  0.49907  1.0000
  C   C728      1.0  0.74977  0.11010  0.94821  1.0000
  C   C729      1.0  0.93482  0.34760  0.73647  1.0000
  H   H731      1.0  0.89845  0.32348  0.76451  1.0000
  C   C730      1.0  0.82960  0.02949  0.55859  1.0000
  C   C731      1.0  0.86782  0.12740  0.92945  1.0000
  H   H732      1.0  0.84800  0.06512  0.62252  1.0000
  C   C732      1.0  0.87203  0.16847  0.94792  1.0000
  H   H733      1.0  0.90760  0.20143  0.93123  1.0000
  N   N61       1.0  0.95690  0.34274  0.80692  1.0000
  C   C733      1.0  0.83368  0.12999  0.96901  1.0000
  C   C734      1.0  0.74741  0.23787  0.71465  1.0000
  H   H734      1.0  0.88726  0.20677  0.51473  1.0000
  C   C735      1.0  0.85304  0.01822  0.50968  1.0000
  C   C736      1.0  0.97229  0.35725  0.77678  1.0000
  H   H735      1.0  0.76102  0.19343  0.63568  1.0000
  Fe  Fe124     1.0  0.72408  0.18515  0.79895  1.0000
  H   H736      1.0  0.83218  0.40184  0.92095  1.0000
  H   H737      1.0  0.86477  0.18014  0.96337  1.0000
  H   H738      1.0  0.83777  0.38419  0.95921  1.0000
  H   H739      1.0  0.82095  0.13842  0.96004  1.0000
  S   S248      1.0  0.92594  0.14251  0.49011  1.0000
  C   C737      1.0  0.88287  0.42059  0.97977  1.0000
  H   H740      1.0  0.72886  0.23723  0.71997  1.0000
  C   C738      1.0  0.83089  0.01146  0.53219  1.0000
  S   S249      1.0  0.81084  0.05259  0.98323  1.0000
  H   H741      1.0  0.89115  0.04831  0.49688  1.0000
  C   C739      1.0  0.83920  0.40330  0.95211  1.0000
  N   N62       1.0  0.86576  0.42382  0.95583  1.0000
  H   H742      1.0  0.82300  0.10897  0.96269  1.0000
  C   C740      1.0  0.93049  0.13475  0.98028  1.0000
  C   C741      1.0  0.96869  0.34160  0.84480  1.0000
  H   H743      1.0  0.82650  0.40732  0.97245  1.0000
  C   C742      1.0  0.90831  0.43996  0.98332  1.0000
  C   C743      1.0  0.87505  0.20536  0.48859  1.0000
  H   H744      1.0  0.85528  0.18963  0.49323  1.0000
  H   H745      1.0  0.97384  0.37184  0.71764  1.0000
  H   H746      1.0  0.87467  0.22417  0.48740  1.0000
  H   H747      1.0  0.74546  0.71796  0.35987  1.0000
  C   C744      1.0  0.75519  0.70515  0.45537  1.0000
  C   C745      1.0  0.94644  0.53968  0.21928  1.0000
  Fe  Fe125     1.0  0.87832  0.51825  0.35777  1.0000
  S   S250      1.0  0.91556  0.53772  0.39171  1.0000
  C   C746      1.0  0.87194  0.81659  0.99019  1.0000
  Fe  Fe126     1.0  0.87285  0.56765  0.35461  1.0000
  S   S251      1.0  0.91033  0.59061  0.38773  1.0000
  S   S252      1.0  0.85240  0.59011  0.33192  1.0000
  Fe  Fe127     1.0  0.92663  0.57028  0.34829  1.0000
  H   H748      1.0  0.74215  0.61132  0.39185  1.0000
  Fe  Fe128     1.0  0.89643  0.55669  0.42886  1.0000
  S   S253      1.0  0.89028  0.54978  0.31248  1.0000
  S   S254      1.0  0.85802  0.53472  0.39764  1.0000
  C   C747      1.0  0.96698  0.52874  0.31975  1.0000
  Fe  Fe129     1.0  0.96066  0.79390  0.03321  1.0000
  S   S255      1.0  0.94613  0.75590  0.06425  1.0000
  H   H749      1.0  0.91594  0.50259  0.31518  1.0000
  H   H750      1.0  0.72517  0.78176  0.07859  1.0000
  C   C748      1.0  0.83181  0.90069  0.41628  1.0000
  C   C749      1.0  0.75557  0.71934  0.42198  1.0000
  H   H751      1.0  0.75353  0.61032  0.34228  1.0000
  C   C750      1.0  0.81803  0.85604  0.42482  1.0000
  S   S256      1.0  0.77466  0.97706  0.00215  1.0000
  C   C751      1.0  0.94212  0.80265  0.48297  1.0000
  C   C752      1.0  0.76708  0.90371  0.47308  1.0000
  H   H752      1.0  0.74368  0.95687  0.07540  1.0000
  C   C753      1.0  0.78743  0.57868  0.41718  1.0000
  H   H753      1.0  0.82786  0.91626  0.40730  1.0000
  S   S257      1.0  0.78350  0.81884  0.00540  1.0000
  H   H754      1.0  0.81082  0.64574  0.37123  1.0000
  H   H755      1.0  0.79629  0.75016  0.05333  1.0000
  H   H756      1.0  0.97334  0.81487  0.40245  1.0000
  C   C754      1.0  0.73434  0.67972  0.38129  1.0000
  C   C755      1.0  0.90877  0.51141  0.25623  1.0000
  C   C756      1.0  0.81899  0.57810  0.32229  1.0000
  C   C757      1.0  0.81037  0.59447  0.30487  1.0000
  C   C758      1.0  0.78386  0.58684  0.30072  1.0000
  C   C759      1.0  0.76568  0.56274  0.31418  1.0000
  C   C760      1.0  0.77431  0.54604  0.33034  1.0000
  C   C761      1.0  0.80082  0.55362  0.33434  1.0000
  H   H757      1.0  0.82430  0.61337  0.29521  1.0000
  H   H758      1.0  0.77754  0.59977  0.28773  1.0000
  H   H759      1.0  0.76039  0.52730  0.34064  1.0000
  H   H760      1.0  0.80716  0.54081  0.34773  1.0000
  H   H761      1.0  0.84264  0.63175  0.39360  1.0000
  C   C762      1.0  0.79454  0.97358  0.11004  1.0000
  S   S258      1.0  0.80589  0.79625  0.47735  1.0000
  H   H762      1.0  0.92996  0.74978  0.32580  1.0000
  H   H763      1.0  0.90756  0.52465  0.19716  1.0000
  H   H764      1.0  0.95525  0.55074  0.19286  1.0000
  C   C763      1.0  0.96176  0.54044  0.25165  1.0000
  S   S259      1.0  0.72698  0.61335  0.26264  1.0000
  H   H765      1.0  0.95791  0.53018  0.34816  1.0000
  C   C764      1.0  0.75997  0.87758  0.48009  1.0000
  C   C765      1.0  0.76773  0.72491  0.99320  1.0000
  H   H766      1.0  0.80317  0.83619  0.42247  1.0000
  C   C766      1.0  0.88971  0.78036  0.00483  1.0000
  S   S260      1.0  0.74109  0.96216  0.42061  1.0000
  H   H767      1.0  0.74378  0.66690  0.47698  1.0000
  C   C767      1.0  0.73733  0.73729  0.01926  1.0000
  C   C768      1.0  0.95053  0.78054  0.36811  1.0000
  Fe  Fe130     1.0  0.96723  0.74568  0.01637  1.0000
  C   C769      1.0  0.82220  0.61946  0.39791  1.0000
  H   H768      1.0  0.76752  0.63987  0.37140  1.0000
  S   S261      1.0  0.96810  0.58768  0.32416  1.0000
  S   S262      1.0  0.95152  0.70443  0.99049  1.0000
  N   N63       1.0  0.95076  0.52758  0.28584  1.0000
  N   N64       1.0  0.77830  0.61096  0.38844  1.0000
  C   C770      1.0  0.81218  0.96039  0.00071  1.0000
  C   C771      1.0  0.85585  0.90667  0.43291  1.0000
  C   C772      1.0  0.76985  0.58688  0.40377  1.0000
  C   C773      1.0  0.74431  0.67813  0.45138  1.0000
  C   C774      1.0  0.86369  0.77230  0.99485  1.0000
  H   H769      1.0  0.84581  0.84585  0.45069  1.0000
  H   H770      1.0  0.78069  0.55925  0.42795  1.0000
  N   N65       1.0  0.81316  0.87563  0.41299  1.0000
  N   N66       1.0  0.76101  0.73810  0.02086  1.0000
  C   C775      1.0  0.90702  0.80663  0.00762  1.0000
  C   C776      1.0  0.74512  0.70669  0.38534  1.0000
  H   H771      1.0  0.74055  0.86306  0.47332  1.0000
  C   C777      1.0  0.96830  0.60278  0.24529  1.0000
  C   C778      1.0  0.78631  0.95412  0.99487  1.0000
  H   H772      1.0  0.86121  0.67066  0.98753  1.0000
  H   H773      1.0  0.77019  0.75053  0.08124  1.0000
  C   C779      1.0  0.81376  0.59510  0.41413  1.0000
  C   C780      1.0  0.82044  0.94142  0.99544  1.0000
  C   C781      1.0  0.77946  0.75408  0.05154  1.0000
  H   H774      1.0  0.94286  0.76863  0.39419  1.0000
  S   S263      1.0  0.73221  0.55344  0.31483  1.0000
  C   C782      1.0  0.84195  0.86134  0.44111  1.0000
  C   C783      1.0  0.94831  0.82771  0.47145  1.0000
  H   H775      1.0  0.78335  0.88577  0.39982  1.0000
  H   H776      1.0  0.84052  0.94651  0.99993  1.0000
  H   H777      1.0  0.76377  0.74008  0.42441  1.0000
  C   C784      1.0  0.75952  0.61857  0.37273  1.0000
  H   H778      1.0  0.96927  0.61384  0.18394  1.0000
  C   C785      1.0  0.78813  0.86961  0.39526  1.0000
  H   H779      1.0  0.75760  0.93525  0.07013  1.0000
  H   H780      1.0  0.73227  0.74834  0.04036  1.0000
  C   C786      1.0  0.95328  0.78596  0.29684  1.0000
  H   H781      1.0  0.94805  0.59716  0.24900  1.0000
  H   H782      1.0  0.82764  0.58852  0.42242  1.0000
  H   H783      1.0  0.74944  0.57346  0.40405  1.0000
  C   C787      1.0  0.96777  0.80658  0.37284  1.0000
  H   H784      1.0  0.82589  0.97987  0.00910  1.0000
  H   H785      1.0  0.87033  0.92658  0.43651  1.0000
  C   C788      1.0  0.86088  0.88680  0.44543  1.0000
  C   C789      1.0  0.74983  0.94433  0.09195  1.0000
  H   H786      1.0  0.78827  0.86560  0.36291  1.0000
  C   C790      1.0  0.73401  0.66548  0.41463  1.0000
  C   C791      1.0  0.80410  0.62712  0.38505  1.0000
  S   S264      1.0  0.94004  0.81793  0.02011  1.0000
  H   H787      1.0  0.78680  0.72618  0.99364  1.0000
  C   C792      1.0  0.92466  0.51290  0.28820  1.0000
  C   C793      1.0  0.94328  0.77006  0.32986  1.0000
  H   H788      1.0  0.96750  0.84040  0.46116  1.0000
  H   H789      1.0  0.74242  0.95119  0.16890  1.0000
  H   H790      1.0  0.79998  0.97298  0.07930  1.0000
  H   H791      1.0  0.75320  0.90913  0.46101  1.0000
  H   H792      1.0  0.85051  0.75195  0.99281  1.0000
  H   H793      1.0  0.89637  0.76628  0.01045  1.0000
  N   N67       1.0  0.97037  0.81147  0.30185  1.0000
  C   C794      1.0  0.91975  0.52514  0.22175  1.0000
  H   H794      1.0  0.77247  0.85252  0.40969  1.0000
  S   S265      1.0  0.80329  0.95526  0.46697  1.0000
  H   H795      1.0  0.94753  0.77771  0.26715  1.0000
  H   H796      1.0  0.96988  0.51131  0.31993  1.0000
  Fe  Fe131     1.0  0.77855  0.97534  0.45405  1.0000
  N   N68       1.0  0.76945  0.95976  0.12157  1.0000
  H   H797      1.0  0.88802  0.50010  0.25866  1.0000
  H   H798      1.0  0.73274  0.92853  0.10596  1.0000
  H   H799      1.0  0.78701  0.77475  0.04420  1.0000
  S   S266      1.0  0.96468  0.79024  0.48011  1.0000
  H   H800      1.0  0.87931  0.89095  0.45869  1.0000
  C   C795      1.0  0.76242  0.96142  0.15998  1.0000
  C   C796      1.0  0.79234  0.92259  0.48037  1.0000
  C   C797      1.0  0.92957  0.83648  0.47344  1.0000
  C   C798      1.0  0.89796  0.82466  0.00024  1.0000
  H   H801      1.0  0.93453  0.85587  0.46441  1.0000
  H   H802      1.0  0.96756  0.83786  0.26210  1.0000
  H   H803      1.0  0.77530  0.97824  0.21862  1.0000
  H   H804      1.0  0.91114  0.84502  0.00240  1.0000
  Fe  Fe132     1.0  0.72978  0.98113  0.47075  1.0000
  C   C799      1.0  0.78090  0.97657  0.18830  1.0000
  H   H805      1.0  0.72557  0.64474  0.41229  1.0000
  C   C800      1.0  0.85464  0.79033  0.98744  1.0000
  N   N69       1.0  0.86966  0.51491  0.67238  1.0000
  Fe  Fe133     1.0  0.87887  0.55791  0.79627  1.0000
  S   S267      1.0  0.89830  0.59208  0.75583  1.0000
  S   S268      1.0  0.90226  0.53690  0.81081  1.0000
  Fe  Fe134     1.0  0.83060  0.56549  0.80437  1.0000
  S   S269      1.0  0.84646  0.59954  0.76412  1.0000
  S   S270      1.0  0.79171  0.54843  0.83592  1.0000
  Fe  Fe135     1.0  0.85996  0.57650  0.72458  1.0000
  S   S271      1.0  0.84939  0.56900  0.65789  1.0000
  Fe  Fe136     1.0  0.88352  0.61223  0.79897  1.0000
  S   S272      1.0  0.90529  0.65460  0.81942  1.0000
  S   S273      1.0  0.84133  0.54131  0.76307  1.0000
  S   S274      1.0  0.86682  0.57918  0.84122  1.0000
  C   C801      1.0  0.75625  0.73844  0.67322  1.0000
  S   S275      1.0  0.76182  0.77844  0.92945  1.0000
  H   H806      1.0  0.85130  0.65118  0.83536  1.0000
  Fe  Fe137     1.0  0.79288  0.85030  0.96040  1.0000
  H   H807      1.0  0.75809  0.87452  0.87153  1.0000
  C   C802      1.0  0.77713  0.90969  0.97850  1.0000
  Fe  Fe138     1.0  0.80014  0.80193  0.96000  1.0000
  Fe  Fe139     1.0  0.77307  0.81231  0.88921  1.0000
  S   S276      1.0  0.76243  0.80838  0.82252  1.0000
  S   S277      1.0  0.81224  0.83471  0.91720  1.0000
  Fe  Fe140     1.0  0.79186  0.81687  0.52049  1.0000
  S   S278      1.0  0.77243  0.78244  0.56065  1.0000
  H   H808      1.0  0.85027  0.49357  0.81436  1.0000
  Fe  Fe141     1.0  0.84146  0.81168  0.51612  1.0000
  S   S279      1.0  0.82568  0.77739  0.55594  1.0000
  H   H809      1.0  0.84753  0.61779  0.97077  1.0000
  Fe  Fe142     1.0  0.78913  0.76316  0.51947  1.0000
  Fe  Fe143     1.0  0.81016  0.79927  0.59401  1.0000
  S   S280      1.0  0.81809  0.80070  0.66147  1.0000
  S   S281      1.0  0.82853  0.83478  0.55613  1.0000
  C   C803      1.0  0.77831  0.80616  0.77821  1.0000
  C   C804      1.0  0.80209  0.80596  0.77890  1.0000
  C   C805      1.0  0.81398  0.80454  0.74291  1.0000
  C   C806      1.0  0.80245  0.80348  0.70569  1.0000
  C   C807      1.0  0.77871  0.80379  0.70499  1.0000
  H   H810      1.0  0.87401  0.68086  0.89119  1.0000
  H   H811      1.0  0.81130  0.80678  0.80715  1.0000
  H   H812      1.0  0.83231  0.80426  0.74395  1.0000
  H   H813      1.0  0.86918  0.51580  0.60885  1.0000
  C   C808      1.0  0.76894  0.56049  0.83700  1.0000
  C   C809      1.0  0.77227  0.58193  0.81506  1.0000
  C   C810      1.0  0.75300  0.58998  0.81518  1.0000
  H   H814      1.0  0.96008  0.75882  0.55137  1.0000
  H   H815      1.0  0.79987  0.89905  0.89896  1.0000
  C   C811      1.0  0.74635  0.54749  0.85947  1.0000
  H   H816      1.0  0.78941  0.59203  0.79737  1.0000
  H   H817      1.0  0.75559  0.60638  0.79769  1.0000
  C   C812      1.0  0.76563  0.87332  0.84158  1.0000
  H   H818      1.0  0.74366  0.53096  0.87672  1.0000
  C   C813      1.0  0.77792  0.87001  0.49463  1.0000
  C   C814      1.0  0.89846  0.79547  0.49909  1.0000
  C   C815      1.0  0.81769  0.73786  0.64462  1.0000
  H   H819      1.0  0.74842  0.80535  0.73996  1.0000
  C   C816      1.0  0.93945  0.69121  0.94229  1.0000
  C   C817      1.0  0.92963  0.66448  0.93582  1.0000
  C   C818      1.0  0.91922  0.65295  0.89853  1.0000
  C   C819      1.0  0.91885  0.66808  0.86688  1.0000
  C   C820      1.0  0.92892  0.69484  0.87326  1.0000
  C   C821      1.0  0.93902  0.70633  0.91071  1.0000
  H   H820      1.0  0.82130  0.73050  0.67296  1.0000
  H   H821      1.0  0.91158  0.63237  0.89419  1.0000
  H   H822      1.0  0.92876  0.70677  0.84906  1.0000
  C   C822      1.0  0.84820  0.62524  0.94118  1.0000
  C   C823      1.0  0.84348  0.88753  0.84767  1.0000
  C   C824      1.0  0.72780  0.51962  0.76818  1.0000
  H   H823      1.0  0.83108  0.75884  0.64290  1.0000
  H   H824      1.0  0.79238  0.74824  0.70180  1.0000
  H   H825      1.0  0.76346  0.89020  0.97013  1.0000
  C   C825      1.0  0.77703  0.72488  0.60841  1.0000
  C   C826      1.0  0.88993  0.56684  0.53989  1.0000
  C   C827      1.0  0.86323  0.55760  0.54155  1.0000
  C   C828      1.0  0.85132  0.55876  0.57770  1.0000
  C   C829      1.0  0.86581  0.56915  0.61279  1.0000
  C   C830      1.0  0.89255  0.57882  0.61099  1.0000
  C   C831      1.0  0.90445  0.57760  0.57486  1.0000
  H   H826      1.0  0.85172  0.54924  0.51509  1.0000
  H   H827      1.0  0.83065  0.55136  0.57851  1.0000
  H   H828      1.0  0.90406  0.58712  0.63746  1.0000
  H   H829      1.0  0.92512  0.58500  0.57399  1.0000
  C   C832      1.0  0.89039  0.50359  0.82002  1.0000
  H   H830      1.0  0.82586  0.60429  0.84757  1.0000
  H   H831      1.0  0.82216  0.72796  0.61964  1.0000
  H   H832      1.0  0.92843  0.50716  0.82767  1.0000
  H   H833      1.0  0.84494  0.90691  0.90350  1.0000
  C   C833      1.0  0.84152  0.50213  0.67550  1.0000
  H   H834      1.0  0.76953  0.80300  0.67673  1.0000
  C   C834      1.0  0.73013  0.57659  0.83687  1.0000
  C   C835      1.0  0.83487  0.60804  0.91011  1.0000
  H   H835      1.0  0.76381  0.88739  0.82172  1.0000
  H   H836      1.0  0.81691  0.88349  0.51479  1.0000
  H   H837      1.0  0.94378  0.55124  0.66393  1.0000
  N   N70       1.0  0.79105  0.73375  0.64280  1.0000
  C   C836      1.0  0.88091  0.52054  0.63565  1.0000
  H   H838      1.0  0.79077  0.85966  0.78804  1.0000
  H   H839      1.0  0.74276  0.51369  0.77102  1.0000
  C   C837      1.0  0.83332  0.89676  0.87774  1.0000
  C   C838      1.0  0.72608  0.70902  0.96174  1.0000
  C   C839      1.0  0.91135  0.53532  0.70363  1.0000
  S   S282      1.0  0.81471  0.89304  0.97760  1.0000
  H   H840      1.0  0.82404  0.58748  0.91528  1.0000
  H   H841      1.0  0.74879  0.92357  0.97919  1.0000
  H   H842      1.0  0.74140  0.71591  0.57802  1.0000
  H   H843      1.0  0.86529  0.83070  0.98471  1.0000
  C   C840      1.0  0.74186  0.72952  0.63822  1.0000
  H   H844      1.0  0.83566  0.86671  0.79161  1.0000
  C   C841      1.0  0.83576  0.61745  0.87196  1.0000
  C   C842      1.0  0.72699  0.55542  0.85935  1.0000
  C   C843      1.0  0.90802  0.49407  0.82762  1.0000
  C   C844      1.0  0.90772  0.53321  0.63202  1.0000
  H   H845      1.0  0.78517  0.72011  0.58250  1.0000
  C   C845      1.0  0.80769  0.89207  0.87518  1.0000
  H   H846      1.0  0.74879  0.74470  0.69840  1.0000
  H   H847      1.0  0.82964  0.92958  0.50215  1.0000
  S   S283      1.0  0.75453  0.83025  0.92953  1.0000
  C   C846      1.0  0.88450  0.52225  0.70614  1.0000
  C   C847      1.0  0.80291  0.88900  0.50346  1.0000
  C   C848      1.0  0.78089  0.74029  0.67506  1.0000
  H   H848      1.0  0.87567  0.51816  0.73533  1.0000
  C   C849      1.0  0.80267  0.87017  0.81332  1.0000
  C   C850      1.0  0.75219  0.72247  0.60570  1.0000
  C   C851      1.0  0.86277  0.66046  0.89697  1.0000
  N   N71       1.0  0.86203  0.65107  0.93430  1.0000
  H   H849      1.0  0.94650  0.72689  0.91507  1.0000
  S   S284      1.0  0.76885  0.83659  0.49723  1.0000
  S   S285      1.0  0.76746  0.72005  0.50277  1.0000
  C   C852      1.0  0.91712  0.78661  0.49676  1.0000
  H   H850      1.0  0.87931  0.78289  0.50969  1.0000
  H   H851      1.0  0.88919  0.68821  0.95714  1.0000
  C   C853      1.0  0.76676  0.80509  0.74099  1.0000
  H   H852      1.0  0.86313  0.89046  0.84984  1.0000
  H   H853      1.0  0.75057  0.55188  0.73098  1.0000
  N   N72       1.0  0.79257  0.87842  0.84367  1.0000
  C   C854      1.0  0.73224  0.54116  0.74583  1.0000
  H   H854      1.0  0.83444  0.51673  0.67402  1.0000
  H   H855      1.0  0.75327  0.85345  0.82999  1.0000
  H   H856      1.0  0.92295  0.54134  0.73060  1.0000
  C   C855      1.0  0.81008  0.91513  0.49618  1.0000
  C   C856      1.0  0.82812  0.87423  0.81508  1.0000
  C   C857      1.0  0.84979  0.64379  0.86524  1.0000
  H   H857      1.0  0.91207  0.76719  0.50570  1.0000
  H   H858      1.0  0.92987  0.65254  0.95993  1.0000
  C   C858      1.0  0.75039  0.71018  0.96327  1.0000
  Fe  Fe144     1.0  0.74601  0.79767  0.97206  1.0000
  H   H859      1.0  0.91650  0.53784  0.60276  1.0000
  C   C859      1.0  0.92299  0.54081  0.66629  1.0000
  S   S286      1.0  0.90603  0.56403  0.49613  1.0000
  C   C860      1.0  0.90456  0.82047  0.48733  1.0000
  S   S287      1.0  0.88157  0.83235  0.48870  1.0000
  H   H860      1.0  0.75597  0.70009  0.94109  1.0000
  H   H861      1.0  0.83255  0.48791  0.65086  1.0000
  H   H862      1.0  0.83504  0.49167  0.70401  1.0000
  C   C861      1.0  0.87536  0.66870  0.96758  1.0000
  C   C862      1.0  0.86405  0.48650  0.81998  1.0000
  S   S288      1.0  0.82157  0.77893  0.97528  1.0000
  H   H863      1.0  0.88681  0.66150  0.98492  1.0000
  H   H864      1.0  0.90416  0.48379  0.92238  1.0000
  C   C863      1.0  0.80301  0.91597  0.98441  1.0000
  C   C864      1.0  0.76887  0.92869  0.98368  1.0000
