data_image0
_chemical_formula_structural       FeS3HFeCFeCS2CFeS2FeS2HCHFeSNHNHCHC6H4SHC8H7CHCHC2H3NC6H6CH3SHCHCSHNCSH2CH2CHCHSFeCFeH2CH3FeS2FeSFeSFeS3FeS2FeSFeSFeS2FeHSFeSC2HS2CHSC2SFeSNSC3HNCH2C8H4C5H3C6H4C6H6CH2C3H3CHNHSCH2NC6H3CH4C3H5CH3C2HFeCH3SHNHCH3SHCFeH2C2HCHC2FeC2FeS2FeSFeSFeS3NCFeS2FeSHSCHSHSHSFeSCFeSFeHSCHCS2FeC7NH4C6H3CNCHC7H4C6H5CHNC6H11NC5HC2H2CHCHC2HCHCH2CFeH5CSFeHCHCSHSHC3H3C3HNSHFeS2FeCFeHS2FeS2CFeS2H2CHNH2C5HC7H4CHCFeHFeC2HC6H5C2NHCSCH3CH2CHCH2CHC2H2CH3CSC2H2CH3C2SCSFeSFeCHFeSFeSFeSCFeS2FeSHFeSFeS3FeS2FeS2FeSFeS3C2HC6H7C6H3C7H4C3H3SC7H5CNCH3C2H4SCNHSFeCSHCH2C3SNH3SC2NCNC6H2NH2C3SH6C2H3SH2SH3CH2C2HCSC2HC2HC2HFeC2H4CH2C2H3C2H2CHC2H2CHC2H2SHNHFeCH2CFeS2FeS2FeSFeS3C6H4C7H2CHC3NHC6SH3C6H4CSNC6H5NHC2H2SNH2C2H6C2HCHC4H2CH6NCH2CH2C2H2C2H2S2HFeS2FeS2FeSFeS3C6H7C2HC2HCNHNC7H4C6H4C2H3CH2CHNH2C2HCH2C4HCH2C2H3C2HCHC3HCH3C2HCHCH3S2FeSFeS2Fe2SFeS2FeS2FeSFeS3FeS2FeS2FeCFeS3HC6H7C6H4C6H4C4H2N2HC6H7NCH3CHSN2CHNC6H4CH3CHC3FeC2H5CNC3H2C4HCH2C2H4CSCH2CHCS2HFeC2HCHCH4SCSCHC3HC3H2C4H3CH3CNH5FeS2FeSCFeSFeS3HCHSHCH2C3SHSCH5C2HC2H2C3H3C7H4CHC4H2CHCNSC2SC2H2FeCH4CSHC3SH2CH2CHNC4H4FeHNH4SHSFeS2FeS2FeSFeS3FeSHFeS2Fe2S3HSFeSC4HC4HCH3C3HCSCH2C6H4C6H4CNC6H5CHC3HSH2CSCNH2CNHC2H4CSHNCH3CH2CH2CNHC2H2CHCHCH2CHC3HSFeH4SCHCHC2NFeS2FeS2FeSFeS3HFeS2FeSH2SCHSCHSHCHCH2C6H2NHC2SC2SC6H2C6H6C2H3C2H3CH4NH2CHSC2HC3FeSCHC2H4C2HCNFeCH2C3HFeCH2CH2SCHCHFeHNHC2H6FeS2FeS2FeHFeS3HFeCSHCHSNHSHNC8H4C2H3C3HC6H4C6HCH2SHCSH4C3H2C2HCSH3CHC5H4NSHFeHC3H5CFeSH4CH
_chemical_formula_sum              "Fe112 S224 H672 C672 N56"
_cell_length_a       49.2666
_cell_length_b       36.049
_cell_length_c       44.7508
_cell_angle_alpha    90.4375
_cell_angle_beta     112.63
_cell_angle_gamma    90.6079

_space_group_name_H-M_alt    "P 1"
_space_group_IT_number       1

loop_
  _space_group_symop_operation_xyz
  'x, y, z'

loop_
  _atom_site_type_symbol
  _atom_site_label
  _atom_site_symmetry_multiplicity
  _atom_site_fract_x
  _atom_site_fract_y
  _atom_site_fract_z
  _atom_site_occupancy
  Fe  Fe1       1.0  0.26492  0.14836  0.37202  1.0000
  S   S1        1.0  0.26444  0.08777  0.35909  1.0000
  S   S2        1.0  0.22563  0.18373  0.36957  1.0000
  S   S3        1.0  0.13153  0.50295  0.41514  1.0000
  H   H1        1.0  0.17534  0.11538  0.36923  1.0000
  Fe  Fe2       1.0  0.30128  0.10298  0.34293  1.0000
  C   C1        1.0  0.19674  0.49776  0.01126  1.0000
  Fe  Fe3       1.0  0.29993  0.08127  0.40877  1.0000
  C   C2        1.0  0.30464  0.05922  0.16002  1.0000
  S   S4        1.0  0.29949  0.16432  0.35225  1.0000
  S   S5        1.0  0.29804  0.14045  0.42315  1.0000
  C   C3        1.0  0.31737  0.02843  0.48139  1.0000
  Fe  Fe4       1.0  0.05132  0.21347  0.28063  1.0000
  S   S6        1.0  0.03285  0.20816  0.31926  1.0000
  S   S7        1.0  0.08927  0.18016  0.27680  1.0000
  Fe  Fe5       1.0  0.03102  0.27070  0.31730  1.0000
  S   S8        1.0  0.04946  0.30863  0.36126  1.0000
  S   S9        1.0  0.05176  0.27557  0.28075  1.0000
  H   H2        1.0  0.30555  0.08685  0.17021  1.0000
  C   C4        1.0  0.24153  0.07837  0.44120  1.0000
  H   H3        1.0  0.26019  0.06767  0.46127  1.0000
  Fe  Fe6       1.0  0.00518  0.27244  0.24476  1.0000
  S   S10       1.0  0.10863  0.45123  0.32899  1.0000
  N   N1        1.0  0.20634  0.07187  0.38647  1.0000
  H   H4        1.0  0.23970  0.12925  0.46590  1.0000
  N   N2        1.0  0.03141  0.49106  0.29550  1.0000
  H   H5        1.0  0.13464  0.32310  0.48962  1.0000
  C   C5        1.0  0.30671  0.01949  0.11840  1.0000
  H   H6        1.0  0.31570  0.14369  0.27808  1.0000
  C   C6        1.0  0.06412  0.35022  0.35282  1.0000
  C   C7        1.0  0.08311  0.37279  0.37809  1.0000
  C   C8        1.0  0.09638  0.40466  0.37124  1.0000
  C   C9        1.0  0.09087  0.41368  0.33907  1.0000
  C   C10       1.0  0.07159  0.39143  0.31396  1.0000
  C   C11       1.0  0.05780  0.36036  0.32080  1.0000
  H   H7        1.0  0.08792  0.36526  0.40295  1.0000
  H   H8        1.0  0.11138  0.42161  0.39078  1.0000
  H   H9        1.0  0.06736  0.39804  0.28904  1.0000
  H   H10       1.0  0.04210  0.34438  0.30118  1.0000
  S   S11       1.0  0.18564  0.49270  0.38923  1.0000
  H   H11       1.0  0.16986  0.35963  0.36776  1.0000
  C   C12       1.0  0.17361  0.48244  0.08619  1.0000
  C   C13       1.0  0.22936  0.05810  0.41217  1.0000
  C   C14       1.0  0.18768  0.18091  0.34402  1.0000
  C   C15       1.0  0.16743  0.20110  0.35267  1.0000
  C   C16       1.0  0.13717  0.20058  0.33281  1.0000
  C   C17       1.0  0.12680  0.17989  0.30391  1.0000
  C   C18       1.0  0.14699  0.15910  0.29562  1.0000
  C   C19       1.0  0.17724  0.15953  0.31554  1.0000
  H   H12       1.0  0.17523  0.21764  0.37471  1.0000
  H   H13       1.0  0.12193  0.21665  0.33955  1.0000
  H   H14       1.0  0.13920  0.14301  0.27332  1.0000
  H   H15       1.0  0.19251  0.14389  0.30851  1.0000
  H   H16       1.0  0.09284  0.28160  0.48541  1.0000
  H   H17       1.0  0.20406  0.49491  0.14760  1.0000
  H   H18       1.0  0.13209  0.34686  0.35847  1.0000
  C   C20       1.0  0.00852  0.48869  0.30557  1.0000
  H   H19       1.0  0.21080  0.03220  0.35295  1.0000
  C   C21       1.0  0.32641  0.12313  0.26883  1.0000
  H   H20       1.0  0.29776  0.03283  0.19976  1.0000
  C   C22       1.0  0.20583  0.12600  0.41789  1.0000
  C   C23       1.0  0.19400  0.10482  0.38935  1.0000
  H   H21       1.0  0.19685  0.15299  0.41939  1.0000
  H   H22       1.0  0.14152  0.37856  0.33274  1.0000
  H   H23       1.0  0.02421  0.43887  0.27118  1.0000
  N   N3        1.0  0.15030  0.32187  0.32747  1.0000
  C   C24       1.0  0.12548  0.31040  0.30208  1.0000
  C   C25       1.0  0.17639  0.30413  0.33404  1.0000
  C   C26       1.0  0.12632  0.28033  0.28248  1.0000
  C   C27       1.0  0.17806  0.27416  0.31478  1.0000
  C   C28       1.0  0.15283  0.26230  0.28882  1.0000
  C   C29       1.0  0.14848  0.35320  0.34766  1.0000
  H   H24       1.0  0.10479  0.32435  0.29713  1.0000
  H   H25       1.0  0.19604  0.31280  0.35441  1.0000
  H   H26       1.0  0.10644  0.27051  0.26289  1.0000
  H   H27       1.0  0.19858  0.25949  0.32050  1.0000
  H   H28       1.0  0.15359  0.23840  0.27425  1.0000
  H   H29       1.0  0.15504  0.45178  0.04090  1.0000
  C   C30       1.0  0.31332  0.08663  0.11450  1.0000
  H   H30       1.0  0.22829  0.47371  0.05448  1.0000
  H   H31       1.0  0.01810  0.05052  0.00319  1.0000
  H   H32       1.0  0.32700  0.10807  0.13202  1.0000
  S   S12       1.0  0.00630  0.21048  0.24029  1.0000
  H   H33       1.0  0.17498  0.03362  0.35541  1.0000
  C   C31       1.0  0.21640  0.49851  0.04393  1.0000
  H   H34       1.0  0.01524  0.47870  0.24521  1.0000
  C   C32       1.0  0.32634  0.08604  0.27773  1.0000
  S   S13       1.0  0.21261  0.48920  0.48499  1.0000
  H   H35       1.0  0.12375  0.50373  0.01153  1.0000
  N   N4        1.0  0.30847  0.05428  0.13155  1.0000
  C   C33       1.0  0.22992  0.11278  0.44386  1.0000
  S   S14       1.0  0.30728  0.07101  0.30197  1.0000
  H   H36       1.0  0.18805  0.46008  0.09843  1.0000
  H   H37       1.0  0.01960  0.01786  0.05263  1.0000
  C   C34       1.0  0.03105  0.46765  0.26844  1.0000
  H   H38       1.0  0.32097  0.08766  0.48856  1.0000
  H   H39       1.0  0.32542  0.07899  0.09890  1.0000
  C   C35       1.0  0.19406  0.05070  0.35597  1.0000
  H   H40       1.0  0.18684  0.06969  0.33492  1.0000
  C   C36       1.0  0.15485  0.47746  0.05368  1.0000
  H   H41       1.0  0.30926  0.01554  0.09557  1.0000
  S   S15       1.0  0.30186  0.02967  0.43853  1.0000
  Fe  Fe7       1.0  0.13619  0.49133  0.36805  1.0000
  C   C37       1.0  0.30017  0.02874  0.17683  1.0000
  Fe  Fe8       1.0  0.33211  0.15179  0.40233  1.0000
  H   H42       1.0  0.23887  0.03163  0.41019  1.0000
  H   H43       1.0  0.29193  0.09877  0.09918  1.0000
  C   C38       1.0  0.32489  0.06094  0.50018  1.0000
  H   H44       1.0  0.05322  0.46597  0.26746  1.0000
  H   H45       1.0  0.15856  0.46152  0.49094  1.0000
  H   H46       1.0  0.05642  0.00397  0.48007  1.0000
  Fe  Fe9       1.0  0.22488  0.30526  0.68321  1.0000
  S   S16       1.0  0.20412  0.36078  0.67955  1.0000
  S   S17       1.0  0.19939  0.25693  0.69167  1.0000
  Fe  Fe10      1.0  0.28209  0.33815  0.68311  1.0000
  S   S18       1.0  0.26520  0.39671  0.67955  1.0000
  Fe  Fe11      1.0  0.24753  0.37874  0.71690  1.0000
  S   S19       1.0  0.25063  0.41509  0.75979  1.0000
  Fe  Fe12      1.0  0.22307  0.37357  0.64218  1.0000
  S   S20       1.0  0.19001  0.39948  0.59624  1.0000
  S   S21       1.0  0.26757  0.32233  0.72320  1.0000
  S   S22       1.0  0.24069  0.31595  0.64316  1.0000
  Fe  Fe13      1.0  0.16318  0.40348  0.87525  1.0000
  S   S23       1.0  0.11593  0.41628  0.84740  1.0000
  S   S24       1.0  0.18123  0.36424  0.84749  1.0000
  Fe  Fe14      1.0  0.16239  0.44497  0.93537  1.0000
  S   S25       1.0  0.11454  0.46023  0.91068  1.0000
  Fe  Fe15      1.0  0.10784  0.40123  0.89165  1.0000
  S   S26       1.0  0.06645  0.36576  0.88031  1.0000
  Fe  Fe16      1.0  0.12707  0.47347  0.86853  1.0000
  S   S27       1.0  0.15456  0.38475  0.91875  1.0000
  S   S28       1.0  0.17530  0.46191  0.89393  1.0000
  Fe  Fe17      1.0  0.06010  0.14871  0.59420  1.0000
  H   H47       1.0  0.16891  0.34603  0.54370  1.0000
  S   S29       1.0  0.09453  0.17641  0.57972  1.0000
  Fe  Fe18      1.0  0.04729  0.11794  0.65065  1.0000
  S   S30       1.0  0.06856  0.12026  0.70561  1.0000
  C   C39       1.0  0.12179  0.29463  0.56615  1.0000
  C   C40       1.0  0.03542  0.01258  0.51394  1.0000
  H   H48       1.0  0.11844  0.28672  0.58785  1.0000
  S   S31       1.0  0.06834  0.09330  0.61847  1.0000
  S   S32       1.0  0.04304  0.17449  0.62901  1.0000
  C   C41       1.0  0.03948  0.47878  0.81872  1.0000
  H   H49       1.0  0.14245  0.39996  0.76005  1.0000
  S   S33       1.0  0.04145  0.09786  0.89420  1.0000
  C   C42       1.0  0.10758  0.29180  0.50906  1.0000
  C   C43       1.0  0.32602  0.40002  0.76745  1.0000
  S   S34       1.0  0.00971  0.02059  0.55965  1.0000
  Fe  Fe19      1.0  0.03166  0.15672  0.90479  1.0000
  S   S35       1.0  0.06881  0.19902  0.92777  1.0000
  N   N5        1.0  0.15992  0.13776  0.67939  1.0000
  S   S36       1.0  0.32712  0.32860  0.68093  1.0000
  C   C44       1.0  0.04823  0.11143  0.73007  1.0000
  C   C45       1.0  0.05917  0.12426  0.76237  1.0000
  C   C46       1.0  0.04374  0.11702  0.78257  1.0000
  H   H50       1.0  0.15978  0.38880  0.71563  1.0000
  N   N6        1.0  0.02585  0.48179  0.78584  1.0000
  C   C47       1.0  0.15042  0.32802  0.54158  1.0000
  H   H51       1.0  0.07976  0.13963  0.77192  1.0000
  H   H52       1.0  0.05248  0.12662  0.80749  1.0000
  C   C48       1.0  0.17609  0.48211  0.76241  1.0000
  C   C49       1.0  0.01743  0.09639  0.77070  1.0000
  C   C50       1.0  0.06729  0.31973  0.89425  1.0000
  C   C51       1.0  0.04269  0.29625  0.87939  1.0000
  C   C52       1.0  0.04267  0.25936  0.88960  1.0000
  C   C53       1.0  0.06712  0.24577  0.91513  1.0000
  C   C54       1.0  0.09151  0.26950  0.93031  1.0000
  C   C55       1.0  0.09176  0.30616  0.91971  1.0000
  H   H53       1.0  0.02363  0.30654  0.85973  1.0000
  H   H54       1.0  0.02377  0.24146  0.87774  1.0000
  H   H55       1.0  0.11047  0.25931  0.95019  1.0000
  H   H56       1.0  0.11072  0.32404  0.93158  1.0000
  C   C56       1.0  0.19123  0.17310  0.72586  1.0000
  C   C57       1.0  0.18624  0.47649  0.73752  1.0000
  C   C58       1.0  0.17286  0.43415  0.53733  1.0000
  C   C59       1.0  0.19688  0.42356  0.56523  1.0000
  C   C60       1.0  0.22535  0.43258  0.56774  1.0000
  H   H57       1.0  0.17544  0.17960  0.76427  1.0000
  H   H58       1.0  0.15074  0.42732  0.53514  1.0000
  H   H59       1.0  0.24404  0.42462  0.58900  1.0000
  C   C61       1.0  0.23224  0.40023  0.78489  1.0000
  C   C62       1.0  0.23066  0.42425  0.80905  1.0000
  C   C63       1.0  0.21513  0.41370  0.82843  1.0000
  C   C64       1.0  0.20131  0.37880  0.82403  1.0000
  C   C65       1.0  0.20329  0.35461  0.80018  1.0000
  C   C66       1.0  0.21848  0.36532  0.78056  1.0000
  H   H60       1.0  0.24137  0.45121  0.81271  1.0000
  H   H61       1.0  0.21415  0.43241  0.84700  1.0000
  H   H62       1.0  0.19287  0.32747  0.79670  1.0000
  H   H63       1.0  0.21959  0.34648  0.76212  1.0000
  C   C67       1.0  0.16851  0.24014  0.65887  1.0000
  C   C68       1.0  0.14409  0.22716  0.66463  1.0000
  C   C69       1.0  0.12094  0.20842  0.64020  1.0000
  C   C70       1.0  0.12211  0.20247  0.60985  1.0000
  C   C71       1.0  0.14618  0.21632  0.60375  1.0000
  C   C72       1.0  0.16930  0.23538  0.62817  1.0000
  H   H64       1.0  0.14345  0.23069  0.68839  1.0000
  H   H65       1.0  0.10262  0.19776  0.64523  1.0000
  H   H66       1.0  0.14730  0.21155  0.58034  1.0000
  H   H67       1.0  0.18830  0.24488  0.62372  1.0000
  H   H68       1.0  0.19947  0.49758  0.73209  1.0000
  H   H69       1.0  0.25182  0.45946  0.54516  1.0000
  C   C73       1.0  0.14575  0.31771  0.56924  1.0000
  H   H70       1.0  0.01181  0.27152  0.69343  1.0000
  H   H71       1.0  0.04583  0.03937  0.52221  1.0000
  C   C74       1.0  0.15425  0.42185  0.75339  1.0000
  C   C75       1.0  0.17722  0.45362  0.51224  1.0000
  C   C76       1.0  0.17128  0.16739  0.74066  1.0000
  H   H72       1.0  0.15428  0.43608  0.81206  1.0000
  H   H73       1.0  0.18860  0.43781  0.70169  1.0000
  H   H74       1.0  0.04613  0.44472  0.86046  1.0000
  C   C77       1.0  0.15002  0.46079  0.79633  1.0000
  H   H75       1.0  0.16066  0.32762  0.59294  1.0000
  N   N7        1.0  0.16057  0.45478  0.77023  1.0000
  H   H76       1.0  0.13004  0.12203  0.63199  1.0000
  S   S37       1.0  0.00562  0.02320  0.93651  1.0000
  C   C78       1.0  0.18530  0.15772  0.69516  1.0000
  H   H77       1.0  0.18860  0.25751  0.92861  1.0000
  H   H78       1.0  0.20060  0.16326  0.68353  1.0000
  N   N8        1.0  0.12508  0.28012  0.86746  1.0000
  C   C79       1.0  0.10835  0.24943  0.86712  1.0000
  C   C80       1.0  0.15363  0.28302  0.88901  1.0000
  C   C81       1.0  0.12021  0.22053  0.88876  1.0000
  C   C82       1.0  0.16610  0.25480  0.91121  1.0000
  C   C83       1.0  0.14918  0.22343  0.91110  1.0000
  C   C84       1.0  0.11237  0.31095  0.84558  1.0000
  H   H79       1.0  0.08541  0.24755  0.85084  1.0000
  H   H80       1.0  0.16681  0.30752  0.88932  1.0000
  H   H81       1.0  0.10659  0.19673  0.88910  1.0000
  C   C85       1.0  0.22969  0.45235  0.54281  1.0000
  H   H82       1.0  0.15826  0.20163  0.92859  1.0000
  H   H83       1.0  0.11129  0.33569  0.85995  1.0000
  H   H84       1.0  0.12625  0.31793  0.83177  1.0000
  H   H85       1.0  0.08967  0.30457  0.82812  1.0000
  C   C86       1.0  0.14045  0.13149  0.69396  1.0000
  C   C87       1.0  0.14579  0.14628  0.72474  1.0000
  C   C88       1.0  0.15399  0.12198  0.64715  1.0000
  H   H86       1.0  0.12041  0.11541  0.68171  1.0000
  H   H87       1.0  0.13005  0.14161  0.73595  1.0000
  H   H88       1.0  0.16471  0.13881  0.63391  1.0000
  H   H89       1.0  0.31606  0.37193  0.76583  1.0000
  H   H90       1.0  0.16133  0.48473  0.81225  1.0000
  C   C89       1.0  0.03502  0.44727  0.83441  1.0000
  H   H91       1.0  0.21075  0.19034  0.73755  1.0000
  H   H92       1.0  0.33262  0.41088  0.71148  1.0000
  H   H93       1.0  0.16206  0.09311  0.64928  1.0000
  C   C90       1.0  0.02168  0.09141  0.71807  1.0000
  C   C91       1.0  0.16388  0.41541  0.72821  1.0000
  H   H94       1.0  0.03785  0.21255  0.69316  1.0000
  Fe  Fe20      1.0  0.02238  0.07864  0.58347  1.0000
  C   C92       1.0  0.20572  0.46299  0.51494  1.0000
  H   H95       1.0  0.05767  0.26699  0.51480  1.0000
  H   H96       1.0  0.01327  0.08084  0.69345  1.0000
  H   H97       1.0  0.07540  0.25403  0.55645  1.0000
  S   S38       1.0  0.01524  0.13314  0.55728  1.0000
  H   H98       1.0  0.01243  0.30860  0.62404  1.0000
  N   N9        1.0  0.10310  0.28196  0.53631  1.0000
  H   H99       1.0  0.30963  0.41803  0.74953  1.0000
  C   C93       1.0  0.18004  0.44292  0.72034  1.0000
  H   H100      1.0  0.12603  0.46619  0.78604  1.0000
  H   H101      1.0  0.33020  0.41213  0.79176  1.0000
  H   H102      1.0  0.31947  0.02583  0.92496  1.0000
  S   S39       1.0  0.19019  0.45514  0.98914  1.0000
  H   H103      1.0  0.05401  0.50077  0.83298  1.0000
  C   C94       1.0  0.01425  0.21250  0.68672  1.0000
  Fe  Fe21      1.0  0.00687  0.08032  0.91335  1.0000
  H   H104      1.0  0.00938  0.15416  0.67617  1.0000
  H   H105      1.0  0.01285  0.39428  0.82823  1.0000
  C   C95       1.0  0.07856  0.25679  0.53324  1.0000
  C   C96       1.0  0.13120  0.31512  0.51126  1.0000
  H   H106      1.0  0.08290  0.22858  0.52601  1.0000
  C   C97       1.0  0.01636  0.41888  0.81626  1.0000
  H   H107      1.0  0.00830  0.24235  0.60731  1.0000
  C   C98       1.0  0.00769  0.45392  0.76780  1.0000
  C   C99       1.0  0.00647  0.08381  0.73834  1.0000
  Fe  Fe22      1.0  0.00480  0.10637  0.84566  1.0000
  C   C100      1.0  0.01423  0.02087  0.00239  1.0000
  C   C101      1.0  0.05378  0.51624  0.30959  1.0000
  Fe  Fe23      1.0  0.22047  0.67623  0.17350  1.0000
  S   S40       1.0  0.19960  0.62087  0.15532  1.0000
  S   S41       1.0  0.19684  0.72491  0.18428  1.0000
  Fe  Fe24      1.0  0.28267  0.64911  0.18538  1.0000
  S   S42       1.0  0.26643  0.59051  0.16809  1.0000
  Fe  Fe25      1.0  0.22924  0.61766  0.12768  1.0000
  S   S43       1.0  0.20675  0.60357  0.07361  1.0000
  Fe  Fe26      1.0  0.23750  0.59744  0.19678  1.0000
  S   S44       1.0  0.22277  0.55212  0.22260  1.0000
  S   S45       1.0  0.24724  0.67570  0.14286  1.0000
  S   S46       1.0  0.25647  0.65316  0.21702  1.0000
  N   N10       1.0  0.17471  0.51560  0.10176  1.0000
  C   C102      1.0  0.32259  0.99394  0.49694  1.0000
  Fe  Fe27      1.0  0.13105  0.56302  0.40141  1.0000
  S   S47       1.0  0.17999  0.57040  0.42518  1.0000
  S   S48       1.0  0.09503  0.59686  0.40788  1.0000
  Fe  Fe28      1.0  0.18098  0.55326  0.37695  1.0000
  S   S49       1.0  0.20838  0.58710  0.35562  1.0000
  H   H108      1.0  0.08016  0.81022  0.02979  1.0000
  S   S50       1.0  0.13187  0.55079  0.35257  1.0000
  C   C103      1.0  0.12440  0.56494  0.48783  1.0000
  H   H109      1.0  0.18541  0.52664  0.30789  1.0000
  S   S51       1.0  0.04558  0.86008  0.38909  1.0000
  H   H110      1.0  0.21856  0.70894  0.25407  1.0000
  S   S52       1.0  0.03697  0.81917  0.44971  1.0000
  H   H111      1.0  0.01832  0.78498  0.20381  1.0000
  S   S53       1.0  0.03847  0.93202  0.45033  1.0000
  Fe  Fe29      1.0  0.05289  0.80298  0.41066  1.0000
  S   S54       1.0  0.09559  0.77303  0.41961  1.0000
  C   C104      1.0  0.00892  0.94276  0.49212  1.0000
  Fe  Fe30      1.0  0.03075  0.84819  0.15694  1.0000
  S   S55       1.0  0.05062  0.85548  0.21180  1.0000
  Fe  Fe31      1.0  0.04246  0.80862  0.10235  1.0000
  H   H112      1.0  0.23539  0.53091  0.08833  1.0000
  S   S56       1.0  0.07047  0.77100  0.08583  1.0000
  C   C105      1.0  0.17898  0.63805  0.48756  1.0000
  H   H113      1.0  0.11703  0.81969  0.08130  1.0000
  C   C106      1.0  0.05381  0.53947  0.33480  1.0000
  S   S57       1.0  0.05521  0.86486  0.12556  1.0000
  S   S58       1.0  0.02240  0.79012  0.13693  1.0000
  Fe  Fe32      1.0  0.02550  0.87461  0.42542  1.0000
  C   C107      1.0  0.18583  0.56250  0.01708  1.0000
  C   C108      1.0  0.06775  0.83564  0.03038  1.0000
  C   C109      1.0  0.13863  0.54042  0.05318  1.0000
  C   C110      1.0  0.32969  0.98186  0.01558  1.0000
  C   C111      1.0  0.02927  0.84435  0.29052  1.0000
  C   C112      1.0  0.04481  0.84640  0.26993  1.0000
  C   C113      1.0  0.03005  0.85260  0.23662  1.0000
  N   N11       1.0  0.02158  0.94298  0.31309  1.0000
  H   H114      1.0  0.21501  0.53793  0.13493  1.0000
  H   H115      1.0  0.04092  0.83950  0.31612  1.0000
  H   H116      1.0  0.06843  0.84304  0.27987  1.0000
  H   H117      1.0  0.03584  0.96944  0.27937  1.0000
  C   C114      1.0  0.09513  0.64597  0.40901  1.0000
  C   C115      1.0  0.07052  0.66407  0.41035  1.0000
  C   C116      1.0  0.07023  0.70298  0.41297  1.0000
  C   C117      1.0  0.09477  0.72416  0.41475  1.0000
  C   C118      1.0  0.11947  0.70603  0.41353  1.0000
  C   C119      1.0  0.11958  0.66709  0.41037  1.0000
  H   H118      1.0  0.05158  0.64798  0.40954  1.0000
  H   H119      1.0  0.05119  0.71655  0.41417  1.0000
  H   H120      1.0  0.13852  0.72225  0.41488  1.0000
  C   C120      1.0  0.20483  0.56295  0.04998  1.0000
  N   N12       1.0  0.15229  0.58394  0.49285  1.0000
  C   C121      1.0  0.29941  0.99306  0.16420  1.0000
  H   H121      1.0  0.12497  0.92292  0.13252  1.0000
  C   C122      1.0  0.03141  0.94109  0.28607  1.0000
  C   C123      1.0  0.22054  0.56062  0.26071  1.0000
  C   C124      1.0  0.20296  0.53721  0.27112  1.0000
  C   C125      1.0  0.19948  0.54438  0.30048  1.0000
  C   C126      1.0  0.21411  0.57463  0.32006  1.0000
  C   C127      1.0  0.23242  0.59728  0.31011  1.0000
  C   C128      1.0  0.23534  0.59063  0.28044  1.0000
  H   H122      1.0  0.04863  0.96009  0.39393  1.0000
  H   H123      1.0  0.30206  0.96074  0.12461  1.0000
  H   H124      1.0  0.24398  0.62060  0.32516  1.0000
  H   H125      1.0  0.24920  0.60863  0.27296  1.0000
  C   C129      1.0  0.10488  0.75708  0.11405  1.0000
  C   C130      1.0  0.12067  0.73016  0.10490  1.0000
  C   C131      1.0  0.14876  0.71964  0.12640  1.0000
  C   C132      1.0  0.16133  0.73644  0.15702  1.0000
  C   C133      1.0  0.14555  0.76342  0.16614  1.0000
  C   C134      1.0  0.11732  0.77363  0.14478  1.0000
  H   H126      1.0  0.11119  0.71745  0.08106  1.0000
  H   H127      1.0  0.16086  0.69899  0.11911  1.0000
  H   H128      1.0  0.15523  0.77651  0.18981  1.0000
  H   H129      1.0  0.10534  0.79452  0.15197  1.0000
  H   H130      1.0  0.03109  0.55445  0.36551  1.0000
  C   C135      1.0  0.13733  0.50671  0.03713  1.0000
  H   H131      1.0  0.15968  0.57136  0.09742  1.0000
  N   N13       1.0  0.17244  0.63660  0.24824  1.0000
  C   C136      1.0  0.17063  0.63925  0.27795  1.0000
  C   C137      1.0  0.18906  0.66158  0.23953  1.0000
  C   C138      1.0  0.18659  0.66670  0.30025  1.0000
  C   C139      1.0  0.20517  0.68950  0.26113  1.0000
  C   C140      1.0  0.20402  0.69190  0.29174  1.0000
  C   C141      1.0  0.15572  0.60771  0.22504  1.0000
  H   H132      1.0  0.15788  0.61913  0.28519  1.0000
  H   H133      1.0  0.19022  0.65974  0.21586  1.0000
  H   H134      1.0  0.18618  0.66749  0.32434  1.0000
  H   H135      1.0  0.05378  0.90388  0.04114  1.0000
  H   H136      1.0  0.15125  0.58333  0.23760  1.0000
  H   H137      1.0  0.13466  0.61908  0.20799  1.0000
  H   H138      1.0  0.16856  0.59731  0.21103  1.0000
  H   H139      1.0  0.07194  0.51818  0.30162  1.0000
  H   H140      1.0  0.07965  0.94491  0.08804  1.0000
  H   H141      1.0  0.07147  0.55949  0.34593  1.0000
  H   H142      1.0  0.13869  0.65346  0.40940  1.0000
  N   N14       1.0  0.08428  0.85986  0.05803  1.0000
  C   C142      1.0  0.07390  0.89447  0.05989  1.0000
  C   C143      1.0  0.10912  0.84747  0.08233  1.0000
  C   C144      1.0  0.08857  0.91787  0.08642  1.0000
  C   C145      1.0  0.12422  0.86997  0.10940  1.0000
  C   C146      1.0  0.11387  0.90544  0.11137  1.0000
  H   H143      1.0  0.21683  0.71302  0.30893  1.0000
  C   C147      1.0  0.04157  0.95140  0.34353  1.0000
  C   C148      1.0  0.19589  0.52146  0.13509  1.0000
  H   H144      1.0  0.17893  0.66662  0.48003  1.0000
  H   H145      1.0  0.19159  0.51375  0.25615  1.0000
  C   C149      1.0  0.15764  0.54445  0.08566  1.0000
  H   H146      1.0  0.04688  0.82639  0.03230  1.0000
  C   C150      1.0  0.03072  0.72786  0.20927  1.0000
  H   H147      1.0  0.13224  0.63550  0.47412  1.0000
  C   C151      1.0  0.00803  0.51122  0.33098  1.0000
  C   C152      1.0  0.02067  0.69109  0.20495  1.0000
  H   H148      1.0  0.12615  0.56391  0.04018  1.0000
  C   C153      1.0  0.02837  0.95721  0.47903  1.0000
  H   H149      1.0  0.06458  0.95575  0.34779  1.0000
  C   C154      1.0  0.03094  0.53671  0.34571  1.0000
  H   H150      1.0  0.11830  0.54606  0.46644  1.0000
  H   H151      1.0  0.05167  0.92434  0.29273  1.0000
  C   C155      1.0  0.22042  0.53088  0.06322  1.0000
  Fe  Fe33      1.0  0.01155  0.88349  0.08881  1.0000
  H   H152      1.0  0.14341  0.85951  0.12898  1.0000
  H   H153      1.0  0.31668  0.96863  0.48258  1.0000
  H   H154      1.0  0.08260  0.87245  0.50078  1.0000
  H   H155      1.0  0.05410  0.73432  0.21869  1.0000
  H   H156      1.0  0.06268  0.85048  0.00725  1.0000
  C   C156      1.0  0.15256  0.62024  0.48418  1.0000
  S   S59       1.0  0.32673  0.68107  0.20347  1.0000
  Fe  Fe34      1.0  0.18075  0.50921  0.43574  1.0000
  H   H157      1.0  0.01468  0.92741  0.26432  1.0000
  C   C157      1.0  0.03272  0.95402  0.36967  1.0000
  H   H158      1.0  0.03618  0.66853  0.21079  1.0000
  C   C158      1.0  0.30250  0.98834  0.13468  1.0000
  S   S60       1.0  0.00950  0.78020  0.37646  1.0000
  H   H159      1.0  0.29652  0.96915  0.17733  1.0000
  S   S61       1.0  0.01181  0.94160  0.06683  1.0000
  H   H160      1.0  0.17379  0.58722  0.00654  1.0000
  C   C159      1.0  0.00327  0.94776  0.36454  1.0000
  C   C160      1.0  0.04138  0.99236  0.48999  1.0000
  C   C161      1.0  0.01018  0.96352  0.03025  1.0000
  H   H161      1.0  0.18569  0.53669  0.14972  1.0000
  H   H162      1.0  0.31285  0.00270  0.00763  1.0000
  H   H163      1.0  0.10616  0.58486  0.48307  1.0000
  C   C162      1.0  0.01034  0.75652  0.20076  1.0000
  C   C163      1.0  0.01503  0.00219  0.03046  1.0000
  C   C164      1.0  0.20521  0.61846  0.49991  1.0000
  H   H164      1.0  0.22579  0.63163  0.50204  1.0000
  N   N15       1.0  0.01574  0.86678  0.81008  1.0000
  S   S62       1.0  0.00435  0.76968  0.73464  1.0000
  H   H165      1.0  0.29606  0.87110  0.77818  1.0000
  Fe  Fe35      1.0  0.26226  0.84620  0.87592  1.0000
  S   S63       1.0  0.28420  0.90296  0.89006  1.0000
  S   S64       1.0  0.21671  0.83056  0.87557  1.0000
  Fe  Fe36      1.0  0.30503  0.88997  0.85412  1.0000
  C   C165      1.0  0.16589  0.71838  0.89369  1.0000
  Fe  Fe37      1.0  0.32232  0.87283  0.92626  1.0000
  H   H166      1.0  0.17763  0.53553  0.51105  1.0000
  S   S65       1.0  0.28011  0.83620  0.83710  1.0000
  S   S66       1.0  0.29968  0.81674  0.91444  1.0000
  Fe  Fe38      1.0  0.05173  0.76700  0.77023  1.0000
  S   S67       1.0  0.03915  0.76763  0.81344  1.0000
  S   S68       1.0  0.08927  0.80053  0.76497  1.0000
  C   C166      1.0  0.18173  0.53012  0.99782  1.0000
  Fe  Fe39      1.0  0.03824  0.70545  0.80825  1.0000
  S   S69       1.0  0.05995  0.67021  0.85240  1.0000
  S   S70       1.0  0.05310  0.70500  0.76678  1.0000
  H   H167      1.0  0.20540  0.71102  0.82452  1.0000
  H   H168      1.0  0.18121  0.50815  0.77584  1.0000
  C   C167      1.0  0.01192  0.86801  0.75491  1.0000
  H   H169      1.0  0.05920  0.86524  0.84641  1.0000
  N   N16       1.0  0.17472  0.72650  0.84489  1.0000
  H   H170      1.0  0.07290  0.93592  0.61590  1.0000
  H   H171      1.0  0.16662  0.53006  0.97275  1.0000
  C   C168      1.0  0.17788  0.56454  0.50488  1.0000
  C   C169      1.0  0.32882  0.95199  0.99462  1.0000
  C   C170      1.0  0.12817  0.70199  0.84192  1.0000
  C   C171      1.0  0.33064  0.90479  0.73044  1.0000
  C   C172      1.0  0.08496  0.94141  0.55400  1.0000
  H   H172      1.0  0.06451  0.97717  0.59138  1.0000
  C   C173      1.0  0.05939  0.87216  0.53300  1.0000
  C   C174      1.0  0.07360  0.62711  0.84603  1.0000
  C   C175      1.0  0.07201  0.61662  0.81527  1.0000
  C   C176      1.0  0.08401  0.58297  0.81075  1.0000
  C   C177      1.0  0.09694  0.55898  0.83674  1.0000
  C   C178      1.0  0.09822  0.56905  0.86751  1.0000
  C   C179      1.0  0.08679  0.60326  0.87217  1.0000
  H   H173      1.0  0.06148  0.63430  0.79486  1.0000
  H   H174      1.0  0.08295  0.57539  0.78689  1.0000
  H   H175      1.0  0.10821  0.55073  0.88773  1.0000
  H   H176      1.0  0.08807  0.61122  0.89605  1.0000
  C   C180      1.0  0.13767  0.70462  0.87550  1.0000
  H   H177      1.0  0.09453  0.96885  0.56145  1.0000
  C   C181      1.0  0.14706  0.71310  0.82688  1.0000
  Fe  Fe40      1.0  0.00491  0.70725  0.73578  1.0000
  H   H178      1.0  0.03837  0.88064  0.56652  1.0000
  Fe  Fe41      1.0  0.31893  0.81099  0.87664  1.0000
  C   C182      1.0  0.01622  0.99796  0.52731  1.0000
  C   C183      1.0  0.18430  0.72912  0.87790  1.0000
  H   H179      1.0  0.17345  0.72074  0.91983  1.0000
  C   C184      1.0  0.18123  0.82426  0.84428  1.0000
  C   C185      1.0  0.17593  0.82941  0.81156  1.0000
  C   C186      1.0  0.14767  0.82212  0.78762  1.0000
  C   C187      1.0  0.12453  0.80905  0.79600  1.0000
  C   C188      1.0  0.12981  0.80402  0.82871  1.0000
  C   C189      1.0  0.15788  0.81198  0.85266  1.0000
  H   H180      1.0  0.19361  0.83892  0.80470  1.0000
  H   H181      1.0  0.14379  0.82641  0.76240  1.0000
  H   H182      1.0  0.11224  0.79422  0.83562  1.0000
  H   H183      1.0  0.16168  0.80812  0.87791  1.0000
  H   H184      1.0  0.02980  0.54023  0.78264  1.0000
  C   C190      1.0  0.19464  0.73629  0.82875  1.0000
  C   C191      1.0  0.04251  0.86813  0.76559  1.0000
  N   N17       1.0  0.06598  0.92662  0.56657  1.0000
  H   H185      1.0  0.31968  0.98577  0.87931  1.0000
  C   C192      1.0  0.30951  0.88927  0.77026  1.0000
  S   S71       1.0  0.11029  0.51624  0.82930  1.0000
  C   C193      1.0  0.20471  0.58147  0.50869  1.0000
  H   H186      1.0  0.18246  0.74994  0.80526  1.0000
  H   H187      1.0  0.21204  0.75636  0.84359  1.0000
  H   H188      1.0  0.10625  0.69136  0.82768  1.0000
  C   C194      1.0  0.31341  0.88134  0.74128  1.0000
  H   H189      1.0  0.08341  0.86660  0.80707  1.0000
  H   H190      1.0  0.22479  0.56548  0.51742  1.0000
  C   C195      1.0  0.04577  0.86659  0.82074  1.0000
  H   H191      1.0  0.12308  0.69600  0.88730  1.0000
  C   C196      1.0  0.05967  0.94697  0.59161  1.0000
  H   H192      1.0  0.13933  0.71129  0.80070  1.0000
  H   H193      1.0  0.12632  0.54854  0.50946  1.0000
  C   C197      1.0  0.07848  0.88720  0.51984  1.0000
  H   H194      1.0  0.10551  0.93433  0.51949  1.0000
  C   C198      1.0  0.05960  0.86743  0.79869  1.0000
  C   C199      1.0  0.05347  0.89229  0.55663  1.0000
  H   H195      1.0  0.30313  0.85680  0.72724  1.0000
  H   H196      1.0  0.31154  0.95007  0.97072  1.0000
  C   C200      1.0  0.09143  0.92198  0.53042  1.0000
  H   H197      1.0  0.03588  0.94474  0.58718  1.0000
  H   H198      1.0  0.05306  0.86787  0.74827  1.0000
  H   H199      1.0  0.20611  0.74022  0.89215  1.0000
  C   C201      1.0  0.00848  0.00116  0.97345  1.0000
  S   S72       1.0  0.31705  0.93311  0.82428  1.0000
  C   C202      1.0  0.32231  0.92124  0.78834  1.0000
  C   C203      1.0  0.00354  0.96251  0.97320  1.0000
  H   H200      1.0  0.04884  0.84539  0.52444  1.0000
  H   H201      1.0  0.05458  0.51316  0.77048  1.0000
  C   C204      1.0  0.03191  0.51444  0.76998  1.0000
  H   H202      1.0  0.01627  0.51643  0.74436  1.0000
  H   H203      1.0  0.01272  0.88389  0.85437  1.0000
  H   H204      1.0  0.00333  0.83556  0.84276  1.0000
  C   C205      1.0  0.00432  0.94384  0.00125  1.0000
  C   C206      1.0  0.33577  0.99189  0.53098  1.0000
  S   S73       1.0  0.33600  0.89279  0.69460  1.0000
  C   C207      1.0  0.00294  0.96300  0.51606  1.0000
  S   S74       1.0  0.37575  0.17894  0.43251  1.0000
  Fe  Fe42      1.0  0.38920  0.08121  0.18193  1.0000
  S   S75       1.0  0.43750  0.07291  0.20781  1.0000
  Fe  Fe43      1.0  0.38788  0.03841  0.12154  1.0000
  C   C208      1.0  0.52393  0.48460  0.05879  1.0000
  H   H205      1.0  0.53372  0.05791  0.33420  1.0000
  Fe  Fe44      1.0  0.44162  0.08691  0.16096  1.0000
  S   S76       1.0  0.48067  0.12514  0.16771  1.0000
  Fe  Fe45      1.0  0.65178  0.03174  0.44764  1.0000
  S   S77       1.0  0.60321  0.06293  0.36183  1.0000
  Fe  Fe46      1.0  0.59669  0.07449  0.40776  1.0000
  S   S78       1.0  0.55529  0.10764  0.39815  1.0000
  C   C209      1.0  0.33879  0.13321  0.24637  1.0000
  Fe  Fe47      1.0  0.52684  0.30489  0.45056  1.0000
  S   S79       1.0  0.50082  0.29984  0.39738  1.0000
  S   S80       1.0  0.55265  0.25480  0.47663  1.0000
  Fe  Fe48      1.0  0.51408  0.38887  0.45272  1.0000
  S   S81       1.0  0.48779  0.38866  0.39857  1.0000
  H   H206      1.0  0.36986  0.04005  0.45220  1.0000
  Fe  Fe49      1.0  0.46825  0.33519  0.40744  1.0000
  S   S82       1.0  0.41991  0.32166  0.38177  1.0000
  Fe  Fe50      1.0  0.52299  0.35301  0.39356  1.0000
  S   S83       1.0  0.54762  0.35111  0.35987  1.0000
  S   S84       1.0  0.49235  0.33691  0.46153  1.0000
  S   S85       1.0  0.55096  0.35682  0.44680  1.0000
  Fe  Fe51      1.0  0.56928  0.34948  0.15882  1.0000
  S   S86       1.0  0.54175  0.34926  0.10511  1.0000
  S   S87       1.0  0.61695  0.33264  0.18270  1.0000
  Fe  Fe52      1.0  0.51997  0.37778  0.17752  1.0000
  S   S88       1.0  0.48921  0.37922  0.12551  1.0000
  S   S89       1.0  0.49810  0.39561  0.21150  1.0000
  Fe  Fe53      1.0  0.50731  0.32376  0.12077  1.0000
  S   S90       1.0  0.47398  0.27832  0.09559  1.0000
  Fe  Fe54      1.0  0.52614  0.40528  0.11478  1.0000
  S   S91       1.0  0.51203  0.45909  0.08573  1.0000
  S   S92       1.0  0.53570  0.32063  0.17353  1.0000
  S   S93       1.0  0.55601  0.40714  0.16763  1.0000
  C   C210      1.0  0.45018  0.46815  0.40934  1.0000
  C   C211      1.0  0.54496  0.47114  0.04769  1.0000
  H   H207      1.0  0.55599  0.44546  0.05709  1.0000
  C   C212      1.0  0.53274  0.36238  0.31836  1.0000
  C   C213      1.0  0.50543  0.37935  0.30399  1.0000
  C   C214      1.0  0.49499  0.38922  0.27113  1.0000
  C   C215      1.0  0.51159  0.38181  0.25237  1.0000
  C   C216      1.0  0.53858  0.36413  0.26654  1.0000
  C   C217      1.0  0.54917  0.35468  0.29947  1.0000
  H   H208      1.0  0.49262  0.38540  0.31834  1.0000
  H   H209      1.0  0.47401  0.40276  0.26028  1.0000
  H   H210      1.0  0.55163  0.35846  0.25236  1.0000
  H   H211      1.0  0.57040  0.34175  0.31048  1.0000
  H   H212      1.0  0.42863  0.22231  0.45909  1.0000
  H   H213      1.0  0.48078  0.37180  0.00544  1.0000
  H   H214      1.0  0.34686  0.22579  0.37660  1.0000
  C   C218      1.0  0.55236  0.21314  0.45516  1.0000
  C   C219      1.0  0.53149  0.20643  0.42388  1.0000
  C   C220      1.0  0.53244  0.17376  0.40697  1.0000
  C   C221      1.0  0.55455  0.14764  0.42092  1.0000
  C   C222      1.0  0.57518  0.15389  0.45240  1.0000
  C   C223      1.0  0.57386  0.18635  0.46956  1.0000
  H   H215      1.0  0.51444  0.22620  0.41275  1.0000
  H   H216      1.0  0.51622  0.16894  0.38276  1.0000
  H   H217      1.0  0.59193  0.13354  0.46366  1.0000
  C   C224      1.0  0.35165  0.10647  0.23309  1.0000
  C   C225      1.0  0.47842  0.16687  0.14642  1.0000
  C   C226      1.0  0.45291  0.17676  0.12030  1.0000
  C   C227      1.0  0.45191  0.21079  0.10463  1.0000
  C   C228      1.0  0.47618  0.23540  0.11528  1.0000
  C   C229      1.0  0.50162  0.22549  0.14144  1.0000
  C   C230      1.0  0.50279  0.19127  0.15675  1.0000
  H   H218      1.0  0.43405  0.15810  0.11206  1.0000
  H   H219      1.0  0.43222  0.21815  0.08426  1.0000
  H   H220      1.0  0.52061  0.24384  0.14950  1.0000
  H   H221      1.0  0.52261  0.18377  0.17685  1.0000
  C   C231      1.0  0.62038  0.23683  0.13564  1.0000
  C   C232      1.0  0.61021  0.26976  0.14458  1.0000
  C   C233      1.0  0.62873  0.29074  0.17115  1.0000
  H   H222      1.0  0.44968  0.16477  0.43531  1.0000
  H   H223      1.0  0.60595  0.22092  0.11491  1.0000
  H   H224      1.0  0.58817  0.27913  0.13071  1.0000
  S   S94       1.0  0.39368  0.09914  0.13596  1.0000
  C   C234      1.0  0.38662  0.22011  0.41901  1.0000
  C   C235      1.0  0.36854  0.23713  0.39039  1.0000
  C   C236      1.0  0.37863  0.26889  0.37949  1.0000
  C   C237      1.0  0.40699  0.28331  0.39685  1.0000
  C   C238      1.0  0.42493  0.26643  0.42558  1.0000
  C   C239      1.0  0.41463  0.23519  0.43679  1.0000
  C   C240      1.0  0.60455  0.25459  0.43570  1.0000
  H   H225      1.0  0.36462  0.28192  0.35728  1.0000
  H   H226      1.0  0.44680  0.27731  0.43917  1.0000
  H   H227      1.0  0.44261  0.45660  0.38431  1.0000
  H   H228      1.0  0.60589  0.17947  0.16997  1.0000
  H   H229      1.0  0.40809  0.36222  0.43167  1.0000
  C   C241      1.0  0.65111  0.13236  0.06071  1.0000
  N   N18       1.0  0.45557  0.28496  0.17750  1.0000
  C   C242      1.0  0.44110  0.25152  0.16897  1.0000
  H   H230      1.0  0.60764  0.17501  0.39752  1.0000
  H   H231      1.0  0.41965  0.31816  0.14867  1.0000
  H   H232      1.0  0.50366  0.01634  0.25254  1.0000
  C   C243      1.0  0.49316  0.25692  0.22309  1.0000
  C   C244      1.0  0.62229  0.11008  0.25805  1.0000
  H   H233      1.0  0.46737  0.20309  0.42491  1.0000
  H   H234      1.0  0.45290  0.34371  0.17038  1.0000
  H   H235      1.0  0.42129  0.24881  0.14719  1.0000
  H   H236      1.0  0.56804  0.20551  0.35266  1.0000
  S   S95       1.0  0.33627  0.09190  0.39155  1.0000
  C   C245      1.0  0.55121  0.49048  0.02366  1.0000
  N   N19       1.0  0.62001  0.14997  0.21434  1.0000
  H   H237      1.0  0.51195  0.39690  0.03463  1.0000
  S   S96       1.0  0.60373  0.01502  0.42393  1.0000
  Fe  Fe55      1.0  0.42876  0.01451  0.18840  1.0000
  C   C246      1.0  0.52886  0.01051  0.36044  1.0000
  S   S97       1.0  0.43665  0.02736  0.14320  1.0000
  H   H238      1.0  0.41664  0.38470  0.48729  1.0000
  C   C247      1.0  0.65732  0.27826  0.18892  1.0000
  H   H239      1.0  0.62648  0.20659  0.20581  1.0000
  H   H240      1.0  0.64520  0.13371  0.18698  1.0000
  C   C248      1.0  0.58241  0.27259  0.41063  1.0000
  C   C249      1.0  0.64892  0.22430  0.15347  1.0000
  C   C250      1.0  0.41834  0.38920  0.44007  1.0000
  S   S98       1.0  0.64366  0.09230  0.43412  1.0000
  N   N20       1.0  0.61336  0.21995  0.43089  1.0000
  H   H241      1.0  0.47658  0.40091  0.03630  1.0000
  H   H242      1.0  0.49316  0.31424  0.21050  1.0000
  H   H243      1.0  0.36315  0.18873  0.30504  1.0000
  S   S99       1.0  0.35365  0.02489  0.07089  1.0000
  C   C251      1.0  0.60079  0.20259  0.40132  1.0000
  C   C252      1.0  0.45202  0.22009  0.18773  1.0000
  N   N21       1.0  0.44042  0.44522  0.43036  1.0000
  C   C253      1.0  0.63833  0.12691  0.20664  1.0000
  N   N22       1.0  0.43046  0.17980  0.38564  1.0000
  C   C254      1.0  0.40835  0.15362  0.37707  1.0000
  C   C255      1.0  0.42911  0.20880  0.36557  1.0000
  C   C256      1.0  0.38386  0.15636  0.34794  1.0000
  C   C257      1.0  0.40486  0.21252  0.33636  1.0000
  C   C258      1.0  0.38215  0.18607  0.32753  1.0000
  C   C259      1.0  0.45626  0.17585  0.41591  1.0000
  H   H244      1.0  0.40925  0.13082  0.39308  1.0000
  H   H245      1.0  0.44643  0.22983  0.37246  1.0000
  N   N23       1.0  0.64274  0.08480  0.02000  1.0000
  H   H246      1.0  0.40349  0.23618  0.32103  1.0000
  H   H247      1.0  0.36248  0.04882  0.23297  1.0000
  C   C260      1.0  0.57838  0.21971  0.37580  1.0000
  C   C261      1.0  0.64006  0.08575  0.24961  1.0000
  C   C262      1.0  0.60976  0.18401  0.19591  1.0000
  S   S100      1.0  0.36397  0.11959  0.20231  1.0000
  H   H248      1.0  0.54257  0.02557  0.27402  1.0000
  H   H249      1.0  0.51377  0.25943  0.24392  1.0000
  H   H250      1.0  0.47463  0.46976  0.41928  1.0000
  H   H251      1.0  0.50294  0.46921  0.23696  1.0000
  H   H252      1.0  0.59873  0.16120  0.24686  1.0000
  H   H253      1.0  0.57532  0.29993  0.41457  1.0000
  C   C263      1.0  0.64818  0.05806  0.04308  1.0000
  C   C264      1.0  0.42314  0.40182  0.47126  1.0000
  H   H254      1.0  0.48741  0.19822  0.22878  1.0000
  H   H255      1.0  0.48674  0.46470  0.16794  1.0000
  H   H256      1.0  0.55191  0.26883  0.36107  1.0000
  S   S101      1.0  0.66009  0.18183  0.14220  1.0000
  H   H257      1.0  0.33956  0.03065  0.27151  1.0000
  H   H258      1.0  0.36621  0.13573  0.34136  1.0000
  S   S102      1.0  0.52151  0.44645  0.47793  1.0000
  H   H259      1.0  0.51537  0.05841  0.27544  1.0000
  H   H260      1.0  0.53532  0.02571  0.38322  1.0000
  H   H261      1.0  0.63977  0.14275  0.01016  1.0000
  C   C265      1.0  0.42712  0.41140  0.41979  1.0000
  H   H262      1.0  0.37573  0.10813  0.46282  1.0000
  H   H263      1.0  0.44074  0.19343  0.18066  1.0000
  C   C266      1.0  0.47833  0.22280  0.21478  1.0000
  C   C267      1.0  0.48807  0.39819  0.01933  1.0000
  H   H264      1.0  0.58856  0.19330  0.19661  1.0000
  C   C268      1.0  0.35256  0.06964  0.24293  1.0000
  S   S103      1.0  0.37969  0.02164  0.16587  1.0000
  C   C269      1.0  0.61243  0.14232  0.24006  1.0000
  C   C270      1.0  0.56924  0.25501  0.38054  1.0000
  H   H265      1.0  0.42342  0.40115  0.39564  1.0000
  C   C271      1.0  0.44397  0.31727  0.15707  1.0000
  C   C272      1.0  0.64405  0.12156  0.02843  1.0000
  H   H266      1.0  0.47230  0.15688  0.41211  1.0000
  C   C273      1.0  0.48139  0.28790  0.20405  1.0000
  C   C274      1.0  0.52053  0.02854  0.27506  1.0000
  H   H267      1.0  0.66325  0.07620  0.21819  1.0000
  Fe  Fe56      1.0  0.65070  0.07665  0.38883  1.0000
  C   C275      1.0  0.44529  0.45775  0.46094  1.0000
  C   C276      1.0  0.64847  0.09435  0.22402  1.0000
  H   H268      1.0  0.45002  0.31587  0.13562  1.0000
  H   H269      1.0  0.61666  0.10423  0.27877  1.0000
  H   H270      1.0  0.64769  0.02892  0.03665  1.0000
  H   H271      1.0  0.58977  0.19092  0.49398  1.0000
  C   C277      1.0  0.52787  0.02865  0.33252  1.0000
  H   H272      1.0  0.64809  0.06083  0.26355  1.0000
  H   H273      1.0  0.61415  0.26827  0.45920  1.0000
  C   C278      1.0  0.38423  0.08885  0.48267  1.0000
  C   C279      1.0  0.33960  0.05943  0.26480  1.0000
  H   H274      1.0  0.44148  0.49667  0.40793  1.0000
  H   H275      1.0  0.33776  0.16171  0.23863  1.0000
  H   H276      1.0  0.52500  0.46538  0.19452  1.0000
  C   C280      1.0  0.43657  0.43639  0.48177  1.0000
  C   C281      1.0  0.63736  0.20207  0.45711  1.0000
  H   H277      1.0  0.45649  0.48415  0.46959  1.0000
  H   H278      1.0  0.63728  0.21004  0.48113  1.0000
  C   C282      1.0  0.65699  0.10528  0.08436  1.0000
  H   H279      1.0  0.65880  0.21013  0.45612  1.0000
  C   C283      1.0  0.65552  0.06790  0.07560  1.0000
  C   C284      1.0  0.49869  0.49798  0.22987  1.0000
  H   H280      1.0  0.66289  0.11333  0.10948  1.0000
  H   H281      1.0  0.65227  0.16149  0.06760  1.0000
  C   C285      1.0  0.66736  0.24504  0.18025  1.0000
  H   H282      1.0  0.66096  0.04673  0.09406  1.0000
  C   C286      1.0  0.50622  0.48307  0.18017  1.0000
  C   C287      1.0  0.38118  0.05068  0.47671  1.0000
  H   H283      1.0  0.51217  0.49682  0.16130  1.0000
  H   H284      1.0  0.45113  0.45438  0.01337  1.0000
  S   S104      1.0  0.66270  0.01775  0.40412  1.0000
  H   H285      1.0  0.63493  0.17135  0.45515  1.0000
  N   N24       1.0  0.52005  0.00967  0.30375  1.0000
  H   H286      1.0  0.56699  0.47931  0.01472  1.0000
  Fe  Fe57      1.0  0.61414  0.00508  0.37979  1.0000
  C   C288      1.0  0.39167  0.02627  0.50273  1.0000
  H   H287      1.0  0.59072  0.48212  0.64561  1.0000
  H   H288      1.0  0.44069  0.20555  0.69262  1.0000
  C   C289      1.0  0.40461  0.38279  0.78070  1.0000
  Fe  Fe58      1.0  0.55317  0.27299  0.78316  1.0000
  S   S105      1.0  0.53740  0.27136  0.82421  1.0000
  S   S106      1.0  0.58793  0.31746  0.78704  1.0000
  Fe  Fe59      1.0  0.51428  0.20598  0.74989  1.0000
  S   S107      1.0  0.49721  0.19946  0.78923  1.0000
  S   S108      1.0  0.49632  0.16596  0.70746  1.0000
  Fe  Fe60      1.0  0.49176  0.26114  0.78620  1.0000
  S   S109      1.0  0.44937  0.28143  0.79029  1.0000
  Fe  Fe61      1.0  0.54390  0.20999  0.82258  1.0000
  S   S110      1.0  0.56842  0.17668  0.86713  1.0000
  S   S111      1.0  0.50675  0.26765  0.74495  1.0000
  S   S112      1.0  0.56175  0.21202  0.78351  1.0000
  C   C290      1.0  0.36014  0.31199  0.71097  1.0000
  C   C291      1.0  0.36235  0.30332  0.74224  1.0000
  C   C292      1.0  0.38968  0.29305  0.76597  1.0000
  C   C293      1.0  0.41504  0.29123  0.75874  1.0000
  C   C294      1.0  0.41270  0.29929  0.72733  1.0000
  C   C295      1.0  0.38539  0.30948  0.70361  1.0000
  H   H289      1.0  0.61139  0.05285  0.89185  1.0000
  H   H290      1.0  0.39126  0.28698  0.79022  1.0000
  H   H291      1.0  0.43207  0.29868  0.72151  1.0000
  H   H292      1.0  0.38395  0.31633  0.67954  1.0000
  C   C296      1.0  0.53384  0.49707  0.66545  1.0000
  C   C297      1.0  0.33726  0.00667  0.92863  1.0000
  C   C298      1.0  0.64602  0.34041  0.80879  1.0000
  C   C299      1.0  0.62632  0.30993  0.79898  1.0000
  C   C300      1.0  0.63767  0.27444  0.79938  1.0000
  C   C301      1.0  0.34353  0.02443  0.54975  1.0000
  C   C302      1.0  0.51753  0.46980  0.51146  1.0000
  H   H293      1.0  0.63747  0.36800  0.80849  1.0000
  H   H294      1.0  0.62283  0.25078  0.79157  1.0000
  C   C303      1.0  0.40804  0.07697  0.53986  1.0000
  H   H295      1.0  0.52280  0.00568  0.69955  1.0000
  C   C304      1.0  0.50601  0.45229  0.53192  1.0000
  C   C305      1.0  0.50148  0.47274  0.55669  1.0000
  C   C306      1.0  0.40454  0.38986  0.75008  1.0000
  N   N25       1.0  0.35328  0.39766  0.76160  1.0000
  H   H296      1.0  0.34314  0.30507  0.74826  1.0000
  C   C307      1.0  0.58852  0.06022  0.84053  1.0000
  C   C308      1.0  0.59876  0.07160  0.87305  1.0000
  C   C309      1.0  0.59245  0.10735  0.88125  1.0000
  C   C310      1.0  0.57601  0.13178  0.85695  1.0000
  C   C311      1.0  0.56625  0.12053  0.82453  1.0000
  C   C312      1.0  0.57245  0.08491  0.81634  1.0000
  S   S113      1.0  0.59476  0.01515  0.82934  1.0000
  H   H297      1.0  0.60022  0.11601  0.90637  1.0000
  H   H298      1.0  0.55380  0.13923  0.80567  1.0000
  H   H299      1.0  0.56479  0.07661  0.79115  1.0000
  C   C313      1.0  0.46304  0.05547  0.73117  1.0000
  C   C314      1.0  0.48074  0.07918  0.75611  1.0000
  C   C315      1.0  0.49191  0.11236  0.74894  1.0000
  C   C316      1.0  0.48523  0.12239  0.71681  1.0000
  C   C317      1.0  0.46834  0.09805  0.69181  1.0000
  C   C318      1.0  0.45723  0.06463  0.69896  1.0000
  H   H300      1.0  0.48548  0.07226  0.78109  1.0000
  H   H301      1.0  0.50564  0.13015  0.76837  1.0000
  H   H302      1.0  0.46320  0.10552  0.66687  1.0000
  H   H303      1.0  0.44344  0.04667  0.67952  1.0000
  C   C319      1.0  0.47307  0.48999  0.95624  1.0000
  S   S114      1.0  0.44760  0.01557  0.74112  1.0000
  N   N26       1.0  0.42259  0.17645  0.72210  1.0000
  C   C320      1.0  0.41372  0.14580  0.70233  1.0000
  C   C321      1.0  0.42407  0.17529  0.75325  1.0000
  C   C322      1.0  0.40701  0.11247  0.71397  1.0000
  C   C323      1.0  0.41821  0.14216  0.76591  1.0000
  C   C324      1.0  0.40983  0.11050  0.74613  1.0000
  C   C325      1.0  0.42923  0.21113  0.70927  1.0000
  H   H304      1.0  0.41246  0.14675  0.67761  1.0000
  H   H305      1.0  0.43035  0.19993  0.76867  1.0000
  H   H306      1.0  0.40063  0.08791  0.69848  1.0000
  H   H307      1.0  0.42041  0.14101  0.79094  1.0000
  H   H308      1.0  0.40584  0.08431  0.75568  1.0000
  N   N27       1.0  0.64315  0.22942  0.86916  1.0000
  H   H309      1.0  0.40859  0.22625  0.69614  1.0000
  C   C326      1.0  0.49748  0.43261  0.97731  1.0000
  C   C327      1.0  0.63802  0.18955  0.86226  1.0000
  H   H310      1.0  0.50026  0.42308  0.52841  1.0000
  H   H311      1.0  0.49215  0.45890  0.57198  1.0000
  S   S115      1.0  0.36190  0.02397  0.59244  1.0000
  N   N28       1.0  0.40468  0.03955  0.53382  1.0000
  H   H312      1.0  0.65583  0.33483  0.88586  1.0000
  H   H313      1.0  0.52841  0.02505  0.80456  1.0000
  C   C328      1.0  0.45742  0.48650  0.97629  1.0000
  C   C329      1.0  0.41615  0.01341  0.56061  1.0000
  H   H314      1.0  0.63476  0.17563  0.88272  1.0000
  H   H315      1.0  0.42444  0.37291  0.79977  1.0000
  H   H316      1.0  0.51383  0.41226  0.97823  1.0000
  H   H317      1.0  0.65320  0.08572  0.97820  1.0000
  H   H318      1.0  0.42430  0.38561  0.74533  1.0000
  H   H319      1.0  0.40002  0.13186  0.51915  1.0000
  C   C330      1.0  0.63595  0.07445  0.98608  1.0000
  C   C331      1.0  0.36019  0.00393  0.95907  1.0000
  H   H320      1.0  0.41798  0.02636  0.58398  1.0000
  C   C332      1.0  0.62395  0.29007  0.87080  1.0000
  H   H321      1.0  0.44072  0.44641  0.50609  1.0000
  C   C333      1.0  0.56826  0.49365  0.63772  1.0000
  C   C334      1.0  0.61975  0.25191  0.86468  1.0000
  C   C335      1.0  0.37858  0.40061  0.72521  1.0000
  C   C336      1.0  0.46243  0.45602  0.99685  1.0000
  H   H322      1.0  0.60514  0.30799  0.86566  1.0000
  H   H323      1.0  0.59761  0.24049  0.85566  1.0000
  C   C337      1.0  0.33782  0.05889  0.53417  1.0000
  H   H324      1.0  0.55258  0.47228  0.62224  1.0000
  H   H325      1.0  0.41827  0.08752  0.56450  1.0000
  H   H326      1.0  0.37860  0.38017  0.80966  1.0000
  H   H327      1.0  0.51716  0.48314  0.64486  1.0000
  H   H328      1.0  0.44424  0.22931  0.72901  1.0000
  H   H329      1.0  0.61789  0.18454  0.84005  1.0000
  N   N29       1.0  0.48237  0.42967  0.99725  1.0000
  C   C338      1.0  0.37858  0.38672  0.78604  1.0000
  H   H330      1.0  0.34375  0.08420  0.54851  1.0000
  H   H331      1.0  0.53383  0.02875  0.75519  1.0000
  C   C339      1.0  0.66829  0.26953  0.80981  1.0000
  H   H332      1.0  0.35994  0.02133  0.97886  1.0000
  H   H333      1.0  0.61421  0.08538  0.97022  1.0000
  C   C340      1.0  0.35294  0.40413  0.73137  1.0000
  C   C341      1.0  0.49316  0.46286  0.95663  1.0000
  H   H334      1.0  0.50635  0.46632  0.94217  1.0000
  H   H335      1.0  0.65653  0.17643  0.85800  1.0000
  C   C342      1.0  0.65238  0.30510  0.88212  1.0000
  C   C343      1.0  0.39779  0.10217  0.51440  1.0000
  H   H336      1.0  0.37789  0.40448  0.70091  1.0000
  H   H337      1.0  0.63540  0.04384  0.98239  1.0000
  S   S116      1.0  0.44985  0.97037  0.22553  1.0000
  S   S117      1.0  0.59418  0.96422  0.33831  1.0000
  H   H338      1.0  0.50523  0.56323  0.01276  1.0000
  Fe  Fe62      1.0  0.49738  0.70564  0.25643  1.0000
  S   S118      1.0  0.51650  0.71728  0.21908  1.0000
  S   S119      1.0  0.46456  0.65700  0.24415  1.0000
  Fe  Fe63      1.0  0.53327  0.76926  0.29995  1.0000
  S   S120      1.0  0.55399  0.78506  0.26522  1.0000
  S   S121      1.0  0.54727  0.80218  0.34695  1.0000
  Fe  Fe64      1.0  0.50874  0.77699  0.22746  1.0000
  S   S122      1.0  0.48807  0.81609  0.18598  1.0000
  Fe  Fe65      1.0  0.56031  0.72398  0.26093  1.0000
  S   S123      1.0  0.60438  0.70884  0.25835  1.0000
  S   S124      1.0  0.48712  0.76523  0.26228  1.0000
  S   S125      1.0  0.54199  0.70806  0.29802  1.0000
  C   C344      1.0  0.42642  0.66303  0.23503  1.0000
  C   C345      1.0  0.40660  0.63316  0.22190  1.0000
  C   C346      1.0  0.37602  0.63761  0.21295  1.0000
  C   C347      1.0  0.36500  0.67201  0.21726  1.0000
  C   C348      1.0  0.38494  0.70153  0.23109  1.0000
  C   C349      1.0  0.41540  0.69717  0.23981  1.0000
  H   H339      1.0  0.41487  0.60658  0.21820  1.0000
  H   H340      1.0  0.36095  0.61468  0.20229  1.0000
  H   H341      1.0  0.37667  0.72820  0.23463  1.0000
  H   H342      1.0  0.43030  0.72031  0.25011  1.0000
  H   H343      1.0  0.43708  0.68749  0.16692  1.0000
  H   H344      1.0  0.52326  0.95807  0.38037  1.0000
  H   H345      1.0  0.50835  0.95735  0.27945  1.0000
  C   C350      1.0  0.63526  0.68712  0.28777  1.0000
  C   C351      1.0  0.63329  0.66787  0.31390  1.0000
  H   H346      1.0  0.43468  0.80804  0.20839  1.0000
  C   C352      1.0  0.42749  0.74402  0.17521  1.0000
  C   C353      1.0  0.52199  0.97269  0.35880  1.0000
  H   H347      1.0  0.61252  0.66626  0.31683  1.0000
  C   C354      1.0  0.51654  0.53782  0.02253  1.0000
  N   N30       1.0  0.49985  0.50985  0.20139  1.0000
  H   H348      1.0  0.48302  0.60034  0.20514  1.0000
  N   N31       1.0  0.62224  0.79356  0.33554  1.0000
  C   C355      1.0  0.53672  0.52361  0.01050  1.0000
  C   C356      1.0  0.55714  0.84897  0.34457  1.0000
  C   C357      1.0  0.55328  0.86447  0.31472  1.0000
  C   C358      1.0  0.56430  0.90011  0.31329  1.0000
  C   C359      1.0  0.57872  0.92101  0.34164  1.0000
  C   C360      1.0  0.58121  0.90654  0.37151  1.0000
  C   C361      1.0  0.57055  0.87042  0.37295  1.0000
  H   H349      1.0  0.54196  0.84898  0.29263  1.0000
  H   H350      1.0  0.56183  0.91137  0.29004  1.0000
  H   H351      1.0  0.59212  0.92264  0.39348  1.0000
  H   H352      1.0  0.57334  0.85874  0.39614  1.0000
  C   C362      1.0  0.46005  0.92768  0.21370  1.0000
  C   C363      1.0  0.45682  0.92057  0.18172  1.0000
  C   C364      1.0  0.46572  0.88637  0.17338  1.0000
  C   C365      1.0  0.47810  0.85935  0.19701  1.0000
  C   C366      1.0  0.48126  0.86651  0.22892  1.0000
  C   C367      1.0  0.47203  0.90040  0.23715  1.0000
  H   H353      1.0  0.44752  0.94138  0.16344  1.0000
  H   H354      1.0  0.46308  0.88088  0.14860  1.0000
  H   H355      1.0  0.49062  0.84585  0.24728  1.0000
  H   H356      1.0  0.47409  0.90534  0.26180  1.0000
  C   C368      1.0  0.48743  0.57153  0.21216  1.0000
  C   C369      1.0  0.35082  0.92528  0.00432  1.0000
  H   H357      1.0  0.62452  0.77914  0.29021  1.0000
  H   H358      1.0  0.59656  0.74127  0.03301  1.0000
  H   H359      1.0  0.34679  0.71096  0.14904  1.0000
  C   C370      1.0  0.37765  0.75702  0.16548  1.0000
  H   H360      1.0  0.38491  0.66622  0.14951  1.0000
  H   H361      1.0  0.39000  0.90740  0.04348  1.0000
  C   C371      1.0  0.39086  0.69511  0.15591  1.0000
  H   H362      1.0  0.65367  0.94765  0.48706  1.0000
  N   N32       1.0  0.40642  0.76837  0.17533  1.0000
  H   H363      1.0  0.60030  0.75538  0.35512  1.0000
  H   H364      1.0  0.63377  0.87948  0.36953  1.0000
  C   C372      1.0  0.42009  0.70699  0.16573  1.0000
  C   C373      1.0  0.37298  0.92807  0.03562  1.0000
  H   H365      1.0  0.63863  0.89433  0.31784  1.0000
  C   C374      1.0  0.51355  0.97256  0.30201  1.0000
  H   H366      1.0  0.53413  0.52172  0.50126  1.0000
  H   H367      1.0  0.39140  0.96000  0.08030  1.0000
  C   C375      1.0  0.51018  0.51837  0.04642  1.0000
  C   C376      1.0  0.63223  0.83742  0.30075  1.0000
  C   C377      1.0  0.35245  0.98530  0.04646  1.0000
  C   C378      1.0  0.66241  0.68843  0.28417  1.0000
  H   H368      1.0  0.60467  0.73933  0.31951  1.0000
  C   C379      1.0  0.41493  0.80698  0.18538  1.0000
  H   H369      1.0  0.49127  0.51319  0.27290  1.0000
  H   H370      1.0  0.50928  0.92400  0.32788  1.0000
  C   C380      1.0  0.51406  0.95359  0.32937  1.0000
  C   C381      1.0  0.37388  0.95793  0.05655  1.0000
  H   H371      1.0  0.49395  0.52921  0.05485  1.0000
  H   H372      1.0  0.63630  0.74132  0.35714  1.0000
  H   H373      1.0  0.66416  0.70324  0.26403  1.0000
  C   C382      1.0  0.48644  0.55972  0.24134  1.0000
  C   C383      1.0  0.61568  0.75552  0.34228  1.0000
  H   H374      1.0  0.42039  0.82151  0.16653  1.0000
  C   C384      1.0  0.62643  0.80110  0.30767  1.0000
  H   H375      1.0  0.62176  0.81518  0.37983  1.0000
  C   C385      1.0  0.62527  0.82110  0.35784  1.0000
  C   C386      1.0  0.49207  0.52271  0.25029  1.0000
  C   C387      1.0  0.36943  0.72027  0.15559  1.0000
  H   H376      1.0  0.40073  0.98986  0.01518  1.0000
  C   C388      1.0  0.49408  0.54604  0.19226  1.0000
  H   H377      1.0  0.36090  0.77611  0.16578  1.0000
  H   H378      1.0  0.49464  0.55545  0.16952  1.0000
  H   H379      1.0  0.48125  0.57931  0.25691  1.0000
  C   C389      1.0  0.59017  0.74348  0.00646  1.0000
  C   C390      1.0  0.63187  0.85754  0.35208  1.0000
  H   H380      1.0  0.45026  0.75308  0.18288  1.0000
  C   C391      1.0  0.65810  0.64965  0.33580  1.0000
  H   H381      1.0  0.39727  0.82235  0.18957  1.0000
  C   C392      1.0  0.63477  0.86583  0.32307  1.0000
  H   H382      1.0  0.63440  0.84348  0.27805  1.0000
  H   H383      1.0  0.65618  0.63426  0.35559  1.0000
  H   H384      1.0  0.38858  0.99666  0.49793  1.0000
  S   S126      1.0  0.41599  0.91798  0.70632  1.0000
  S   S127      1.0  0.42651  0.97254  0.65345  1.0000
  Fe  Fe66      1.0  0.41932  0.91142  0.65795  1.0000
  S   S128      1.0  0.45559  0.87489  0.65477  1.0000
  Fe  Fe67      1.0  0.41929  0.97912  0.69944  1.0000
  S   S129      1.0  0.62059  0.97660  0.91870  1.0000
  S   S130      1.0  0.62372  0.91781  0.86351  1.0000
  Fe  Fe68      1.0  0.62354  0.97954  0.87013  1.0000
  Fe  Fe69      1.0  0.62497  0.91479  0.91408  1.0000
  S   S131      1.0  0.59152  0.87817  0.92389  1.0000
  Fe  Fe70      1.0  0.54995  0.66565  0.63152  1.0000
  S   S132      1.0  0.50513  0.64923  0.59496  1.0000
  S   S133      1.0  0.57692  0.70342  0.61323  1.0000
  Fe  Fe71      1.0  0.53943  0.62770  0.68656  1.0000
  S   S134      1.0  0.49420  0.60846  0.65414  1.0000
  S   S135      1.0  0.56026  0.61829  0.74074  1.0000
  Fe  Fe72      1.0  0.51426  0.59292  0.61792  1.0000
  S   S136      1.0  0.50223  0.53509  0.59339  1.0000
  Fe  Fe73      1.0  0.48950  0.66632  0.63409  1.0000
  S   S137      1.0  0.44891  0.70097  0.62556  1.0000
  S   S138      1.0  0.56029  0.60843  0.65228  1.0000
  S   S139      1.0  0.53355  0.68622  0.66878  1.0000
  Fe  Fe74      1.0  0.49310  0.67020  0.93341  1.0000
  S   S140      1.0  0.53805  0.65598  0.96986  1.0000
  S   S141      1.0  0.46820  0.71164  0.95099  1.0000
  Fe  Fe75      1.0  0.50235  0.62760  0.87918  1.0000
  S   S142      1.0  0.54758  0.61042  0.91160  1.0000
  S   S143      1.0  0.48181  0.61604  0.82506  1.0000
  Fe  Fe76      1.0  0.52804  0.59812  0.94885  1.0000
  C   C393      1.0  0.50241  0.95485  0.70624  1.0000
  Fe  Fe77      1.0  0.55322  0.66945  0.92977  1.0000
  S   S144      1.0  0.59431  0.70294  0.93576  1.0000
  S   S145      1.0  0.48181  0.61144  0.91467  1.0000
  S   S146      1.0  0.50921  0.68734  0.89505  1.0000
  H   H385      1.0  0.38515  0.84825  0.73728  1.0000
  C   C394      1.0  0.53802  0.61475  0.76362  1.0000
  C   C395      1.0  0.55151  0.61219  0.79745  1.0000
  C   C396      1.0  0.53451  0.61168  0.81654  1.0000
  C   C397      1.0  0.50384  0.61339  0.80189  1.0000
  C   C398      1.0  0.49033  0.61463  0.76797  1.0000
  C   C399      1.0  0.50733  0.61555  0.74889  1.0000
  H   H386      1.0  0.57523  0.61123  0.80902  1.0000
  H   H387      1.0  0.54517  0.61015  0.84259  1.0000
  H   H388      1.0  0.46661  0.61581  0.75643  1.0000
  H   H389      1.0  0.49666  0.61748  0.72287  1.0000
  H   H390      1.0  0.51032  0.84900  0.95997  1.0000
  H   H391      1.0  0.53449  0.68024  0.54732  1.0000
  H   H392      1.0  0.51908  0.70383  0.50884  1.0000
  C   C400      1.0  0.59232  0.82920  0.92239  1.0000
  C   C401      1.0  0.56599  0.80895  0.91520  1.0000
  C   C402      1.0  0.56621  0.77016  0.91845  1.0000
  C   C403      1.0  0.59281  0.75123  0.92874  1.0000
  C   C404      1.0  0.61903  0.77129  0.93470  1.0000
  C   C405      1.0  0.61881  0.81014  0.93151  1.0000
  H   H393      1.0  0.54540  0.82349  0.90807  1.0000
  H   H394      1.0  0.54588  0.75516  0.91384  1.0000
  H   H395      1.0  0.36038  0.94198  0.88858  1.0000
  H   H396      1.0  0.63925  0.82545  0.93724  1.0000
  C   C406      1.0  0.45327  0.82606  0.64894  1.0000
  C   C407      1.0  0.42645  0.80657  0.63859  1.0000
  C   C408      1.0  0.42551  0.76806  0.63230  1.0000
  C   C409      1.0  0.45134  0.74862  0.63670  1.0000
  C   C410      1.0  0.47822  0.76800  0.64788  1.0000
  C   C411      1.0  0.47912  0.80652  0.65369  1.0000
  H   H397      1.0  0.40636  0.82129  0.63467  1.0000
  H   H398      1.0  0.40458  0.75338  0.62349  1.0000
  H   H399      1.0  0.49823  0.75357  0.65113  1.0000
  H   H400      1.0  0.49995  0.82136  0.66164  1.0000
  C   C412      1.0  0.62632  0.74747  0.62978  1.0000
  C   C413      1.0  0.61172  0.71980  0.64010  1.0000
  C   C414      1.0  0.62526  0.70535  0.67118  1.0000
  C   C415      1.0  0.51995  0.99599  0.80113  1.0000
  H   H401      1.0  0.61600  0.75872  0.60575  1.0000
  H   H402      1.0  0.61420  0.68397  0.67930  1.0000
  N   N33       1.0  0.51444  0.98180  0.76850  1.0000
  N   N34       1.0  0.50693  0.72527  0.54640  1.0000
  H   H403      1.0  0.65455  0.84404  0.81725  1.0000
  C   C416      1.0  0.37513  0.74827  0.88673  1.0000
  C   C417      1.0  0.38886  0.72021  0.87592  1.0000
  C   C418      1.0  0.41757  0.70907  0.89516  1.0000
  C   C419      1.0  0.43260  0.72573  0.92550  1.0000
  C   C420      1.0  0.41898  0.75408  0.93612  1.0000
  C   C421      1.0  0.39041  0.76548  0.91675  1.0000
  H   H404      1.0  0.37714  0.70669  0.85278  1.0000
  H   H405      1.0  0.42784  0.68713  0.88680  1.0000
  H   H406      1.0  0.43040  0.76695  0.95963  1.0000
  H   H407      1.0  0.37997  0.78697  0.92539  1.0000
  H   H408      1.0  0.58146  0.71619  0.99485  1.0000
  H   H409      1.0  0.37746  0.82125  0.84975  1.0000
  H   H410      1.0  0.33952  0.83090  0.82547  1.0000
  N   N35       1.0  0.36624  0.82098  0.79896  1.0000
  C   C422      1.0  0.52510  0.50780  0.51678  1.0000
  H   H411      1.0  0.49369  0.93230  0.77543  1.0000
  H   H412      1.0  0.64361  0.87952  0.69554  1.0000
  H   H413      1.0  0.38097  0.87262  0.78701  1.0000
  C   C423      1.0  0.53899  0.76410  0.98510  1.0000
  H   H414      1.0  0.65812  0.89369  0.52288  1.0000
  S   S147      1.0  0.37072  0.98675  0.67520  1.0000
  N   N36       1.0  0.38208  0.97876  0.96409  1.0000
  N   N37       1.0  0.65721  0.86027  0.74399  1.0000
  C   C424      1.0  0.66827  0.74530  0.68104  1.0000
  H   H415      1.0  0.54201  0.53754  0.73736  1.0000
  N   N38       1.0  0.54157  0.70206  0.81316  1.0000
  C   C425      1.0  0.51173  0.70385  0.80409  1.0000
  C   C426      1.0  0.55379  0.70458  0.79046  1.0000
  C   C427      1.0  0.49326  0.70744  0.77145  1.0000
  C   C428      1.0  0.53598  0.70816  0.75763  1.0000
  C   C429      1.0  0.50551  0.70951  0.74808  1.0000
  C   C430      1.0  0.56051  0.69850  0.84751  1.0000
  H   H416      1.0  0.50196  0.70110  0.82198  1.0000
  H   H417      1.0  0.57738  0.70257  0.79749  1.0000
  H   H418      1.0  0.46958  0.70735  0.76427  1.0000
  H   H419      1.0  0.54571  0.70856  0.73962  1.0000
  C   C431      1.0  0.46631  0.75692  0.56781  1.0000
  H   H420      1.0  0.55008  0.68015  0.86002  1.0000
  H   H421      1.0  0.58188  0.68570  0.85081  1.0000
  H   H422      1.0  0.56479  0.72616  0.85965  1.0000
  C   C432      1.0  0.36010  0.95935  0.90832  1.0000
  H   H423      1.0  0.33995  0.96519  0.54267  1.0000
  C   C433      1.0  0.66774  0.94957  0.51248  1.0000
  C   C434      1.0  0.35942  0.78451  0.79044  1.0000
  C   C435      1.0  0.52102  0.52811  0.54188  1.0000
  Fe  Fe78      1.0  0.37738  0.97667  0.62864  1.0000
  C   C436      1.0  0.65288  0.86669  0.77201  1.0000
  C   C437      1.0  0.38223  0.95660  0.93922  1.0000
  H   H424      1.0  0.49715  0.94444  0.68177  1.0000
  H   H425      1.0  0.35714  0.95471  0.74074  1.0000
  H   H426      1.0  0.37232  0.78234  0.72101  1.0000
  H   H427      1.0  0.49918  0.99584  0.80541  1.0000
  H   H428      1.0  0.35589  0.74111  0.75556  1.0000
  C   C438      1.0  0.49446  0.93409  0.72783  1.0000
  N   N39       1.0  0.56820  0.77245  0.99354  1.0000
  C   C439      1.0  0.36171  0.76992  0.76245  1.0000
  C   C440      1.0  0.65355  0.71792  0.69151  1.0000
  C   C441      1.0  0.50061  0.94811  0.75903  1.0000
  H   H429      1.0  0.60335  0.52951  0.69091  1.0000
  H   H430      1.0  0.61005  0.74927  0.00109  1.0000
  C   C442      1.0  0.51777  0.79151  0.97299  1.0000
  C   C443      1.0  0.36257  0.83566  0.82775  1.0000
  C   C444      1.0  0.55646  0.83610  0.97912  1.0000
  C   C445      1.0  0.57544  0.53454  0.71752  1.0000
  H   H431      1.0  0.36704  0.86602  0.83105  1.0000
  C   C446      1.0  0.51559  0.75341  0.56897  1.0000
  H   H432      1.0  0.49142  0.71126  0.72256  1.0000
  H   H433      1.0  0.50230  0.79194  0.59789  1.0000
  C   C447      1.0  0.50888  0.51082  0.56186  1.0000
  C   C448      1.0  0.47854  0.71212  0.53484  1.0000
  H   H434      1.0  0.48314  0.90758  0.72018  1.0000
  H   H435      1.0  0.39927  0.93619  0.94332  1.0000
  H   H436      1.0  0.52693  0.55727  0.54544  1.0000
  H   H437      1.0  0.63857  0.91208  0.72343  1.0000
  C   C449      1.0  0.49537  0.76983  0.57982  1.0000
  S   S148      1.0  0.35347  0.89018  0.97750  1.0000
  C   C450      1.0  0.65333  0.89031  0.72086  1.0000
  H   H438      1.0  0.63970  0.75681  0.94254  1.0000
  H   H439      1.0  0.49459  0.78453  0.96586  1.0000
  C   C451      1.0  0.52660  0.82767  0.96985  1.0000
  H   H440      1.0  0.45047  0.76904  0.57632  1.0000
  C   C452      1.0  0.45785  0.72763  0.54546  1.0000
  S   S149      1.0  0.37039  0.91449  0.62911  1.0000
  S   S150      1.0  0.34456  0.86403  0.89137  1.0000
  H   H441      1.0  0.60019  0.81462  0.99742  1.0000
  Fe  Fe79      1.0  0.36767  0.92479  0.67801  1.0000
  C   C453      1.0  0.37849  0.82988  0.75244  1.0000
  C   C454      1.0  0.37603  0.84353  0.78062  1.0000
  H   H442      1.0  0.53834  0.76297  0.57908  1.0000
  C   C455      1.0  0.37109  0.79292  0.74322  1.0000
  H   H443      1.0  0.53666  0.97878  0.81947  1.0000
  C   C456      1.0  0.52650  0.50881  0.69123  1.0000
  H   H444      1.0  0.64664  0.89394  0.77740  1.0000
  H   H445      1.0  0.43554  0.71658  0.53699  1.0000
  H   H446      1.0  0.56360  0.86388  0.97594  1.0000
  H   H447      1.0  0.56676  0.51843  0.62253  1.0000
  S   S151      1.0  0.54259  0.54380  0.97710  1.0000
  C   C457      1.0  0.57710  0.80801  0.99116  1.0000
  S   S152      1.0  0.33890  0.76106  0.86218  1.0000
  C   C458      1.0  0.66693  0.80395  0.78892  1.0000
  H   H448      1.0  0.53180  0.73606  0.98735  1.0000
  C   C459      1.0  0.34383  0.93643  0.74880  1.0000
  C   C460      1.0  0.65737  0.83854  0.79472  1.0000
  C   C461      1.0  0.52287  0.00205  0.74770  1.0000
  H   H449      1.0  0.47061  0.51444  0.94142  1.0000
  C   C462      1.0  0.51675  0.98907  0.71618  1.0000
  C   C463      1.0  0.65442  0.76041  0.65028  1.0000
  C   C464      1.0  0.66659  0.82642  0.73814  1.0000
  H   H450      1.0  0.66419  0.70607  0.71526  1.0000
  H   H451      1.0  0.34929  0.96966  0.79113  1.0000
  C   C465      1.0  0.52831  0.70765  0.53556  1.0000
  C   C466      1.0  0.33941  0.94478  0.77741  1.0000
  C   C467      1.0  0.54752  0.52756  0.71745  1.0000
  C   C468      1.0  0.33731  0.98423  0.90311  1.0000
  H   H452      1.0  0.42640  0.98973  0.99528  1.0000
  H   H453      1.0  0.47195  0.68894  0.51785  1.0000
  H   H454      1.0  0.54889  0.72455  0.54233  1.0000
  C   C469      1.0  0.40626  0.97629  0.99586  1.0000
  H   H455      1.0  0.66561  0.78148  0.64199  1.0000
  H   H456      1.0  0.59161  0.55008  0.73744  1.0000
  H   H457      1.0  0.44245  0.50808  0.97690  1.0000
  C   C470      1.0  0.58192  0.52283  0.69116  1.0000
  N   N40       1.0  0.56128  0.50410  0.66568  1.0000
  H   H458      1.0  0.35181  0.76665  0.80516  1.0000
  H   H459      1.0  0.43811  0.00358  0.56286  1.0000
  H   H460      1.0  0.40095  0.98917  0.55669  1.0000
  H   H461      1.0  0.41077  0.94670  0.00274  1.0000
  H   H462      1.0  0.50450  0.50405  0.69057  1.0000
  Fe  Fe80      1.0  0.77156  0.15421  0.20205  1.0000
  S   S153      1.0  0.77157  0.09269  0.21034  1.0000
  S   S154      1.0  0.81148  0.19400  0.21960  1.0000
  Fe  Fe81      1.0  0.70441  0.15649  0.17058  1.0000
  S   S155      1.0  0.70003  0.09550  0.17722  1.0000
  C   C471      1.0  0.80370  0.16662  0.29551  1.0000
  Fe  Fe82      1.0  0.73456  0.10412  0.22676  1.0000
  S   S156      1.0  0.73090  0.07081  0.26795  1.0000
  Fe  Fe83      1.0  0.73660  0.08875  0.15971  1.0000
  S   S157      1.0  0.73045  0.03757  0.12732  1.0000
  S   S158      1.0  0.73642  0.16588  0.22187  1.0000
  S   S159      1.0  0.73913  0.14955  0.14986  1.0000
  H   H463      1.0  0.80963  0.48046  0.49080  1.0000
  C   C472      1.0  0.83686  0.48679  0.01802  1.0000
  H   H464      1.0  0.76073  0.10565  0.35412  1.0000
  S   S160      1.0  0.95012  0.16731  0.27024  1.0000
  H   H465      1.0  0.68939  0.23567  0.19414  1.0000
  C   C473      1.0  0.69380  0.06804  0.33460  1.0000
  H   H466      1.0  0.82320  0.13386  0.26878  1.0000
  H   H467      1.0  0.86008  0.42893  0.49441  1.0000
  C   C474      1.0  0.83934  0.45464  0.03610  1.0000
  C   C475      1.0  0.70412  0.02760  0.01708  1.0000
  C   C476      1.0  0.91285  0.27841  0.19660  1.0000
  S   S161      1.0  0.94919  0.47017  0.22655  1.0000
  H   H468      1.0  0.94667  0.17701  0.20357  1.0000
  S   S162      1.0  0.98417  0.27164  0.28112  1.0000
  C   C477      1.0  0.86599  0.24648  0.18018  1.0000
  H   H469      1.0  0.79488  0.45942  0.07702  1.0000
  H   H470      1.0  0.91216  0.15355  0.19047  1.0000
  H   H471      1.0  0.90224  0.48760  0.04909  1.0000
  H   H472      1.0  0.99045  0.46933  0.29387  1.0000
  H   H473      1.0  0.83244  0.39533  0.03371  1.0000
  C   C478      1.0  0.95297  0.41262  0.18708  1.0000
  C   C479      1.0  0.95786  0.42469  0.21856  1.0000
  H   H474      1.0  0.91015  0.38700  0.05314  1.0000
  C   C480      1.0  0.79376  0.45682  0.12446  1.0000
  C   C481      1.0  0.97525  0.35311  0.20779  1.0000
  H   H475      1.0  0.94286  0.43092  0.16692  1.0000
  H   H476      1.0  0.79518  0.42681  0.12553  1.0000
  C   C482      1.0  0.83059  0.42034  0.01989  1.0000
  C   C483      1.0  0.72050  0.03479  0.08486  1.0000
  C   C484      1.0  0.72238  0.06545  0.06676  1.0000
  H   H477      1.0  0.68972  0.04728  0.34978  1.0000
  H   H478      1.0  0.92612  0.30366  0.20365  1.0000
  H   H479      1.0  0.78298  0.19157  0.32483  1.0000
  C   C485      1.0  0.82816  0.49965  0.49850  1.0000
  C   C486      1.0  0.84994  0.18535  0.23519  1.0000
  C   C487      1.0  0.86119  0.15019  0.23380  1.0000
  C   C488      1.0  0.89188  0.14513  0.24519  1.0000
  C   C489      1.0  0.91171  0.17515  0.25759  1.0000
  C   C490      1.0  0.90045  0.21024  0.25916  1.0000
  C   C491      1.0  0.86977  0.21517  0.24834  1.0000
  H   H480      1.0  0.84629  0.12696  0.22368  1.0000
  H   H481      1.0  0.90035  0.11782  0.24401  1.0000
  H   H482      1.0  0.91538  0.23356  0.26883  1.0000
  H   H483      1.0  0.86137  0.24247  0.24969  1.0000
  C   C492      1.0  0.71296  0.08475  0.29349  1.0000
  H   H484      1.0  0.73029  0.09185  0.07881  1.0000
  C   C493      1.0  0.79219  0.47719  0.15037  1.0000
  C   C494      1.0  0.68590  0.10481  0.33658  1.0000
  C   C495      1.0  0.69147  0.13151  0.31679  1.0000
  C   C496      1.0  0.70471  0.12150  0.29508  1.0000
  H   H485      1.0  0.83819  0.50269  0.26549  1.0000
  H   H486      1.0  0.94943  0.24439  0.20051  1.0000
  C   C497      1.0  0.90208  0.39858  0.02903  1.0000
  H   H487      1.0  0.70882  0.14221  0.27990  1.0000
  C   C498      1.0  0.77216  0.13254  0.35441  1.0000
  N   N41       1.0  0.78537  0.13275  0.33010  1.0000
  S   S163      1.0  0.66969  0.11857  0.36390  1.0000
  C   C499      1.0  0.92383  0.17752  0.18504  1.0000
  C   C500      1.0  0.97090  0.40055  0.24448  1.0000
  S   S164      1.0  0.87186  0.49564  0.16313  1.0000
  C   C501      1.0  0.92600  0.24468  0.19496  1.0000
  C   C502      1.0  0.97970  0.36502  0.23916  1.0000
  H   H488      1.0  0.80705  0.19267  0.28525  1.0000
  H   H489      1.0  0.91169  0.44847  0.07489  1.0000
  Fe  Fe84      1.0  0.87520  0.50255  0.11462  1.0000
  C   C503      1.0  0.88267  0.27922  0.18932  1.0000
  H   H490      1.0  0.86691  0.18773  0.17267  1.0000
  H   H491      1.0  0.92444  0.17381  0.16068  1.0000
  H   H492      1.0  0.79029  0.07397  0.33052  1.0000
  H   H493      1.0  0.95805  0.36781  0.15740  1.0000
  C   C504      1.0  0.96166  0.37691  0.18174  1.0000
  S   S165      1.0  0.98601  0.30845  0.20061  1.0000
  H   H494      1.0  0.87231  0.30512  0.19099  1.0000
  C   C505      1.0  0.87991  0.21321  0.17891  1.0000
  C   C506      1.0  0.79000  0.16573  0.31771  1.0000
  C   C507      1.0  0.79380  0.47545  0.09716  1.0000
  S   S166      1.0  0.85307  0.45558  0.07890  1.0000
  H   H495      1.0  0.71394  0.02970  0.31237  1.0000
  H   H496      1.0  0.84259  0.24652  0.17519  1.0000
  C   C508      1.0  0.91419  0.46091  0.05338  1.0000
  H   H497      1.0  0.99010  0.34697  0.25941  1.0000
  H   H498      1.0  0.75526  0.15438  0.34947  1.0000
  C   C509      1.0  0.70756  0.05818  0.31341  1.0000
  H   H499      1.0  0.67175  0.29444  0.20947  1.0000
  N   N42       1.0  0.90964  0.21256  0.18678  1.0000
  C   C510      1.0  0.79442  0.10022  0.32122  1.0000
  C   C511      1.0  0.71453  0.06171  0.03309  1.0000
  C   C512      1.0  0.80804  0.10009  0.29896  1.0000
  C   C513      1.0  0.81281  0.13356  0.28619  1.0000
  H   H500      1.0  0.81434  0.07413  0.29120  1.0000
  H   H501      1.0  0.97437  0.40928  0.26885  1.0000
  H   H502      1.0  0.89079  0.34478  0.00529  1.0000
  H   H503      1.0  0.78943  0.13720  0.37893  1.0000
  Fe  Fe85      1.0  0.98754  0.20967  0.27888  1.0000
  H   H504      1.0  0.71654  0.08545  0.01938  1.0000
  N   N43       1.0  0.90210  0.43619  0.02499  1.0000
  H   H505      1.0  0.79235  0.46320  0.17183  1.0000
  H   H506      1.0  0.89914  0.47484  0.49921  1.0000
  H   H507      1.0  0.93786  0.46667  0.05915  1.0000
  H   H508      1.0  0.68540  0.16004  0.31822  1.0000
  S   S167      1.0  0.68275  0.02094  0.50002  1.0000
  H   H509      1.0  0.85101  0.36036  0.50220  1.0000
  S   S168      1.0  0.99742  0.16587  0.85507  1.0000
  Fe  Fe86      1.0  0.83311  0.32966  0.88583  1.0000
  S   S169      1.0  0.83779  0.39035  0.87862  1.0000
  S   S170      1.0  0.87701  0.30388  0.91471  1.0000
  Fe  Fe87      1.0  0.76610  0.33143  0.85223  1.0000
  S   S171      1.0  0.76624  0.39256  0.84254  1.0000
  S   S172      1.0  0.72645  0.29139  0.83532  1.0000
  Fe  Fe88      1.0  0.80460  0.38045  0.82852  1.0000
  S   S173      1.0  0.81172  0.41228  0.78865  1.0000
  Fe  Fe89      1.0  0.79988  0.39762  0.89379  1.0000
  S   S174      1.0  0.80285  0.44885  0.92493  1.0000
  S   S175      1.0  0.80230  0.31891  0.83426  1.0000
  S   S176      1.0  0.79724  0.33724  0.90476  1.0000
  Fe  Fe90      1.0  0.88173  0.44387  0.60442  1.0000
  S   S177      1.0  0.93042  0.45557  0.62247  1.0000
  H   H510      1.0  0.94743  0.01170  0.88512  1.0000
  Fe  Fe91      1.0  0.88748  0.39747  0.66424  1.0000
  S   S178      1.0  0.93637  0.40610  0.68587  1.0000
  S   S179      1.0  0.86860  0.35725  0.69060  1.0000
  Fe  Fe92      1.0  0.92692  0.46538  0.67060  1.0000
  Fe  Fe93      1.0  0.93535  0.39513  0.63614  1.0000
  S   S180      1.0  0.97108  0.36058  0.62947  1.0000
  S   S181      1.0  0.87772  0.45759  0.65197  1.0000
  S   S182      1.0  0.88704  0.38253  0.61500  1.0000
  H   H511      1.0  0.94084  0.33204  0.88733  1.0000
  S   S183      1.0  0.95867  0.19000  0.58702  1.0000
  Fe  Fe94      1.0  0.96620  0.14413  0.87656  1.0000
  S   S184      1.0  0.91931  0.16438  0.85799  1.0000
  C   C514      1.0  0.99803  0.17940  0.67718  1.0000
  C   C515      1.0  0.93304  0.44438  0.53606  1.0000
  C   C516      1.0  0.95161  0.14408  0.65761  1.0000
  C   C517      1.0  0.93927  0.41274  0.55517  1.0000
  H   H512      1.0  0.95764  0.27040  0.67731  1.0000
  C   C518      1.0  0.96683  0.31333  0.61713  1.0000
  C   C519      1.0  0.93974  0.29456  0.60750  1.0000
  C   C520      1.0  0.93740  0.25699  0.59768  1.0000
  C   C521      1.0  0.96217  0.23773  0.59791  1.0000
  H   H513      1.0  0.89175  0.48058  0.99128  1.0000
  C   C522      1.0  0.99144  0.29424  0.61685  1.0000
  H   H514      1.0  0.92062  0.30887  0.60769  1.0000
  H   H515      1.0  0.91640  0.24262  0.59026  1.0000
  H   H516      1.0  0.98767  0.40052  0.76830  1.0000
  C   C523      1.0  0.88249  0.42367  0.51087  1.0000
  C   C524      1.0  0.81666  0.45022  0.96773  1.0000
  C   C525      1.0  0.81956  0.41804  0.98586  1.0000
  H   H517      1.0  0.75090  0.41856  0.73399  1.0000
  C   C526      1.0  0.82521  0.48458  0.98394  1.0000
  S   S185      1.0  0.97100  0.08512  0.86375  1.0000
  C   C527      1.0  0.91668  0.38722  0.55185  1.0000
  H   H518      1.0  0.81298  0.39147  0.97364  1.0000
  H   H519      1.0  0.95545  0.05207  0.99275  1.0000
  C   C528      1.0  0.82925  0.39625  0.76324  1.0000
  C   C529      1.0  0.83701  0.42212  0.74449  1.0000
  C   C530      1.0  0.84965  0.41060  0.72270  1.0000
  C   C531      1.0  0.85422  0.37294  0.71905  1.0000
  C   C532      1.0  0.84651  0.34695  0.73788  1.0000
  C   C533      1.0  0.83422  0.35854  0.76007  1.0000
  H   H520      1.0  0.83311  0.45132  0.74670  1.0000
  H   H521      1.0  0.85540  0.43085  0.70830  1.0000
  H   H522      1.0  0.84980  0.31774  0.73494  1.0000
  H   H523      1.0  0.82789  0.33835  0.77401  1.0000
  C   C534      1.0  0.88834  0.26453  0.89923  1.0000
  C   C535      1.0  0.86968  0.24701  0.87064  1.0000
  C   C536      1.0  0.87943  0.21606  0.85853  1.0000
  C   C537      1.0  0.90798  0.20270  0.87468  1.0000
  C   C538      1.0  0.92669  0.22016  0.90331  1.0000
  C   C539      1.0  0.91681  0.25094  0.91561  1.0000
  H   H524      1.0  0.84765  0.25707  0.85800  1.0000
  H   H525      1.0  0.86484  0.20248  0.83645  1.0000
  H   H526      1.0  0.94873  0.21003  0.91591  1.0000
  H   H527      1.0  0.93133  0.26441  0.93778  1.0000
  C   C540      1.0  0.68802  0.29986  0.82047  1.0000
  N   N44       1.0  0.90705  0.31411  0.84288  1.0000
  C   C541      1.0  0.93427  0.31227  0.86734  1.0000
  C   C542      1.0  0.89872  0.28899  0.81777  1.0000
  C   C543      1.0  0.95373  0.28419  0.86742  1.0000
  C   C544      1.0  0.91748  0.26030  0.81730  1.0000
  C   C545      1.0  0.94510  0.25790  0.84235  1.0000
  C   C546      1.0  0.88684  0.34368  0.84290  1.0000
  H   H528      1.0  0.71098  0.34208  0.77845  1.0000
  H   H529      1.0  0.87725  0.29066  0.79826  1.0000
  H   H530      1.0  0.97505  0.28223  0.88722  1.0000
  H   H531      1.0  0.91043  0.23951  0.79806  1.0000
  H   H532      1.0  0.69836  0.29339  0.89534  1.0000
  C   C547      1.0  0.67671  0.33544  0.81972  1.0000
  H   H533      1.0  0.95948  0.23517  0.84269  1.0000
  C   C548      1.0  0.67622  0.28184  0.88746  1.0000
  C   C549      1.0  0.75075  0.32429  0.73368  1.0000
  C   C550      1.0  0.85045  0.49623  0.52952  1.0000
  H   H534      1.0  0.95017  0.46490  0.53901  1.0000
  S   S186      1.0  0.84822  0.45904  0.55442  1.0000
  H   H535      1.0  0.75996  0.30134  0.72508  1.0000
  H   H536      1.0  0.77039  0.36565  0.71306  1.0000
  C   C551      1.0  0.93920  0.09798  0.96026  1.0000
  S   S187      1.0  0.99794  0.08430  0.79535  1.0000
  C   C552      1.0  0.72871  0.27983  0.75936  1.0000
  N   N45       1.0  0.88871  0.39292  0.52993  1.0000
  H   H537      1.0  0.74674  0.27149  0.78221  1.0000
  H   H538      1.0  0.98627  0.06756  0.72907  1.0000
  C   C553      1.0  0.86478  0.36719  0.52787  1.0000
  N   N46       1.0  0.73394  0.31794  0.75144  1.0000
  H   H539      1.0  0.89274  0.35607  0.86747  1.0000
  C   C554      1.0  0.88042  0.38926  0.97108  1.0000
  C   C555      1.0  0.72895  0.38362  0.75692  1.0000
  H   H540      1.0  0.69154  0.35908  0.82789  1.0000
  H   H541      1.0  0.68979  0.22612  0.88434  1.0000
  H   H542      1.0  0.92998  0.21107  0.66051  1.0000
  H   H543      1.0  0.85068  0.38028  0.53924  1.0000
  C   C556      1.0  0.95374  0.21111  0.66861  1.0000
  S   S188      1.0  0.69488  0.02455  0.97476  1.0000
  H   H544      1.0  0.87170  0.43934  0.94311  1.0000
  N   N47       1.0  0.96823  0.17892  0.66867  1.0000
  C   C557      1.0  0.88086  0.42758  0.96718  1.0000
  H   H545      1.0  0.72110  0.40667  0.76697  1.0000
  H   H546      1.0  0.94369  0.11853  0.97947  1.0000
  H   H547      1.0  0.86409  0.33246  0.83554  1.0000
  C   C558      1.0  0.96926  0.24477  0.67808  1.0000
  H   H548      1.0  0.93096  0.14405  0.66211  1.0000
  H   H549      1.0  0.96127  0.40835  0.57309  1.0000
  C   C559      1.0  0.98918  0.25661  0.60743  1.0000
  H   H550      1.0  0.87321  0.34079  0.54056  1.0000
  H   H551      1.0  0.91371  0.09081  0.87844  1.0000
  C   C560      1.0  0.94036  0.03482  0.94262  1.0000
  N   N48       1.0  0.92899  0.04564  0.91100  1.0000
  H   H552      1.0  0.99700  0.45611  0.74170  1.0000
  C   C561      1.0  0.89202  0.45078  0.99456  1.0000
  C   C562      1.0  0.72343  0.34704  0.76343  1.0000
  H   H553      1.0  0.96465  0.12004  0.67068  1.0000
  H   H554      1.0  0.70761  0.27740  0.76293  1.0000
  C   C563      1.0  0.94569  0.06077  0.96772  1.0000
  H   H555      1.0  0.92239  0.13762  0.92178  1.0000
  C   C564      1.0  0.00244  0.42223  0.78273  1.0000
  H   H556      1.0  0.94605  0.14015  0.63123  1.0000
  C   C565      1.0  0.75660  0.36052  0.72662  1.0000
  H   H557      1.0  0.87143  0.37095  0.95010  1.0000
  H   H558      1.0  0.72735  0.26008  0.73964  1.0000
  C   C566      1.0  0.92239  0.08204  0.90347  1.0000
  H   H559      1.0  0.88699  0.36586  0.82582  1.0000
  C   C567      1.0  0.92731  0.10872  0.92794  1.0000
  C   C568      1.0  0.74552  0.39030  0.73826  1.0000
  C   C569      1.0  0.92548  0.01822  0.88536  1.0000
  H   H560      1.0  0.74527  0.01500  0.90058  1.0000
  S   S189      1.0  0.00191  0.09905  0.61818  1.0000
  Fe  Fe95      1.0  0.99883  0.15478  0.59470  1.0000
  H   H561      1.0  0.92162  0.36317  0.56734  1.0000
  H   H562      1.0  0.71424  0.00954  0.56800  1.0000
  H   H563      1.0  0.91142  0.02863  0.86105  1.0000
  H   H564      1.0  0.67675  0.24190  0.81006  1.0000
  S   S190      1.0  0.99966  0.13878  0.92746  1.0000
  C   C570      1.0  0.67118  0.24379  0.88091  1.0000
  H   H565      1.0  0.74330  0.01708  0.95499  1.0000
  C   C571      1.0  0.90451  0.44986  0.51363  1.0000
  H   H566      1.0  0.94628  0.00612  0.94861  1.0000
  C   C572      1.0  0.99970  0.24540  0.68708  1.0000
  C   C573      1.0  0.89118  0.37457  0.00216  1.0000
  N   N49       1.0  0.87438  0.66878  0.28707  1.0000
  Fe  Fe96      1.0  0.82365  0.60072  0.40989  1.0000
  S   S191      1.0  0.79888  0.65444  0.39937  1.0000
  S   S192      1.0  0.85600  0.58898  0.46136  1.0000
  Fe  Fe97      1.0  0.80435  0.58265  0.33720  1.0000
  S   S193      1.0  0.77790  0.63432  0.32145  1.0000
  S   S194      1.0  0.81052  0.54025  0.30282  1.0000
  Fe  Fe98      1.0  0.81671  0.66192  0.36057  1.0000
  S   S195      1.0  0.83455  0.71600  0.35002  1.0000
  Fe  Fe99      1.0  0.76210  0.62231  0.36136  1.0000
  S   S196      1.0  0.71503  0.62495  0.35899  1.0000
  S   S197      1.0  0.84410  0.61103  0.37350  1.0000
  S   S198      1.0  0.78580  0.56766  0.37451  1.0000
  H   H567      1.0  0.88509  0.67263  0.24522  1.0000
  Fe  Fe100     1.0  0.91775  0.56890  0.13863  1.0000
  S   S199      1.0  0.86839  0.56441  0.11378  1.0000
  S   S200      1.0  0.94983  0.60733  0.12806  1.0000
  Fe  Fe101     1.0  0.86955  0.55759  0.16449  1.0000
  S   S201      1.0  0.83960  0.59067  0.18230  1.0000
  H   H568      1.0  0.86520  0.65731  0.32891  1.0000
  H   H569      1.0  0.70800  0.67175  0.30316  1.0000
  S   S202      1.0  0.91836  0.56598  0.18902  1.0000
  C   C574      1.0  0.90958  0.65919  0.49564  1.0000
  H   H570      1.0  0.84372  0.51335  0.03015  1.0000
  S   S203      1.0  0.96693  0.76016  0.43205  1.0000
  C   C575      1.0  0.88409  0.65510  0.26436  1.0000
  H   H571      1.0  0.96774  0.80141  0.16612  1.0000
  S   S204      1.0  0.93897  0.77936  0.09345  1.0000
  H   H572      1.0  0.98892  0.65901  0.11655  1.0000
  C   C576      1.0  0.68936  0.57050  0.29291  1.0000
  H   H573      1.0  0.77069  0.53053  0.04762  1.0000
  C   C577      1.0  0.68520  0.65078  0.33210  1.0000
  H   H574      1.0  0.74996  0.56135  0.25877  1.0000
  H   H575      1.0  0.89602  0.56577  0.28935  1.0000
  C   C578      1.0  0.94517  0.65450  0.11633  1.0000
  C   C579      1.0  0.91929  0.67370  0.11151  1.0000
  C   C580      1.0  0.91738  0.71177  0.10381  1.0000
  C   C581      1.0  0.94139  0.73102  0.10124  1.0000
  C   C582      1.0  0.96708  0.71163  0.10577  1.0000
  C   C583      1.0  0.96887  0.67361  0.11309  1.0000
  H   H576      1.0  0.90082  0.65929  0.11378  1.0000
  H   H577      1.0  0.89733  0.72645  0.10011  1.0000
  N   N50       1.0  0.89768  0.69360  0.47861  1.0000
  H   H578      1.0  0.96042  0.85877  0.23481  1.0000
  C   C584      1.0  0.85320  0.55294  0.48703  1.0000
  C   C585      1.0  0.71344  0.52556  0.33520  1.0000
  S   S205      1.0  0.92451  0.50730  0.13564  1.0000
  C   C586      1.0  0.87289  0.64640  0.31096  1.0000
  C   C587      1.0  0.81899  0.55491  0.26975  1.0000
  S   S206      1.0  0.99998  0.82744  0.06399  1.0000
  C   C588      1.0  0.83962  0.54104  0.22926  1.0000
  C   C589      1.0  0.83215  0.57636  0.21613  1.0000
  C   C590      1.0  0.81807  0.60086  0.22989  1.0000
  C   C591      1.0  0.81186  0.59040  0.25686  1.0000
  C   C592      1.0  0.95997  0.77942  0.17839  1.0000
  C   C593      1.0  0.73262  0.56391  0.26797  1.0000
  H   H579      1.0  0.81216  0.62820  0.21980  1.0000
  H   H580      1.0  0.80122  0.60963  0.26739  1.0000
  C   C594      1.0  0.87233  0.72612  0.37013  1.0000
  C   C595      1.0  0.89117  0.70114  0.39185  1.0000
  C   C596      1.0  0.92075  0.71103  0.40935  1.0000
  C   C597      1.0  0.93166  0.74587  0.40519  1.0000
  C   C598      1.0  0.91320  0.77017  0.38237  1.0000
  C   C599      1.0  0.88354  0.76034  0.36496  1.0000
  H   H581      1.0  0.88280  0.67481  0.39615  1.0000
  H   H582      1.0  0.93500  0.69215  0.42697  1.0000
  H   H583      1.0  0.92144  0.79717  0.37916  1.0000
  H   H584      1.0  0.86907  0.77976  0.34812  1.0000
  H   H585      1.0  0.94738  0.70671  0.17449  1.0000
  H   H586      1.0  0.83363  0.72762  0.42548  1.0000
  C   C600      1.0  0.99052  0.68348  0.19277  1.0000
  C   C601      1.0  0.68732  0.67062  0.30633  1.0000
  H   H587      1.0  0.70876  0.60504  0.23336  1.0000
  H   H588      1.0  0.79059  0.56363  0.12050  1.0000
  H   H589      1.0  0.85046  0.52190  0.21889  1.0000
  C   C602      1.0  0.73359  0.54319  0.29467  1.0000
  C   C603      1.0  0.89234  0.61799  0.26507  1.0000
  H   H590      1.0  0.87870  0.59109  0.33062  1.0000
  H   H591      1.0  0.89905  0.60690  0.24637  1.0000
  H   H592      1.0  0.88412  0.72343  0.30632  1.0000
  C   C604      1.0  0.99877  0.84879  0.27798  1.0000
  H   H593      1.0  0.75189  0.52466  0.30578  1.0000
  H   H594      1.0  0.97669  0.93016  0.28378  1.0000
  H   H595      1.0  0.70877  0.97676  0.08270  1.0000
  H   H596      1.0  0.98553  0.72579  0.10329  1.0000
  N   N51       1.0  0.71210  0.54669  0.30680  1.0000
  H   H597      1.0  0.96021  0.93338  0.32926  1.0000
  H   H598      1.0  0.85408  0.67130  0.45742  1.0000
  C   C605      1.0  0.86839  0.69510  0.45940  1.0000
  H   H599      1.0  0.95748  0.79141  0.20010  1.0000
  S   S207      1.0  0.97859  0.84862  0.30327  1.0000
  C   C606      1.0  0.87511  0.75723  0.44344  1.0000
  C   C607      1.0  0.88081  0.60910  0.31228  1.0000
  H   H600      1.0  0.98238  0.65499  0.18877  1.0000
  C   C608      1.0  0.86644  0.70790  0.28671  1.0000
  C   C609      1.0  0.98399  0.85501  0.24466  1.0000
  C   C610      1.0  0.91600  0.72310  0.48038  1.0000
  Fe  Fe102     1.0  0.99265  0.80000  0.41371  1.0000
  S   S208      1.0  0.97993  0.85645  0.39181  1.0000
  C   C611      1.0  0.70955  0.58838  0.25376  1.0000
  H   H601      1.0  0.98797  0.86210  0.19850  1.0000
  C   C612      1.0  0.68770  0.59166  0.26621  1.0000
  C   C613      1.0  0.89060  0.59489  0.28916  1.0000
  H   H602      1.0  0.81210  0.53013  0.45365  1.0000
  H   H603      1.0  0.84560  0.71059  0.29071  1.0000
  H   H604      1.0  0.86299  0.72111  0.26320  1.0000
  H   H605      1.0  0.79986  0.56178  0.07219  1.0000
  C   C614      1.0  0.82950  0.52778  0.47734  1.0000
  C   C615      1.0  0.85666  0.72691  0.44154  1.0000
  H   H606      1.0  0.69380  0.97067  0.02309  1.0000
  C   C616      1.0  0.83267  0.53021  0.25568  1.0000
  N   N52       1.0  0.98081  0.74882  0.18779  1.0000
  Fe  Fe103     1.0  0.98068  0.81255  0.10076  1.0000
  C   C617      1.0  0.70179  0.99708  0.03506  1.0000
  H   H607      1.0  0.93806  0.77014  0.16061  1.0000
  H   H608      1.0  0.99863  0.91589  0.48400  1.0000
  C   C618      1.0  0.79055  0.51575  0.14861  1.0000
  C   C619      1.0  0.90495  0.75547  0.46310  1.0000
  C   C620      1.0  0.98302  0.93936  0.33342  1.0000
  H   H609      1.0  0.91976  0.77823  0.46361  1.0000
  Fe  Fe104     1.0  0.00095  0.83812  0.35734  1.0000
  C   C621      1.0  0.71026  0.00062  0.06884  1.0000
  H   H610      1.0  0.86652  0.78147  0.42874  1.0000
  H   H611      1.0  0.78923  0.53193  0.16853  1.0000
  C   C622      1.0  0.79120  0.53354  0.12122  1.0000
  H   H612      1.0  0.93946  0.72145  0.49439  1.0000
  H   H613      1.0  0.99627  0.94889  0.38478  1.0000
  S   S209      1.0  0.98793  0.87048  0.12243  1.0000
  C   C623      1.0  0.97077  0.71289  0.18450  1.0000
  H   H614      1.0  0.80883  0.51885  0.05827  1.0000
  C   C624      1.0  0.79302  0.53214  0.06711  1.0000
  H   H615      1.0  0.76804  0.94250  0.01363  1.0000
  Fe  Fe105     1.0  0.92077  0.50415  0.18386  1.0000
  H   H616      1.0  0.71650  0.54491  0.35578  1.0000
  N   N53       1.0  0.79308  0.51337  0.09607  1.0000
  H   H617      1.0  0.67279  0.57407  0.30312  1.0000
  C   C625      1.0  0.99254  0.93749  0.30775  1.0000
  C   C626      1.0  0.99952  0.85678  0.22403  1.0000
  H   H618      1.0  0.98997  0.50893  0.33905  1.0000
  H   H619      1.0  0.69271  0.50943  0.32967  1.0000
  H   H620      1.0  0.91193  0.63844  0.47830  1.0000
  H   H621      1.0  0.75579  0.98946  0.00698  1.0000
  H   H622      1.0  0.66989  0.61105  0.25576  1.0000
  H   H623      1.0  0.73201  0.50586  0.34315  1.0000
  Fe  Fe106     1.0  0.74182  0.88848  0.71554  1.0000
  S   S210      1.0  0.76538  0.83453  0.73106  1.0000
  S   S211      1.0  0.73554  0.93185  0.74947  1.0000
  Fe  Fe107     1.0  0.72083  0.86987  0.64307  1.0000
  S   S212      1.0  0.74190  0.81374  0.65370  1.0000
  S   S213      1.0  0.69285  0.88040  0.58973  1.0000
  Fe  Fe108     1.0  0.72444  0.80976  0.69294  1.0000
  H   H624      1.0  0.69298  0.95631  0.83055  1.0000
  Fe  Fe109     1.0  0.78141  0.84302  0.69064  1.0000
  S   S214      1.0  0.82423  0.82630  0.68517  1.0000
  S   S215      1.0  0.70017  0.86307  0.67962  1.0000
  S   S216      1.0  0.76107  0.89973  0.67776  1.0000
  H   H625      1.0  0.74856  0.81733  0.54942  1.0000
  Fe  Fe110     1.0  0.99177  0.76497  0.77769  1.0000
  C   C627      1.0  0.77777  0.86483  0.60606  1.0000
  S   S217      1.0  0.95538  0.79694  0.78614  1.0000
  H   H626      1.0  0.76513  0.89904  0.91255  1.0000
  C   C628      1.0  0.73723  0.83493  0.56134  1.0000
  H   H627      1.0  0.82304  0.50959  0.97001  1.0000
  S   S218      1.0  0.70107  0.88841  0.86837  1.0000
  N   N54       1.0  0.75538  0.86771  0.57633  1.0000
  H   H628      1.0  0.67933  0.77113  0.75574  1.0000
  S   S219      1.0  0.99004  0.70276  0.77709  1.0000
  H   H629      1.0  0.70722  0.97255  0.78456  1.0000
  N   N55       1.0  0.89729  0.70004  0.72009  1.0000
  C   C629      1.0  0.74881  0.99128  0.94614  1.0000
  C   C630      1.0  0.76131  0.92531  0.92223  1.0000
  C   C631      1.0  0.97336  0.62705  0.69552  1.0000
  C   C632      1.0  0.98088  0.61289  0.72662  1.0000
  C   C633      1.0  0.97345  0.57612  0.73070  1.0000
  C   C634      1.0  0.95900  0.55292  0.70380  1.0000
  C   C635      1.0  0.95138  0.56699  0.67262  1.0000
  C   C636      1.0  0.95846  0.60408  0.66852  1.0000
  H   H630      1.0  0.98798  0.95137  0.52608  1.0000
  H   H631      1.0  0.97904  0.56558  0.75487  1.0000
  H   H632      1.0  0.94020  0.54930  0.65175  1.0000
  H   H633      1.0  0.72922  0.95210  0.99361  1.0000
  C   C637      1.0  0.68864  0.92089  0.56599  1.0000
  C   C638      1.0  0.70188  0.98428  0.55810  1.0000
  H   H634      1.0  0.91039  0.66822  0.68723  1.0000
  H   H635      1.0  0.97499  0.86649  0.76907  1.0000
  H   H636      1.0  0.91524  0.99222  0.88955  1.0000
  C   C639      1.0  0.70423  0.95384  0.57858  1.0000
  C   C640      1.0  0.75170  0.96098  0.99625  1.0000
  C   C641      1.0  0.75966  0.92711  0.95272  1.0000
  H   H637      1.0  0.71841  0.95572  0.60397  1.0000
  C   C642      1.0  0.86076  0.81953  0.71376  1.0000
  C   C643      1.0  0.86916  0.82699  0.74686  1.0000
  C   C644      1.0  0.89827  0.82031  0.76857  1.0000
  C   C645      1.0  0.91920  0.80563  0.75758  1.0000
  C   C646      1.0  0.91082  0.79822  0.72448  1.0000
  C   C647      1.0  0.88186  0.80539  0.70274  1.0000
  H   H638      1.0  0.85326  0.83792  0.75575  1.0000
  H   H639      1.0  0.90448  0.82622  0.79411  1.0000
  H   H640      1.0  0.92665  0.78709  0.71559  1.0000
  H   H641      1.0  0.87566  0.79958  0.67719  1.0000
  C   C648      1.0  0.72567  0.91918  0.78221  1.0000
  C   C649      1.0  0.71188  0.94523  0.79504  1.0000
  C   C650      1.0  0.70387  0.93612  0.82115  1.0000
  C   C651      1.0  0.71030  0.90111  0.83522  1.0000
  C   C652      1.0  0.72435  0.87521  0.82261  1.0000
  C   C653      1.0  0.73155  0.88394  0.79589  1.0000
  H   H642      1.0  0.71536  0.84301  0.54328  1.0000
  C   C654      1.0  0.87424  0.52128  0.53917  1.0000
  H   H643      1.0  0.72942  0.84804  0.83331  1.0000
  H   H644      1.0  0.74220  0.86365  0.78630  1.0000
  S   S220      1.0  0.95206  0.50629  0.71064  1.0000
  H   H645      1.0  0.95254  0.61490  0.64439  1.0000
  C   C655      1.0  0.79528  0.89576  0.62091  1.0000
  S   S221      1.0  0.98186  0.67353  0.69000  1.0000
  H   H646      1.0  0.99885  0.94685  0.95100  1.0000
  H   H647      1.0  0.97815  0.87150  0.82273  1.0000
  H   H648      1.0  0.76273  0.95853  0.56195  1.0000
  H   H649      1.0  0.81258  0.89342  0.64484  1.0000
  C   C656      1.0  0.67032  0.91902  0.53288  1.0000
  C   C657      1.0  0.75050  0.90064  0.56020  1.0000
  C   C658      1.0  0.78991  0.92970  0.60505  1.0000
  H   H650      1.0  0.75658  0.95567  0.87929  1.0000
  H   H651      1.0  0.78193  0.83864  0.61872  1.0000
  C   C659      1.0  0.87557  0.54947  0.51803  1.0000
  C   C660      1.0  0.67155  0.79777  0.76044  1.0000
  H   H652      1.0  0.93471  0.70606  0.70800  1.0000
  C   C661      1.0  0.68368  0.98235  0.52494  1.0000
  S   S222      1.0  0.67454  0.91657  0.93812  1.0000
  H   H653      1.0  0.67500  0.90343  0.72494  1.0000
  H   H654      1.0  0.89400  0.56877  0.52582  1.0000
  H   H655      1.0  0.00014  0.91424  0.00033  1.0000
  C   C662      1.0  0.91998  0.68383  0.71057  1.0000
  H   H656      1.0  0.93347  0.66379  0.72891  1.0000
  C   C663      1.0  0.87005  0.70719  0.69711  1.0000
  C   C664      1.0  0.90409  0.70995  0.75176  1.0000
  C   C665      1.0  0.84854  0.72386  0.70578  1.0000
  C   C666      1.0  0.88308  0.72650  0.76128  1.0000
  C   C667      1.0  0.85512  0.73341  0.73810  1.0000
  H   H657      1.0  0.86492  0.70044  0.67185  1.0000
  H   H658      1.0  0.82716  0.73039  0.68748  1.0000
  H   H659      1.0  0.88879  0.73506  0.78629  1.0000
  H   H660      1.0  0.83888  0.74733  0.74493  1.0000
  N   N56       1.0  0.75398  0.95997  0.96453  1.0000
  S   S223      1.0  0.70395  0.75987  0.70693  1.0000
  H   H661      1.0  0.92604  0.70575  0.76980  1.0000
  Fe  Fe111     1.0  0.67281  0.92360  0.88717  1.0000
  H   H662      1.0  0.73259  0.81854  0.57985  1.0000
  C   C668      1.0  0.76752  0.93217  0.57438  1.0000
  C   C669      1.0  0.75632  0.95712  0.90343  1.0000
  C   C670      1.0  0.74997  0.99035  0.91538  1.0000
  H   H663      1.0  0.73262  0.90310  0.53673  1.0000
  H   H664      1.0  0.76257  0.90192  0.96666  1.0000
  H   H665      1.0  0.99845  0.86778  0.72920  1.0000
  H   H666      1.0  0.99254  0.63016  0.74759  1.0000
  H   H667      1.0  0.67053  0.82140  0.71623  1.0000
  C   C671      1.0  0.99881  0.86727  0.77762  1.0000
  Fe  Fe112     1.0  0.66995  0.97886  0.93870  1.0000
  S   S224      1.0  0.67257  0.98568  0.88978  1.0000
  H   H668      1.0  0.80290  0.95410  0.61661  1.0000
  H   H669      1.0  0.89157  0.51897  0.56294  1.0000
  H   H670      1.0  0.89445  0.64716  0.50629  1.0000
  H   H671      1.0  0.67125  0.78219  0.80670  1.0000
  C   C672      1.0  0.00186  0.86442  0.83371  1.0000
  H   H672      1.0  0.93128  0.66383  0.51573  1.0000
