data_image0
_chemical_formula_structural       FeS2FeS3CHNCFeHSFeS2CSCFeCSHCH2CHC2SHC3HNH2SNCHC6H4C6HCH2C6H8CHC2H6CHNH3C2HCHCHC3FeH4C4SHC2HCH2C2HCHSNH3CSCHFe2S2FeS2CSFeSFeHS2HCHSHFeCSHSH2SFeCSCHCHC2H2CHC6H5C2H6CH2C9HSH2C6H4CSCNSFeCH3C2H4CH3C2SH3C3HNC5NC2HNCHCH4CH2SCHCHC4H2C2FeN2HS2CFeS2FeSFeCS2H2SFeS2FeSHFeHFeS2FeS2FeS2H2CFe3HS2CSHFeSC6H3CNHSHSC6H4C6H5CHC3HC6H4C6HCH2C4HCH2CNC6H4SH3NC6H2CHCFeH3SC3HC2SH4CH2NCHCH4CH2SC2H2NCH5CH5CHCFeC2NHC2H2FeSHCHCNH2C5HSH2SC2S2CSCNH10CHSCH2S2FeSNHNHFeS2FeS2FeHFeS2H2SH3FeS2HCFeSCHC6H4C6H5C3SCSCFeHC6H4C6H4C6SH3CNCHFeH2C4NC6H9SH2FeCH2SHSHCFeSNC2FeCSH6S2CSCHCHC2SFeHSCHCHCHCFe2HCHCH2CSH2NCHC5SHCHCH3CHFeC2H2FeS2CS4HFeS2NHFeSHSH2C3SFe2SHC2SCHSH2C2H4SC2HC2H2FeC6H4NCHFeC6H4C6H4C2HC2H2CSH4SHNC5H7C3FeHSHC2H2C3HFeSHNHCHC5H3C3HCFeHNHNH2FeC2HFeCHS3NCHC3HCHSFeS2Fe2SHS3CHSC2HCHCHC2HC6H4SCHSCHC7H4C6H7CHCH4CH4CFeH2NSCNC3H5C2H3CHCH2C2HNCHNHCHFeHCFeH3CH2CH4CS2CH3FeS2FeSHS2FeCSCH3FeS2FeSFeSFeS4NCFeS2FeS3H2SC6H4CH2C5HS2C6H4C6H4C6H4C7H3SCHS2H2CHCSH2FeH2FeCH3NC6H6CH6CHSC4H3CNSH4NCHC3H2C4HCFeHNC3SHCH4CHSCH2C4SCSHFeHS3FeCSC2HCSHS2FeSHCFeSFeS2FeSFeS2FeS2FeSHFeSHSHC6H4CHC3HC7H4C2HCHNHC8H4C6H4C6H4CH2FeC2FeC2HFeH3NH2CFeSH2C3HS2CNCH2FeNC6H8NSCNH4C3H4C4NHC2HCFeH2C2HCH3SHSC3H2CHCHC2HFeCH4C2HS2NH2FeH2CHC6HC3H2CH2S2CSH2SCFeSFeS2CHCHFeS2HCHFeS2FeSCFeCFeS2FeS2FeS2HC6H4SHSCHCH2C6H4C6H5CHC9HFeH2C6H5C3H2NC6H9CHNH2C3HFeH2CS2CSNH5CS2C2H2CNC2HC2H4C2NCH2CHCH3SHCHSCH3CHCHSC2FeC3FeS2FeS2CFeSCS4FeS2H2CFeS2FeSFe2CS3C4S2HFeSC6H4C2H2SNHC3HCSC6H4C6H4C6H4C6H2CHC2H2CHSHCHCHC2HNC2SHC2HFeCSCH2CHC3NH2C5H2CH4CH2C2S2FeNH2CHSNSHCFeSC2H2C2H3CHCHCSHCHCFeCNFeSNH9CHCH4FeC3H2NHC2H3SHCH4CFeC2FeHFe2S2FeS2H4SFeHSC3SHSH2CH2FeS2FeS2HCNC2NCHC7H4C2SC2HC2H2CHC6HSH2C6H8CHCHCH2NC3HC3HSHC2HSH2CHCHSC2HCH2CHCHNHC2H2FeH2CNCH3CFeC2HNC2H5C4H4Fe2SHCN2HSHC2H2C2FeS2FeS3FeS2HFeS2HC3HCHCFeCSH4CHCFeH3C4NCSH4C6H4SC7H4C6H6CHCNH2SHC2NHSHCH6C4FeCSFeH5S3HFeS2FeS2FeS2FeSNSFeS2FeS2CFeSCSC2SFeSHNCHFeS2FeSFeCFeS4NC2NCH2FeC6H4C6H4C6H4C3H2C6H4C6H3CH3C2H5C2SHSCHSHNC3H2SHCHCH4C3HSH4C2SCHNHC2FeHCHCHCH2CHCH4CH2FeH4SNC6H2FeCH4SCHCSHCHCH2C4HCH2NHC2H3CHCH5CFeS2HCFeSH3SHNHFeS2FeS2FeSFeHS2FeHSCSFeSHS2FeS3HSC6H3C7H5C7H5C4H3C6H4C6H4CH4SHCH2CHFeH3FeHNC6H4CH3N2CFeHCHC2HCSHCSHC2SCH2C3HSNC6H2CHFeH2CHC2HC2FeCHSCH3CH2SC2HCHC3HC2H3CSNSC2HCHC3H2CH4CFeS2HS2HFeH2SFe2SH2SHSC3HFeS2FeS2H2C3H3SC8H8CHNCHSHC6H4C6H4C3H2SCNC3FeHCH4CH3C4Fe2H3C2H3CSHCHCH3C2H2NC2SH3C2NCH2C2S2CHS3FeS2FeSHSH2SCHCSFe2SC2HNS2HC2NH2SH2C3FeH2CHCHC6H4CH2C8H4C6H5CNSH2CFeHCSHFeC2H3CHSFeC2HCH2FeHC3HNC2FeCH2SH2NHFeCHCH4CH2C2HC
_chemical_formula_sum              "Fe192 S384 C1152 H1152 N96"
_cell_length_a       112.992
_cell_length_b       32.8979
_cell_length_c       57.8418
_cell_angle_alpha    87.2668
_cell_angle_beta     87.1337
_cell_angle_gamma    87.867

_space_group_name_H-M_alt    "P 1"
_space_group_IT_number       1

loop_
  _space_group_symop_operation_xyz
  'x, y, z'

loop_
  _atom_site_type_symbol
  _atom_site_label
  _atom_site_symmetry_multiplicity
  _atom_site_fract_x
  _atom_site_fract_y
  _atom_site_fract_z
  _atom_site_occupancy
  Fe  Fe1       1.0  0.21962  0.26532  0.09638  1.0000
  S   S1        1.0  0.21960  0.26184  0.13544  1.0000
  S   S2        1.0  0.20425  0.30832  0.08447  1.0000
  Fe  Fe2       1.0  0.22416  0.19529  0.13322  1.0000
  S   S3        1.0  0.21869  0.14772  0.16185  1.0000
  S   S4        1.0  0.22295  0.19683  0.09423  1.0000
  S   S5        1.0  0.01795  0.02288  0.17257  1.0000
  C   C1        1.0  0.00128  0.13541  0.09839  1.0000
  H   H1        1.0  0.16028  0.09582  0.48095  1.0000
  N   N1        1.0  0.01567  0.00596  0.23773  1.0000
  C   C2        1.0  0.21183  0.41526  0.07032  1.0000
  Fe  Fe3       1.0  0.99386  0.25577  0.13262  1.0000
  H   H2        1.0  0.21994  0.22706  0.18576  1.0000
  S   S6        1.0  0.00961  0.21049  0.13912  1.0000
  Fe  Fe4       1.0  0.98924  0.34772  0.12102  1.0000
  S   S7        1.0  0.99461  0.41401  0.11711  1.0000
  S   S8        1.0  0.99502  0.29512  0.09940  1.0000
  C   C3        1.0  0.02812  0.46500  0.07910  1.0000
  S   S9        1.0  0.15007  0.01936  0.24824  1.0000
  C   C4        1.0  0.17885  0.01023  0.15037  1.0000
  Fe  Fe5       1.0  0.16519  0.01950  0.22106  1.0000
  C   C5        1.0  0.13538  0.99124  0.32818  1.0000
  S   S10       1.0  0.16889  0.07175  0.19445  1.0000
  H   H3        1.0  0.14440  0.09506  0.47978  1.0000
  C   C6        1.0  0.00681  0.19499  0.07629  1.0000
  H   H4        1.0  0.17872  0.99052  0.13535  1.0000
  H   H5        1.0  0.20432  0.34419  0.00010  1.0000
  C   C7        1.0  0.16355  0.99632  0.38028  1.0000
  H   H6        1.0  0.01356  0.21556  0.06955  1.0000
  C   C8        1.0  0.13216  0.04662  0.29919  1.0000
  C   C9        1.0  0.02240  0.15143  0.09322  1.0000
  S   S11       1.0  0.15621  0.00309  0.47051  1.0000
  H   H7        1.0  0.03312  0.40238  0.07300  1.0000
  C   C10       1.0  0.00758  0.43263  0.10218  1.0000
  C   C11       1.0  0.01621  0.40664  0.09203  1.0000
  C   C12       1.0  0.02643  0.42278  0.08059  1.0000
  H   H8        1.0  0.21780  0.04333  0.15666  1.0000
  N   N2        1.0  0.20391  0.46069  0.04070  1.0000
  H   H9        1.0  0.03469  0.45876  0.02109  1.0000
  H   H10       1.0  0.01508  0.37408  0.09322  1.0000
  S   S12       1.0  0.98946  0.31002  0.15468  1.0000
  N   N3        1.0  0.19031  0.00538  0.16118  1.0000
  C   C13       1.0  0.03462  0.04230  0.25646  1.0000
  H   H11       1.0  0.21837  0.25382  0.21215  1.0000
  C   C14       1.0  0.01590  0.07565  0.16419  1.0000
  C   C15       1.0  0.02539  0.10124  0.15908  1.0000
  C   C16       1.0  0.02325  0.14260  0.15221  1.0000
  C   C17       1.0  0.01162  0.15911  0.15025  1.0000
  C   C18       1.0  0.00212  0.13371  0.15581  1.0000
  C   C19       1.0  0.00426  0.09232  0.16266  1.0000
  H   H12       1.0  0.03438  0.08915  0.16027  1.0000
  H   H13       1.0  0.03069  0.16189  0.14814  1.0000
  H   H14       1.0  0.99313  0.14579  0.15450  1.0000
  H   H15       1.0  0.99682  0.07300  0.16667  1.0000
  C   C20       1.0  0.19883  0.33256  0.05857  1.0000
  C   C21       1.0  0.20440  0.32746  0.03669  1.0000
  C   C22       1.0  0.19998  0.34871  0.01692  1.0000
  C   C23       1.0  0.19002  0.37568  0.01872  1.0000
  C   C24       1.0  0.18449  0.38100  0.04061  1.0000
  C   C25       1.0  0.18883  0.35938  0.06032  1.0000
  H   H16       1.0  0.21209  0.30704  0.03499  1.0000
  C   C26       1.0  0.21063  0.02380  0.16273  1.0000
  H   H17       1.0  0.17681  0.40145  0.04236  1.0000
  H   H18       1.0  0.18443  0.36364  0.07713  1.0000
  C   C27       1.0  0.18268  0.09443  0.18653  1.0000
  C   C28       1.0  0.19290  0.08543  0.19876  1.0000
  C   C29       1.0  0.20373  0.10301  0.19131  1.0000
  C   C30       1.0  0.20455  0.12938  0.17142  1.0000
  C   C31       1.0  0.19431  0.13872  0.15934  1.0000
  C   C32       1.0  0.18344  0.12145  0.16692  1.0000
  H   H19       1.0  0.19247  0.06488  0.21392  1.0000
  H   H20       1.0  0.21158  0.09562  0.20086  1.0000
  H   H21       1.0  0.19475  0.15902  0.14406  1.0000
  H   H22       1.0  0.17559  0.12888  0.15740  1.0000
  H   H23       1.0  0.01505  0.47907  0.03699  1.0000
  H   H24       1.0  0.12746  0.05310  0.28292  1.0000
  H   H25       1.0  0.00025  0.00751  0.21760  1.0000
  H   H26       1.0  0.02604  0.17645  0.10270  1.0000
  C   C33       1.0  0.02834  0.06283  0.23903  1.0000
  H   H27       1.0  0.22063  0.99203  0.18920  1.0000
  C   C34       1.0  0.19786  0.46939  0.08063  1.0000
  C   C35       1.0  0.16291  0.01208  0.35715  1.0000
  H   H28       1.0  0.22261  0.28063  0.18504  1.0000
  H   H29       1.0  0.21721  0.38842  0.07518  1.0000
  H   H30       1.0  0.21627  0.41145  0.03401  1.0000
  H   H31       1.0  0.16260  0.01660  0.39449  1.0000
  H   H32       1.0  0.01416  0.05996  0.21593  1.0000
  H   H33       1.0  0.02751  0.14825  0.07648  1.0000
  C   C36       1.0  0.00626  0.98539  0.22681  1.0000
  H   H34       1.0  0.04218  0.05609  0.26340  1.0000
  N   N4        1.0  0.00985  0.16062  0.08920  1.0000
  H   H35       1.0  0.10062  0.02311  0.18982  1.0000
  H   H36       1.0  0.12774  0.06530  0.31283  1.0000
  H   H37       1.0  0.17707  0.04254  0.14461  1.0000
  C   C37       1.0  0.19957  0.02838  0.15288  1.0000
  C   C38       1.0  0.03320  0.48017  0.00657  1.0000
  H   H38       1.0  0.02369  0.12282  0.10396  1.0000
  C   C39       1.0  0.22366  0.25160  0.19553  1.0000
  H   H39       1.0  0.00365  0.10853  0.10898  1.0000
  C   C40       1.0  0.20501  0.43569  0.08716  1.0000
  H   H40       1.0  0.14147  0.05623  0.29617  1.0000
  C   C41       1.0  0.21120  0.42830  0.04703  1.0000
  C   C42       1.0  0.15175  0.10515  0.48997  1.0000
  C   C43       1.0  0.10142  0.99517  0.20037  1.0000
  Fe  Fe6       1.0  0.16288  0.98610  0.27213  1.0000
  H   H41       1.0  0.99254  0.23187  0.06175  1.0000
  H   H42       1.0  0.16145  0.04450  0.35389  1.0000
  H   H43       1.0  0.03629  0.98662  0.27760  1.0000
  H   H44       1.0  0.20519  0.42502  0.10519  1.0000
  C   C44       1.0  0.19745  0.48167  0.05717  1.0000
  C   C45       1.0  0.21218  0.99532  0.18110  1.0000
  C   C46       1.0  0.98613  0.17932  0.08145  1.0000
  C   C47       1.0  0.11242  0.98397  0.20992  1.0000
  S   S13       1.0  0.16278  0.00842  0.30946  1.0000
  H   H45       1.0  0.19835  0.05141  0.13905  1.0000
  C   C48       1.0  0.03131  0.00348  0.26450  1.0000
  C   C49       1.0  0.99494  0.20454  0.07197  1.0000
  H   H46       1.0  0.03095  0.09270  0.23228  1.0000
  C   C50       1.0  0.00923  0.47488  0.10056  1.0000
  H   H47       1.0  0.20620  0.44921  0.00461  1.0000
  H   H48       1.0  0.10389  0.47992  0.03020  1.0000
  C   C51       1.0  0.98929  0.14457  0.09484  1.0000
  C   C52       1.0  0.01883  0.04409  0.22980  1.0000
  H   H49       1.0  0.17145  0.00232  0.16298  1.0000
  C   C53       1.0  0.20328  0.47400  0.01625  1.0000
  H   H50       1.0  0.11995  0.00317  0.20660  1.0000
  S   S14       1.0  0.17823  0.99141  0.24559  1.0000
  N   N5        1.0  0.13213  0.00326  0.30636  1.0000
  H   H51       1.0  0.13793  0.01358  0.34004  1.0000
  H   H52       1.0  0.19396  0.48234  0.01213  1.0000
  H   H53       1.0  0.15116  0.13890  0.49016  1.0000
  C   C54       1.0  0.02177  0.98566  0.25484  1.0000
  S   S15       1.0  0.07806  0.98541  0.19057  1.0000
  C   C55       1.0  0.16418  0.98648  0.33824  1.0000
  H   H54       1.0  0.12707  0.98428  0.27355  1.0000
  Fe  Fe7       1.0  0.17202  0.00090  0.49340  1.0000
  Fe  Fe8       1.0  0.22373  0.25274  0.62782  1.0000
  S   S16       1.0  0.21713  0.25618  0.59169  1.0000
  S   S17       1.0  0.21896  0.29654  0.65700  1.0000
  Fe  Fe9       1.0  0.21854  0.18714  0.59277  1.0000
  S   S18       1.0  0.20522  0.13767  0.58591  1.0000
  S   S19       1.0  0.22375  0.18412  0.63018  1.0000
  C   C56       1.0  0.03050  0.02453  0.59238  1.0000
  S   S20       1.0  0.99662  0.14111  0.64348  1.0000
  Fe  Fe10      1.0  0.99306  0.20308  0.62595  1.0000
  S   S21       1.0  0.15564  0.45219  0.96481  1.0000
  Fe  Fe11      1.0  0.16635  0.43738  0.72231  1.0000
  H   H55       1.0  0.00480  0.24403  0.54153  1.0000
  S   S22       1.0  0.17142  0.38784  0.69643  1.0000
  S   S23       1.0  0.17740  0.46265  0.74925  1.0000
  H   H56       1.0  0.18292  0.42689  0.94490  1.0000
  C   C57       1.0  0.15773  0.46605  0.88058  1.0000
  H   H57       1.0  0.20456  0.10802  0.66966  1.0000
  S   S24       1.0  0.14985  0.43619  0.74638  1.0000
  H   H58       1.0  0.20717  0.09233  0.62832  1.0000
  Fe  Fe12      1.0  0.99016  0.11438  0.61146  1.0000
  C   C58       1.0  0.15669  0.44872  0.85885  1.0000
  S   S25       1.0  0.99524  0.05664  0.59265  1.0000
  H   H59       1.0  0.22484  0.34944  0.58292  1.0000
  S   S26       1.0  0.00599  0.25617  0.62145  1.0000
  H   H60       1.0  0.06290  0.35552  0.63587  1.0000
  H   H61       1.0  0.13792  0.04525  0.50746  1.0000
  S   S27       1.0  0.04999  0.47413  0.65543  1.0000
  Fe  Fe13      1.0  0.03408  0.45905  0.67893  1.0000
  C   C59       1.0  0.99604  0.25171  0.54897  1.0000
  S   S28       1.0  0.02213  0.40310  0.68131  1.0000
  C   C60       1.0  0.00925  0.03195  0.58767  1.0000
  H   H62       1.0  0.22988  0.09919  0.59630  1.0000
  C   C61       1.0  0.99408  0.98959  0.63670  1.0000
  H   H63       1.0  0.03575  0.38024  0.72116  1.0000
  C   C62       1.0  0.21466  0.08811  0.63931  1.0000
  C   C63       1.0  0.01966  0.04662  0.59579  1.0000
  H   H64       1.0  0.04508  0.31483  0.64636  1.0000
  H   H65       1.0  0.15553  0.44863  0.89645  1.0000
  C   C64       1.0  0.18014  0.39353  0.89082  1.0000
  H   H66       1.0  0.01935  0.07477  0.60477  1.0000
  C   C65       1.0  0.01006  0.29742  0.63831  1.0000
  C   C66       1.0  0.01795  0.32629  0.62827  1.0000
  C   C67       1.0  0.02153  0.35925  0.64085  1.0000
  C   C68       1.0  0.01736  0.36376  0.66382  1.0000
  C   C69       1.0  0.00946  0.33492  0.67383  1.0000
  C   C70       1.0  0.00580  0.30215  0.66120  1.0000
  H   H67       1.0  0.02134  0.32314  0.61060  1.0000
  H   H68       1.0  0.02760  0.38100  0.63281  1.0000
  H   H69       1.0  0.00616  0.33787  0.69158  1.0000
  H   H70       1.0  0.99976  0.28038  0.66929  1.0000
  H   H71       1.0  0.10015  0.42095  0.70325  1.0000
  C   C71       1.0  0.22284  0.09365  0.67676  1.0000
  C   C72       1.0  0.11217  0.46696  0.71180  1.0000
  H   H72       1.0  0.17707  0.36789  0.88196  1.0000
  H   H73       1.0  0.06225  0.39586  0.70531  1.0000
  H   H74       1.0  0.04939  0.36444  0.73446  1.0000
  H   H75       1.0  0.03925  0.32690  0.72707  1.0000
  H   H76       1.0  0.18830  0.43198  0.65163  1.0000
  H   H77       1.0  0.17620  0.46040  0.66532  1.0000
  C   C73       1.0  0.14373  0.05657  0.51991  1.0000
  H   H78       1.0  0.15362  0.41803  0.85831  1.0000
  H   H79       1.0  0.99233  0.06323  0.68683  1.0000
  C   C74       1.0  0.18338  0.42676  0.92612  1.0000
  C   C75       1.0  0.21313  0.09715  0.66271  1.0000
  C   C76       1.0  0.99476  0.27635  0.56807  1.0000
  C   C77       1.0  0.19939  0.11538  0.56135  1.0000
  C   C78       1.0  0.20033  0.13336  0.53894  1.0000
  C   C79       1.0  0.19502  0.11553  0.52040  1.0000
  C   C80       1.0  0.18885  0.07907  0.52378  1.0000
  C   C81       1.0  0.18810  0.06063  0.54612  1.0000
  C   C82       1.0  0.19321  0.07888  0.56475  1.0000
  H   H80       1.0  0.20498  0.16144  0.53593  1.0000
  S   S29       1.0  0.98810  0.17540  0.59272  1.0000
  H   H81       1.0  0.18340  0.03266  0.54912  1.0000
  H   H82       1.0  0.19237  0.06459  0.58195  1.0000
  C   C83       1.0  0.20561  0.32181  0.66747  1.0000
  C   C84       1.0  0.19468  0.31741  0.65768  1.0000
  C   C85       1.0  0.18437  0.33781  0.66682  1.0000
  C   C86       1.0  0.18481  0.36300  0.68578  1.0000
  C   C87       1.0  0.19577  0.36768  0.69543  1.0000
  C   C88       1.0  0.20607  0.34727  0.68631  1.0000
  H   H83       1.0  0.19413  0.29796  0.64324  1.0000
  H   H84       1.0  0.17596  0.33380  0.65921  1.0000
  H   H85       1.0  0.19629  0.38621  0.71026  1.0000
  H   H86       1.0  0.21445  0.35075  0.69416  1.0000
  C   C89       1.0  0.12856  0.44939  0.79420  1.0000
  S   S30       1.0  0.07755  0.46055  0.69480  1.0000
  C   C90       1.0  0.15966  0.47048  0.83788  1.0000
  N   N6        1.0  0.15127  0.08729  0.51371  1.0000
  S   S31       1.0  0.04365  0.47085  0.71131  1.0000
  Fe  Fe14      1.0  0.16063  0.46706  0.77222  1.0000
  C   C91       1.0  0.15872  0.08362  0.55198  1.0000
  H   H87       1.0  0.13760  0.01396  0.54703  1.0000
  H   H88       1.0  0.03852  0.03589  0.59877  1.0000
  H   H89       1.0  0.18283  0.47980  0.63853  1.0000
  C   C92       1.0  0.00979  0.99537  0.57600  1.0000
  C   C93       1.0  0.10110  0.45303  0.70571  1.0000
  H   H90       1.0  0.16483  0.09400  0.56416  1.0000
  H   H91       1.0  0.11718  0.40528  0.78143  1.0000
  H   H92       1.0  0.18455  0.42802  0.85931  1.0000
  H   H93       1.0  0.19568  0.13024  0.50328  1.0000
  C   C94       1.0  0.98599  0.23605  0.54005  1.0000
  H   H94       1.0  0.07149  0.39607  0.66573  1.0000
  H   H95       1.0  0.01153  0.03018  0.67424  1.0000
  H   H96       1.0  0.17618  0.36728  0.92517  1.0000
  C   C95       1.0  0.04305  0.35661  0.72141  1.0000
  C   C96       1.0  0.18478  0.46321  0.65514  1.0000
  S   S32       1.0  0.15872  0.44598  0.81100  1.0000
  H   H97       1.0  0.13453  0.42679  0.80215  1.0000
  H   H98       1.0  0.03608  0.31566  0.68614  1.0000
  H   H99       1.0  0.10395  0.45792  0.76257  1.0000
  C   C97       1.0  0.15872  0.10080  0.52939  1.0000
  C   C98       1.0  0.22612  0.36242  0.60000  1.0000
  C   C99       1.0  0.15107  0.05228  0.55844  1.0000
  H   H100      1.0  0.22187  0.10163  0.69477  1.0000
  N   N7        1.0  0.04886  0.35475  0.69822  1.0000
  C   C100      1.0  0.05859  0.37737  0.69256  1.0000
  C   C101      1.0  0.04408  0.33231  0.68192  1.0000
  C   C102      1.0  0.06386  0.37759  0.67016  1.0000
  C   C103      1.0  0.04909  0.33195  0.65932  1.0000
  C   C104      1.0  0.05903  0.35486  0.65343  1.0000
  N   N8        1.0  0.18790  0.46072  0.88919  1.0000
  C   C105      1.0  0.18755  0.46042  0.91288  1.0000
  C   C106      1.0  0.04114  0.47964  0.98723  1.0000
  H   H101      1.0  0.16500  0.12414  0.52422  1.0000
  N   N9        1.0  0.98377  0.28523  0.57797  1.0000
  C   C107      1.0  0.09129  0.48019  0.70257  1.0000
  H   H102      1.0  0.04868  0.45823  0.98691  1.0000
  C   C108      1.0  0.17960  0.39323  0.91500  1.0000
  H   H103      1.0  0.18785  0.45522  0.70032  1.0000
  H   H104      1.0  0.99060  0.32711  0.60082  1.0000
  H   H105      1.0  0.00265  0.28756  0.57524  1.0000
  H   H106      1.0  0.98685  0.21612  0.52560  1.0000
  C   C109      1.0  0.14350  0.03868  0.54235  1.0000
  H   H107      1.0  0.11960  0.44565  0.71404  1.0000
  H   H108      1.0  0.15110  0.03823  0.57578  1.0000
  S   S33       1.0  0.18166  0.05964  0.49986  1.0000
  C   C110      1.0  0.11883  0.43736  0.78262  1.0000
  H   H109      1.0  0.02274  0.99940  0.64003  1.0000
  C   C111      1.0  0.18443  0.42763  0.87810  1.0000
  H   H110      1.0  0.22119  0.39211  0.60101  1.0000
  C   C112      1.0  0.00357  0.02361  0.66558  1.0000
  C   C113      1.0  0.99277  0.04225  0.67284  1.0000
  C   C114      1.0  0.03101  0.98772  0.58087  1.0000
  C   C115      1.0  0.11137  0.46681  0.77219  1.0000
  H   H111      1.0  0.00179  0.98385  0.56961  1.0000
  H   H112      1.0  0.22222  0.34089  0.61343  1.0000
  C   C116      1.0  0.19388  0.47628  0.69142  1.0000
  C   C117      1.0  0.22726  0.07001  0.60528  1.0000
  Fe  Fe15      1.0  0.17105  0.45421  0.98834  1.0000
  N   N10       1.0  0.22555  0.07579  0.63022  1.0000
  N   N11       1.0  0.00412  0.99773  0.64768  1.0000
  H   H113      1.0  0.21897  0.06058  0.59778  1.0000
  S   S34       1.0  0.18506  0.40245  0.99318  1.0000
  S   S35       1.0  0.08165  0.60903  0.01104  1.0000
  C   C118      1.0  0.20924  0.90061  0.45726  1.0000
  Fe  Fe16      1.0  0.04582  0.89663  0.16242  1.0000
  S   S36       1.0  0.05663  0.88842  0.19419  1.0000
  S   S37       1.0  0.04881  0.86022  0.12943  1.0000
  Fe  Fe17      1.0  0.03972  0.90818  0.21406  1.0000
  S   S38       1.0  0.03509  0.87991  0.25017  1.0000
  Fe  Fe18      1.0  0.06004  0.95525  0.18959  1.0000
  C   C119      1.0  0.09362  0.93397  0.15032  1.0000
  S   S39       1.0  0.02870  0.91159  0.18263  1.0000
  S   S40       1.0  0.05011  0.96310  0.15655  1.0000
  H   H114      1.0  0.09908  0.95952  0.15320  1.0000
  H   H115      1.0  0.00429  0.87464  0.46569  1.0000
  S   S41       1.0  0.17061  0.59882  0.01759  1.0000
  Fe  Fe19      1.0  0.04767  0.63849  0.07031  1.0000
  S   S42       1.0  0.05141  0.66167  0.03354  1.0000
  S   S43       1.0  0.04438  0.67438  0.10333  1.0000
  Fe  Fe20      1.0  0.04494  0.55041  0.05542  1.0000
  S   S44       1.0  0.04870  0.56767  0.01768  1.0000
  H   H116      1.0  0.04655  0.79829  0.42104  1.0000
  Fe  Fe21      1.0  0.06335  0.60459  0.03023  1.0000
  H   H117      1.0  0.10669  0.84994  0.48379  1.0000
  Fe  Fe22      1.0  0.03664  0.62235  0.02379  1.0000
  S   S45       1.0  0.06037  0.58384  0.06770  1.0000
  S   S46       1.0  0.03213  0.60267  0.06088  1.0000
  Fe  Fe23      1.0  0.22205  0.68498  0.09025  1.0000
  S   S47       1.0  0.21300  0.68592  0.12573  1.0000
  S   S48       1.0  0.21883  0.63600  0.06474  1.0000
  Fe  Fe24      1.0  0.21294  0.75425  0.12074  1.0000
  S   S49       1.0  0.19656  0.79361  0.13037  1.0000
  S   S50       1.0  0.22066  0.75332  0.08395  1.0000
  H   H118      1.0  0.98516  0.78027  0.27227  1.0000
  H   H119      1.0  0.06805  0.91386  0.12522  1.0000
  C   C120      1.0  0.10735  0.88847  0.17190  1.0000
  Fe  Fe25      1.0  0.16516  0.95035  0.45210  1.0000
  Fe  Fe26      1.0  0.98947  0.78358  0.38625  1.0000
  Fe  Fe27      1.0  0.14596  0.95776  0.23600  1.0000
  H   H120      1.0  0.09151  0.83387  0.16358  1.0000
  S   S51       1.0  0.12742  0.93094  0.23525  1.0000
  S   S52       1.0  0.00595  0.76935  0.40727  1.0000
  C   C121      1.0  0.13355  0.92085  0.31945  1.0000
  S   S53       1.0  0.15812  0.92438  0.26111  1.0000
  H   H121      1.0  0.12638  0.66944  0.01029  1.0000
  Fe  Fe28      1.0  0.17248  0.93194  0.23275  1.0000
  S   S54       1.0  0.18736  0.88559  0.22401  1.0000
  C   C122      1.0  0.01814  0.82932  0.47228  1.0000
  C   C123      1.0  0.00854  0.84654  0.46011  1.0000
  C   C124      1.0  0.00448  0.82803  0.44060  1.0000
  C   C125      1.0  0.01000  0.79199  0.43296  1.0000
  C   C126      1.0  0.01949  0.77445  0.44533  1.0000
  C   C127      1.0  0.02351  0.79285  0.46494  1.0000
  H   H122      1.0  0.16705  0.92441  0.32865  1.0000
  H   H123      1.0  0.99719  0.84189  0.43128  1.0000
  H   H124      1.0  0.02380  0.74652  0.43960  1.0000
  C   C128      1.0  0.13615  0.94992  0.33506  1.0000
  N   N12       1.0  0.12923  0.56601  0.04449  1.0000
  H   H125      1.0  0.19119  0.90699  0.41199  1.0000
  S   S55       1.0  0.98899  0.75804  0.35073  1.0000
  H   H126      1.0  0.20379  0.94919  0.20346  1.0000
  S   S56       1.0  0.16007  0.96009  0.20697  1.0000
  C   C129      1.0  0.19496  0.82382  0.15496  1.0000
  C   C130      1.0  0.20345  0.82252  0.17178  1.0000
  C   C131      1.0  0.20118  0.84308  0.19245  1.0000
  C   C132      1.0  0.19042  0.86500  0.19652  1.0000
  C   C133      1.0  0.18215  0.86778  0.17929  1.0000
  C   C134      1.0  0.18443  0.84731  0.15859  1.0000
  H   H127      1.0  0.21159  0.80462  0.16922  1.0000
  H   H128      1.0  0.20766  0.84097  0.20565  1.0000
  H   H129      1.0  0.17381  0.88444  0.18221  1.0000
  H   H130      1.0  0.17782  0.84853  0.14564  1.0000
  C   C135      1.0  0.18407  0.60828  0.03076  1.0000
  C   C136      1.0  0.18428  0.63991  0.04626  1.0000
  C   C137      1.0  0.19480  0.64870  0.05690  1.0000
  C   C138      1.0  0.20527  0.62593  0.05209  1.0000
  C   C139      1.0  0.20504  0.59414  0.03666  1.0000
  C   C140      1.0  0.19452  0.58542  0.02600  1.0000
  H   H131      1.0  0.17627  0.65796  0.04996  1.0000
  H   H132      1.0  0.19485  0.67330  0.06865  1.0000
  H   H133      1.0  0.21312  0.57665  0.03267  1.0000
  H   H134      1.0  0.01946  0.95513  0.26079  1.0000
  H   H135      1.0  0.13435  0.88868  0.32438  1.0000
  C   C141      1.0  0.19183  0.97678  0.17885  1.0000
  H   H136      1.0  0.03349  0.93152  0.47966  1.0000
  C   C142      1.0  0.09372  0.57249  0.00871  1.0000
  C   C143      1.0  0.09387  0.53540  0.02162  1.0000
  C   C144      1.0  0.13029  0.52677  0.05746  1.0000
  H   H137      1.0  0.08630  0.52756  0.03291  1.0000
  C   C145      1.0  0.04812  0.80780  0.12314  1.0000
  C   C146      1.0  0.05218  0.79537  0.10106  1.0000
  C   C147      1.0  0.05146  0.75451  0.09487  1.0000
  C   C148      1.0  0.04654  0.72554  0.11067  1.0000
  C   C149      1.0  0.04258  0.73790  0.13282  1.0000
  C   C150      1.0  0.04338  0.77868  0.13906  1.0000
  H   H138      1.0  0.05589  0.81754  0.08859  1.0000
  H   H139      1.0  0.05456  0.74556  0.07779  1.0000
  H   H140      1.0  0.03880  0.71578  0.14524  1.0000
  H   H141      1.0  0.04022  0.78763  0.15611  1.0000
  C   C151      1.0  0.02108  0.87046  0.26435  1.0000
  C   C152      1.0  0.01042  0.87835  0.25339  1.0000
  C   C153      1.0  0.99949  0.87194  0.26568  1.0000
  C   C154      1.0  0.99908  0.85726  0.28896  1.0000
  C   C155      1.0  0.00974  0.84891  0.29984  1.0000
  C   C156      1.0  0.02066  0.85557  0.28759  1.0000
  H   H142      1.0  0.01060  0.88936  0.23546  1.0000
  C   C157      1.0  0.20274  0.97148  0.18917  1.0000
  H   H143      1.0  0.00956  0.83746  0.31770  1.0000
  H   H144      1.0  0.02885  0.84936  0.29624  1.0000
  C   C158      1.0  0.00863  0.72470  0.29250  1.0000
  C   C159      1.0  0.09271  0.93461  0.21795  1.0000
  C   C160      1.0  0.01944  0.49102  0.08907  1.0000
  C   C161      1.0  0.11365  0.94789  0.22354  1.0000
  H   H145      1.0  0.20890  0.50067  0.01236  1.0000
  C   C162      1.0  0.03589  0.85349  0.42431  1.0000
  H   H146      1.0  0.08519  0.91533  0.22113  1.0000
  H   H147      1.0  0.18085  0.80876  0.43387  1.0000
  C   C163      1.0  0.10370  0.92349  0.22759  1.0000
  N   N13       1.0  0.18790  0.74438  0.19157  1.0000
  C   C164      1.0  0.19153  0.75711  0.21219  1.0000
  C   C165      1.0  0.19498  0.71848  0.17869  1.0000
  C   C166      1.0  0.20267  0.74469  0.22008  1.0000
  C   C167      1.0  0.20607  0.70495  0.18629  1.0000
  C   C168      1.0  0.20997  0.71840  0.20698  1.0000
  C   C169      1.0  0.17614  0.75700  0.18363  1.0000
  H   H148      1.0  0.18598  0.77807  0.22229  1.0000
  H   H149      1.0  0.19216  0.70867  0.16224  1.0000
  H   H150      1.0  0.20565  0.75575  0.23610  1.0000
  H   H151      1.0  0.21167  0.68431  0.17614  1.0000
  S   S57       1.0  0.04390  0.97467  0.21143  1.0000
  H   H152      1.0  0.17644  0.76197  0.16443  1.0000
  H   H153      1.0  0.16968  0.73325  0.18880  1.0000
  H   H154      1.0  0.17299  0.78633  0.19098  1.0000
  N   N14       1.0  0.01976  0.71951  0.07845  1.0000
  C   C170      1.0  0.02031  0.70695  0.05619  1.0000
  C   C171      1.0  0.02330  0.75750  0.08307  1.0000
  C   C172      1.0  0.02504  0.73188  0.03802  1.0000
  C   C173      1.0  0.02805  0.78327  0.06532  1.0000
  C   C174      1.0  0.02902  0.77013  0.04269  1.0000
  C   C175      1.0  0.01495  0.69260  0.09727  1.0000
  H   H155      1.0  0.01724  0.67727  0.05238  1.0000
  H   H156      1.0  0.02288  0.76755  0.10071  1.0000
  C   C176      1.0  0.11745  0.62517  0.03293  1.0000
  H   H157      1.0  0.03124  0.81276  0.06928  1.0000
  C   C177      1.0  0.16607  0.94464  0.34288  1.0000
  Fe  Fe29      1.0  0.16690  0.54518  0.99577  1.0000
  H   H158      1.0  0.00512  0.69532  0.09828  1.0000
  H   H159      1.0  0.03087  0.77916  0.47414  1.0000
  H   H160      1.0  0.19113  0.82188  0.46983  1.0000
  S   S58       1.0  0.98507  0.84872  0.30334  1.0000
  C   C178      1.0  0.12951  0.97495  0.29098  1.0000
  C   C179      1.0  0.19498  0.84760  0.46014  1.0000
  C   C180      1.0  0.04542  0.82700  0.42951  1.0000
  H   H161      1.0  0.10549  0.87072  0.18843  1.0000
  C   C181      1.0  0.16676  0.92889  0.36602  1.0000
  C   C182      1.0  0.07903  0.86997  0.14390  1.0000
  S   S59       1.0  0.12666  0.48408  0.00582  1.0000
  H   H162      1.0  0.19452  0.56170  0.01373  1.0000
  H   H163      1.0  0.02954  0.84518  0.41201  1.0000
  H   H164      1.0  0.21868  0.70847  0.21270  1.0000
  H   H165      1.0  0.13229  0.53156  0.07569  1.0000
  C   C183      1.0  0.09150  0.97057  0.20421  1.0000
  H   H166      1.0  0.11125  0.91738  0.17652  1.0000
  H   H167      1.0  0.06046  0.81621  0.45085  1.0000
  N   N15       1.0  0.09644  0.89588  0.15942  1.0000
  C   C184      1.0  0.13893  0.58160  0.03258  1.0000
  H   H168      1.0  0.19185  0.50784  0.05218  1.0000
  C   C185      1.0  0.98997  0.75530  0.28096  1.0000
  H   H169      1.0  0.14739  0.56496  0.03239  1.0000
  H   H170      1.0  0.11088  0.57505  0.05430  1.0000
  H   H171      1.0  0.00706  0.77969  0.27091  1.0000
  H   H172      1.0  0.13738  0.50686  0.04946  1.0000
  C   C186      1.0  0.00246  0.69406  0.30487  1.0000
  H   H173      1.0  0.02065  0.52352  0.08820  1.0000
  H   H174      1.0  0.07329  0.84482  0.14164  1.0000
  S   S60       1.0  0.15645  0.90360  0.47665  1.0000
  C   C187      1.0  0.13807  0.61903  0.02017  1.0000
  C   C188      1.0  0.10390  0.50845  0.02008  1.0000
  H   H175      1.0  0.10450  0.89554  0.23812  1.0000
  H   H176      1.0  0.02573  0.72123  0.02050  1.0000
  N   N16       1.0  0.19042  0.86169  0.43969  1.0000
  C   C189      1.0  0.20443  0.86681  0.46925  1.0000
  H   H177      1.0  0.20802  0.94160  0.42714  1.0000
  H   H178      1.0  0.05727  0.88066  0.47076  1.0000
  H   H179      1.0  0.17898  0.84977  0.41256  1.0000
  H   H180      1.0  0.17191  0.85373  0.44091  1.0000
  H   H181      1.0  0.01029  0.96450  0.21382  1.0000
  C   C190      1.0  0.05316  0.83693  0.44629  1.0000
  H   H182      1.0  0.01843  0.69990  0.11420  1.0000
  H   H183      1.0  0.11404  0.87147  0.16105  1.0000
  H   H184      1.0  0.03291  0.78944  0.02882  1.0000
  H   H185      1.0  0.99129  0.87820  0.25706  1.0000
  H   H186      1.0  0.12197  0.50982  0.05700  1.0000
  C   C191      1.0  0.08931  0.86405  0.15633  1.0000
  H   H187      1.0  0.13913  0.94061  0.35214  1.0000
  C   C192      1.0  0.03987  0.93707  0.46465  1.0000
  Fe  Fe30      1.0  0.03374  0.97771  0.17881  1.0000
  C   C193      1.0  0.08335  0.94103  0.13799  1.0000
  C   C194      1.0  0.19503  0.89499  0.42786  1.0000
  N   N17       1.0  0.04197  0.89947  0.45220  1.0000
  H   H188      1.0  0.01784  0.66042  0.09452  1.0000
  C   C195      1.0  0.00237  0.75538  0.28032  1.0000
  C   C196      1.0  0.05128  0.87348  0.45755  1.0000
  H   H189      1.0  0.16828  0.89651  0.36926  1.0000
  H   H190      1.0  0.08089  0.97160  0.13164  1.0000
  Fe  Fe31      1.0  0.23130  0.69117  0.13877  1.0000
  S   S61       1.0  0.18146  0.95119  0.47320  1.0000
  H   H191      1.0  0.02019  0.52930  0.04101  1.0000
  C   C197      1.0  0.11863  0.58756  0.04509  1.0000
  H   H192      1.0  0.01823  0.72508  0.29259  1.0000
  C   C198      1.0  0.18006  0.84240  0.43132  1.0000
  N   N18       1.0  0.02388  0.50795  0.00746  1.0000
  H   H193      1.0  0.00721  0.67046  0.31480  1.0000
  H   H194      1.0  0.10888  0.64124  0.03266  1.0000
  C   C199      1.0  0.11397  0.51823  0.00582  1.0000
  C   C200      1.0  0.03421  0.88957  0.43610  1.0000
  C   C201      1.0  0.20455  0.91479  0.43638  1.0000
  C   C202      1.0  0.12723  0.64078  0.02024  1.0000
  C   C203      1.0  0.16552  0.95453  0.38493  1.0000
  H   H195      1.0  0.02646  0.90900  0.43277  1.0000
  S   S62       1.0  0.16661  0.93248  0.41376  1.0000
  H   H196      1.0  0.21643  0.91624  0.46437  1.0000
  H   H197      1.0  0.12824  0.91109  0.28485  1.0000
  S   S63       1.0  0.16045  0.48898  0.01524  1.0000
  C   C204      1.0  0.07607  0.90874  0.13467  1.0000
  C   C205      1.0  0.99007  0.69457  0.30485  1.0000
  S   S64       1.0  0.01947  0.64066  0.00591  1.0000
  S   S65       1.0  0.23050  0.75948  0.13622  1.0000
  C   C206      1.0  0.01616  0.50987  0.02853  1.0000
  S   S66       1.0  0.04103  0.48375  0.06404  1.0000
  C   C207      1.0  0.13015  0.93337  0.29729  1.0000
  N   N19       1.0  0.98400  0.72487  0.29290  1.0000
  H   H198      1.0  0.00263  0.49522  0.10844  1.0000
  H   H199      1.0  0.12474  0.89047  0.48576  1.0000
  H   H200      1.0  0.14578  0.63077  0.01043  1.0000
  H   H201      1.0  0.18457  0.95809  0.18527  1.0000
  H   H202      1.0  0.00080  0.96758  0.23992  1.0000
  H   H203      1.0  0.03615  0.96187  0.45319  1.0000
  H   H204      1.0  0.98534  0.67108  0.31488  1.0000
  H   H205      1.0  0.00721  0.52277  0.02477  1.0000
  H   H206      1.0  0.20778  0.85608  0.48582  1.0000
  H   H207      1.0  0.04821  0.94790  0.47125  1.0000
  C   C208      1.0  0.10369  0.58187  0.99407  1.0000
  H   H208      1.0  0.19258  0.48573  0.09359  1.0000
  S   S67       1.0  0.15150  0.55080  0.97227  1.0000
  C   C209      1.0  0.07814  0.71650  0.53875  1.0000
  H   H209      1.0  0.10369  0.61033  0.98389  1.0000
  H   H210      1.0  0.98823  0.78898  0.85157  1.0000
  S   S68       1.0  0.00669  0.65269  0.89926  1.0000
  S   S69       1.0  0.15546  0.52984  0.75844  1.0000
  Fe  Fe32      1.0  0.17147  0.52390  0.73382  1.0000
  S   S70       1.0  0.18540  0.57216  0.72895  1.0000
  N   N20       1.0  0.19330  0.48446  0.66810  1.0000
  H   H211      1.0  0.08531  0.54294  0.70348  1.0000
  N   N21       1.0  0.12350  0.51950  0.78448  1.0000
  H   H212      1.0  0.08909  0.81967  0.58846  1.0000
  Fe  Fe33      1.0  0.04690  0.90181  0.55806  1.0000
  S   S71       1.0  0.05039  0.90242  0.51949  1.0000
  S   S72       1.0  0.04468  0.95988  0.57800  1.0000
  Fe  Fe34      1.0  0.05018  0.80850  0.56339  1.0000
  S   S73       1.0  0.05372  0.80255  0.52481  1.0000
  S   S74       1.0  0.05282  0.76272  0.59415  1.0000
  Fe  Fe35      1.0  0.06532  0.85706  0.52632  1.0000
  H   H213      1.0  0.01501  0.55835  0.99034  1.0000
  Fe  Fe36      1.0  0.03851  0.84861  0.52060  1.0000
  S   S75       1.0  0.06272  0.86008  0.56483  1.0000
  S   S76       1.0  0.03418  0.85095  0.55920  1.0000
  H   H214      1.0  0.10829  0.53063  0.76439  1.0000
  H   H215      1.0  0.07262  0.67230  0.56557  1.0000
  S   S77       1.0  0.20364  0.65516  0.63248  1.0000
  H   H216      1.0  0.03118  0.69722  0.69578  1.0000
  H   H217      1.0  0.99454  0.96997  0.62210  1.0000
  H   H218      1.0  0.99727  0.64577  0.98379  1.0000
  Fe  Fe37      1.0  0.04285  0.53952  0.65494  1.0000
  S   S78       1.0  0.05300  0.55597  0.68545  1.0000
  S   S79       1.0  0.04036  0.57762  0.62115  1.0000
  H   H219      1.0  0.08765  0.81033  0.54876  1.0000
  C   C210      1.0  0.02673  0.67369  0.66328  1.0000
  Fe  Fe38      1.0  0.03683  0.53566  0.70703  1.0000
  S   S80       1.0  0.03039  0.57779  0.73571  1.0000
  C   C211      1.0  0.02024  0.64511  0.65275  1.0000
  H   H220      1.0  0.01282  0.72172  0.86910  1.0000
  C   C212      1.0  0.04951  0.71081  0.60075  1.0000
  C   C213      1.0  0.04330  0.68776  0.58602  1.0000
  C   C214      1.0  0.04077  0.64688  0.59237  1.0000
  C   C215      1.0  0.04444  0.62846  0.61344  1.0000
  C   C216      1.0  0.05085  0.65131  0.62796  1.0000
  C   C217      1.0  0.05334  0.69221  0.62166  1.0000
  H   H221      1.0  0.04031  0.70152  0.56988  1.0000
  H   H222      1.0  0.03582  0.62950  0.58097  1.0000
  H   H223      1.0  0.05376  0.63760  0.64418  1.0000
  H   H224      1.0  0.05818  0.70966  0.63319  1.0000
  C   C218      1.0  0.19264  0.84368  0.53021  1.0000
  C   C219      1.0  0.19749  0.80477  0.53603  1.0000
  C   C220      1.0  0.20675  0.79980  0.55146  1.0000
  C   C221      1.0  0.21134  0.83385  0.56094  1.0000
  C   C222      1.0  0.20674  0.87284  0.55454  1.0000
  C   C223      1.0  0.19739  0.87778  0.53931  1.0000
  H   H225      1.0  0.19391  0.77823  0.52895  1.0000
  H   H226      1.0  0.21028  0.76966  0.55612  1.0000
  H   H227      1.0  0.21029  0.89936  0.56171  1.0000
  H   H228      1.0  0.19377  0.90791  0.53488  1.0000
  H   H229      1.0  0.18883  0.52492  0.88363  1.0000
  C   C224      1.0  0.11683  0.89825  0.49614  1.0000
  C   C225      1.0  0.13081  0.49083  0.79488  1.0000
  C   C226      1.0  0.09608  0.88490  0.50829  1.0000
  S   S81       1.0  0.22664  0.70385  0.58984  1.0000
  C   C227      1.0  0.16188  0.50546  0.88174  1.0000
  S   S82       1.0  0.16471  0.52760  0.90860  1.0000
  C   C228      1.0  0.11679  0.93154  0.51037  1.0000
  Fe  Fe39      1.0  0.14558  0.49278  0.99036  1.0000
  H   H230      1.0  0.07687  0.71603  0.59743  1.0000
  C   C229      1.0  0.18998  0.59625  0.70208  1.0000
  C   C230      1.0  0.19987  0.62111  0.70116  1.0000
  C   C231      1.0  0.20416  0.63938  0.68001  1.0000
  C   C232      1.0  0.19850  0.63332  0.65957  1.0000
  C   C233      1.0  0.18853  0.60882  0.66050  1.0000
  C   C234      1.0  0.18431  0.59018  0.68163  1.0000
  H   H231      1.0  0.20430  0.62602  0.71690  1.0000
  H   H232      1.0  0.21183  0.65822  0.67956  1.0000
  H   H233      1.0  0.18407  0.60405  0.64479  1.0000
  H   H234      1.0  0.17668  0.57123  0.68212  1.0000
  C   C235      1.0  0.99810  0.57310  0.78773  1.0000
  C   C236      1.0  0.00611  0.60449  0.78768  1.0000
  C   C237      1.0  0.01601  0.60503  0.77184  1.0000
  C   C238      1.0  0.01809  0.57410  0.75601  1.0000
  C   C239      1.0  0.01014  0.54246  0.75618  1.0000
  C   C240      1.0  0.00016  0.54214  0.77187  1.0000
  H   H235      1.0  0.00465  0.62848  0.79976  1.0000
  H   H236      1.0  0.02211  0.62960  0.77190  1.0000
  H   H237      1.0  0.01164  0.51835  0.74418  1.0000
  H   H238      1.0  0.01505  0.77573  0.86418  1.0000
  C   C241      1.0  0.01616  0.64312  0.97611  1.0000
  C   C242      1.0  0.00421  0.64559  0.97019  1.0000
  C   C243      1.0  0.00112  0.64769  0.94681  1.0000
  C   C244      1.0  0.00998  0.64783  0.92904  1.0000
  C   C245      1.0  0.02193  0.64557  0.93498  1.0000
  C   C246      1.0  0.02502  0.64300  0.95836  1.0000
  S   S83       1.0  0.17834  0.51067  0.96998  1.0000
  H   H239      1.0  0.99189  0.64952  0.94254  1.0000
  H   H240      1.0  0.02886  0.64591  0.92137  1.0000
  H   H241      1.0  0.03425  0.64140  0.96261  1.0000
  C   C247      1.0  0.20090  0.51107  0.65682  1.0000
  N   N22       1.0  0.01174  0.62301  0.68994  1.0000
  C   C248      1.0  0.00854  0.75142  0.86364  1.0000
  H   H242      1.0  0.08950  0.77527  0.60783  1.0000
  Fe  Fe40      1.0  0.22020  0.69286  0.62716  1.0000
  H   H243      1.0  0.07550  0.80119  0.60195  1.0000
  H   H244      1.0  0.01788  0.65166  0.71923  1.0000
  C   C249      1.0  0.01831  0.65026  0.70048  1.0000
  C   C250      1.0  0.19235  0.49639  0.87576  1.0000
  C   C251      1.0  0.02588  0.67604  0.68733  1.0000
  C   C252      1.0  0.07628  0.70205  0.56167  1.0000
  N   N23       1.0  0.18496  0.73973  0.59108  1.0000
  C   C253      1.0  0.19240  0.75702  0.60543  1.0000
  C   C254      1.0  0.17758  0.76366  0.57765  1.0000
  C   C255      1.0  0.19277  0.79938  0.60629  1.0000
  C   C256      1.0  0.17762  0.80614  0.57827  1.0000
  C   C257      1.0  0.18533  0.82402  0.59259  1.0000
  C   C258      1.0  0.18500  0.69524  0.59037  1.0000
  H   H245      1.0  0.19821  0.73794  0.61607  1.0000
  H   H246      1.0  0.17177  0.75014  0.56604  1.0000
  H   H247      1.0  0.19903  0.81297  0.61700  1.0000
  H   H248      1.0  0.17207  0.82509  0.56698  1.0000
  H   H249      1.0  0.18580  0.85690  0.59252  1.0000
  H   H250      1.0  0.18193  0.68182  0.60755  1.0000
  H   H251      1.0  0.13313  0.56874  0.79644  1.0000
  H   H252      1.0  0.19417  0.68308  0.58641  1.0000
  H   H253      1.0  0.08380  0.76730  0.51639  1.0000
  S   S84       1.0  0.18035  0.84798  0.51237  1.0000
  H   H254      1.0  0.17922  0.68486  0.57701  1.0000
  H   H255      1.0  0.00878  0.56615  0.70747  1.0000
  Fe  Fe41      1.0  0.16236  0.51054  0.94784  1.0000
  C   C259      1.0  0.16354  0.51023  0.83902  1.0000
  H   H256      1.0  0.16780  0.55804  0.86129  1.0000
  H   H257      1.0  0.20211  0.49036  0.72285  1.0000
  S   S85       1.0  0.98529  0.57171  0.80686  1.0000
  H   H258      1.0  0.99579  0.59022  0.69494  1.0000
  S   S86       1.0  0.98974  0.67303  0.84384  1.0000
  H   H259      1.0  0.03255  0.69350  0.65284  1.0000
  C   C260      1.0  0.20972  0.52311  0.69290  1.0000
  Fe  Fe42      1.0  0.98918  0.64940  0.88120  1.0000
  S   S87       1.0  0.08328  0.85512  0.50585  1.0000
  N   N24       1.0  0.08275  0.76529  0.57499  1.0000
  C   C261      1.0  0.08463  0.77968  0.55256  1.0000
  C   C262      1.0  0.07875  0.72688  0.57966  1.0000
  Fe  Fe43      1.0  0.14553  0.49907  0.73146  1.0000
  C   C263      1.0  0.02061  0.97334  0.57259  1.0000
  S   S88       1.0  0.12938  0.96269  0.51193  1.0000
  H   H260      1.0  0.08814  0.92591  0.53298  1.0000
  H   H261      1.0  0.20042  0.51792  0.63837  1.0000
  H   H262      1.0  0.10614  0.96670  0.53471  1.0000
  H   H263      1.0  0.02089  0.94510  0.56368  1.0000
  H   H264      1.0  0.02857  0.55787  0.95547  1.0000
  H   H265      1.0  0.21487  0.55330  0.66025  1.0000
  S   S89       1.0  0.16128  0.49871  0.70583  1.0000
  S   S90       1.0  0.22254  0.82911  0.58135  1.0000
  C   C264      1.0  0.00399  0.59570  0.70396  1.0000
  S   S91       1.0  0.22067  0.75880  0.63530  1.0000
  C   C265      1.0  0.08434  0.79169  0.59423  1.0000
  H   H266      1.0  0.00614  0.73578  0.90924  1.0000
  C   C266      1.0  0.99835  0.75091  0.90208  1.0000
  H   H267      1.0  0.02114  0.64208  0.63412  1.0000
  C   C267      1.0  0.16463  0.52748  0.86074  1.0000
  C   C268      1.0  0.10379  0.53552  0.71188  1.0000
  S   S92       1.0  0.02631  0.52326  0.67635  1.0000
  Fe  Fe44      1.0  0.14841  0.95591  0.49612  1.0000
  H   H268      1.0  0.00604  0.74850  0.84545  1.0000
  S   S93       1.0  0.12723  0.52797  0.72334  1.0000
  C   C269      1.0  0.08244  0.75543  0.53413  1.0000
  H   H269      1.0  0.00128  0.60863  0.72093  1.0000
  C   C270      1.0  0.20919  0.53089  0.66905  1.0000
  H   H270      1.0  0.99403  0.51770  0.77176  1.0000
  C   C271      1.0  0.01282  0.61963  0.66643  1.0000
  H   H271      1.0  0.16586  0.52756  0.82317  1.0000
  C   C272      1.0  0.01548  0.97740  0.64105  1.0000
  Fe  Fe45      1.0  0.17215  0.90827  0.49878  1.0000
  Fe  Fe46      1.0  0.22837  0.76899  0.59912  1.0000
  H   H272      1.0  0.00805  0.59676  0.65814  1.0000
  C   C273      1.0  0.11384  0.50799  0.77337  1.0000
  H   H273      1.0  0.10475  0.56764  0.71421  1.0000
  C   C274      1.0  0.02222  0.53568  0.98942  1.0000
  H   H274      1.0  0.11826  0.58168  0.78835  1.0000
  H   H275      1.0  0.07609  0.69783  0.52462  1.0000
  C   C275      1.0  0.09608  0.91787  0.52274  1.0000
  S   S94       1.0  0.16359  0.95769  0.52017  1.0000
  H   H276      1.0  0.21575  0.53954  0.70278  1.0000
  H   H277      1.0  0.01757  0.95226  0.65384  1.0000
  N   N25       1.0  0.99811  0.76073  0.87885  1.0000
  C   C276      1.0  0.10634  0.94105  0.52367  1.0000
  H   H278      1.0  0.12139  0.56311  0.98157  1.0000
  C   C277      1.0  0.02991  0.53572  0.96969  1.0000
  C   C278      1.0  0.11361  0.50841  0.71486  1.0000
  C   C279      1.0  0.09272  0.52159  0.70579  1.0000
  C   C280      1.0  0.12631  0.56269  0.78394  1.0000
  C   C281      1.0  0.20204  0.49556  0.70419  1.0000
  S   S95       1.0  0.02342  0.85630  0.49543  1.0000
  H   H279      1.0  0.01533  0.96449  0.62364  1.0000
  C   C282      1.0  0.10654  0.87527  0.49507  1.0000
  H   H280      1.0  0.12980  0.57226  0.76625  1.0000
  C   C283      1.0  0.11377  0.55511  0.99271  1.0000
  H   H281      1.0  0.13857  0.49979  0.80345  1.0000
  H   H282      1.0  0.20218  0.49579  0.87530  1.0000
  H   H283      1.0  0.18934  0.49756  0.85772  1.0000
  C   C284      1.0  0.03947  0.50764  0.96869  1.0000
  H   H284      1.0  0.04566  0.50800  0.95373  1.0000
  Fe  Fe47      1.0  0.05916  0.48998  0.68765  1.0000
  C   C285      1.0  0.98846  0.75917  0.91686  1.0000
  C   C286      1.0  0.98840  0.78068  0.86994  1.0000
  H   H285      1.0  0.98857  0.74994  0.93511  1.0000
  H   H286      1.0  0.19015  0.48687  0.92165  1.0000
  Fe  Fe48      1.0  0.24244  0.21127  0.09304  1.0000
  S   S96       1.0  0.24383  0.20602  0.13188  1.0000
  S   S97       1.0  0.25826  0.18570  0.07077  1.0000
  C   C287      1.0  0.27206  0.39946  0.13767  1.0000
  S   S98       1.0  0.24458  0.32208  0.15602  1.0000
  S   S99       1.0  0.30321  0.46565  0.20341  1.0000
  S   S100      1.0  0.44064  0.42597  0.14956  1.0000
  S   S101      1.0  0.23899  0.27990  0.09297  1.0000
  H   H287      1.0  0.28839  0.30685  0.48913  1.0000
  Fe  Fe49      1.0  0.46716  0.18651  0.13439  1.0000
  S   S102      1.0  0.46324  0.12180  0.14668  1.0000
  S   S103      1.0  0.45323  0.23325  0.14916  1.0000
  N   N26       1.0  0.45934  0.45937  0.20859  1.0000
  H   H288      1.0  0.28327  0.46725  0.17149  1.0000
  Fe  Fe50      1.0  0.46831  0.10299  0.11056  1.0000
  S   S104      1.0  0.45929  0.06400  0.08517  1.0000
  H   H289      1.0  0.29575  0.40524  0.16893  1.0000
  S   S105      1.0  0.47093  0.16806  0.09750  1.0000
  H   H290      1.0  0.44023  0.09439  0.05508  1.0000
  H   H291      1.0  0.30402  0.32454  0.45106  1.0000
  C   C288      1.0  0.25395  0.20116  0.19665  1.0000
  C   C289      1.0  0.40715  0.38082  0.14963  1.0000
  C   C290      1.0  0.29608  0.46395  0.38146  1.0000
  S   S106      1.0  0.31033  0.44760  0.47271  1.0000
  Fe  Fe51      1.0  0.29394  0.42109  0.22809  1.0000
  Fe  Fe52      1.0  0.31441  0.48010  0.23270  1.0000
  S   S107      1.0  0.28987  0.36021  0.21276  1.0000
  H   H292      1.0  0.42249  0.38182  0.12593  1.0000
  C   C291      1.0  0.27970  0.37269  0.44658  1.0000
  C   C292      1.0  0.24217  0.27153  0.21118  1.0000
  S   S108      1.0  0.30640  0.43153  0.25699  1.0000
  C   C293      1.0  0.28254  0.32384  0.47756  1.0000
  H   H293      1.0  0.42827  0.06550  0.06762  1.0000
  S   S109      1.0  0.38688  0.44742  0.20374  1.0000
  H   H294      1.0  0.24814  0.46339  0.14712  1.0000
  H   H295      1.0  0.26158  0.38839  0.43869  1.0000
  C   C294      1.0  0.29702  0.44794  0.34014  1.0000
  C   C295      1.0  0.29948  0.43765  0.36353  1.0000
  H   H296      1.0  0.29973  0.42731  0.32669  1.0000
  H   H297      1.0  0.30404  0.40897  0.36776  1.0000
  H   H298      1.0  0.30378  0.35948  0.47437  1.0000
  H   H299      1.0  0.42434  0.06907  0.10753  1.0000
  S   S110      1.0  0.28168  0.46794  0.47173  1.0000
  C   C296      1.0  0.29219  0.40061  0.15169  1.0000
  C   C297      1.0  0.44974  0.02200  0.08781  1.0000
  H   H300      1.0  0.27448  0.37157  0.12905  1.0000
  C   C298      1.0  0.46246  0.48097  0.22683  1.0000
  C   C299      1.0  0.35099  0.44773  0.21729  1.0000
  H   H301      1.0  0.34416  0.42545  0.21811  1.0000
  H   H302      1.0  0.33746  0.43081  0.31449  1.0000
  Fe  Fe53      1.0  0.29765  0.47617  0.44701  1.0000
  C   C300      1.0  0.44438  0.37244  0.15060  1.0000
  C   C301      1.0  0.45332  0.35731  0.13509  1.0000
  C   C302      1.0  0.45635  0.31517  0.13469  1.0000
  C   C303      1.0  0.45035  0.28726  0.14964  1.0000
  C   C304      1.0  0.44141  0.30245  0.16517  1.0000
  C   C305      1.0  0.43851  0.34465  0.16582  1.0000
  H   H303      1.0  0.45794  0.37831  0.12316  1.0000
  H   H304      1.0  0.46322  0.30425  0.12258  1.0000
  H   H305      1.0  0.43669  0.28134  0.17686  1.0000
  H   H306      1.0  0.43166  0.35553  0.17796  1.0000
  N   N27       1.0  0.28709  0.35015  0.46065  1.0000
  C   C306      1.0  0.36291  0.43591  0.21171  1.0000
  H   H307      1.0  0.36513  0.40442  0.20832  1.0000
  Fe  Fe54      1.0  0.42839  0.46787  0.17188  1.0000
  C   C307      1.0  0.26168  0.13973  0.05608  1.0000
  C   C308      1.0  0.27343  0.13186  0.04761  1.0000
  C   C309      1.0  0.27658  0.09654  0.03537  1.0000
  C   C310      1.0  0.26796  0.06878  0.03103  1.0000
  C   C311      1.0  0.25621  0.07660  0.03947  1.0000
  C   C312      1.0  0.25310  0.11161  0.05203  1.0000
  H   H308      1.0  0.28016  0.15324  0.05067  1.0000
  H   H309      1.0  0.28568  0.09097  0.02934  1.0000
  H   H310      1.0  0.39105  0.38814  0.17053  1.0000
  H   H311      1.0  0.24403  0.11720  0.05828  1.0000
  C   C313      1.0  0.27722  0.34991  0.19708  1.0000
  C   C314      1.0  0.27761  0.31631  0.18278  1.0000
  C   C315      1.0  0.26779  0.30735  0.16991  1.0000
  C   C316      1.0  0.25733  0.33141  0.17163  1.0000
  C   C317      1.0  0.25688  0.36455  0.18622  1.0000
  C   C318      1.0  0.26677  0.37402  0.19867  1.0000
  H   H312      1.0  0.28562  0.29731  0.18149  1.0000
  H   H313      1.0  0.26829  0.28171  0.15881  1.0000
  H   H314      1.0  0.24885  0.38338  0.18775  1.0000
  H   H315      1.0  0.26628  0.39979  0.20967  1.0000
  C   C319      1.0  0.26009  0.22954  0.20814  1.0000
  C   C320      1.0  0.45333  0.42084  0.21309  1.0000
  H   H316      1.0  0.24943  0.05553  0.03623  1.0000
  C   C321      1.0  0.44701  0.00288  0.06757  1.0000
  C   C322      1.0  0.37198  0.46434  0.21070  1.0000
  H   H317      1.0  0.45124  0.01256  0.05113  1.0000
  H   H318      1.0  0.42517  0.11549  0.05461  1.0000
  C   C323      1.0  0.39596  0.39865  0.15490  1.0000
  S   S111      1.0  0.42116  0.45042  0.20751  1.0000
  H   H319      1.0  0.45988  0.39604  0.21746  1.0000
  H   H320      1.0  0.44853  0.41234  0.19780  1.0000
  H   H321      1.0  0.45984  0.45554  0.17182  1.0000
  H   H322      1.0  0.37458  0.43043  0.15976  1.0000
  S   S112      1.0  0.27113  0.02484  0.01439  1.0000
  H   H323      1.0  0.28328  0.39360  0.43315  1.0000
  N   N28       1.0  0.43310  0.11573  0.08708  1.0000
  C   C324      1.0  0.42868  0.09795  0.10743  1.0000
  C   C325      1.0  0.43878  0.15175  0.08706  1.0000
  C   C326      1.0  0.42995  0.11624  0.12849  1.0000
  C   C327      1.0  0.44002  0.17119  0.10774  1.0000
  C   C328      1.0  0.43559  0.15324  0.12856  1.0000
  H   H324      1.0  0.25894  0.28762  0.22402  1.0000
  H   H325      1.0  0.26948  0.22466  0.21087  1.0000
  H   H326      1.0  0.44254  0.16534  0.07102  1.0000
  H   H327      1.0  0.42669  0.10164  0.14465  1.0000
  H   H328      1.0  0.44460  0.19964  0.10774  1.0000
  H   H329      1.0  0.43675  0.16770  0.14477  1.0000
  H   H330      1.0  0.44619  0.02351  0.12465  1.0000
  C   C329      1.0  0.26268  0.34305  0.46682  1.0000
  C   C330      1.0  0.44419  0.00917  0.10893  1.0000
  C   C331      1.0  0.40904  0.42647  0.11588  1.0000
  Fe  Fe55      1.0  0.28721  0.99079  0.99706  1.0000
  H   H331      1.0  0.44657  0.42365  0.22767  1.0000
  S   S113      1.0  0.27988  0.46621  0.24057  1.0000
  H   H332      1.0  0.25315  0.34087  0.46962  1.0000
  C   C332      1.0  0.27691  0.45257  0.16153  1.0000
  C   C333      1.0  0.43156  0.09692  0.06500  1.0000
  H   H333      1.0  0.30248  0.37856  0.44497  1.0000
  H   H334      1.0  0.41082  0.35690  0.16099  1.0000
  C   C334      1.0  0.39782  0.44364  0.12167  1.0000
  C   C335      1.0  0.29998  0.35332  0.45756  1.0000
  C   C336      1.0  0.24191  0.20854  0.19282  1.0000
  H   H335      1.0  0.41424  0.43834  0.10096  1.0000
  Fe  Fe56      1.0  0.23914  0.27293  0.13192  1.0000
  S   S114      1.0  0.29944  0.44887  0.41072  1.0000
  H   H336      1.0  0.29251  0.36716  0.14963  1.0000
  N   N29       1.0  0.28005  0.41764  0.15050  1.0000
  H   H337      1.0  0.25402  0.40010  0.12684  1.0000
  C   C337      1.0  0.25714  0.45086  0.14778  1.0000
  H   H338      1.0  0.29803  0.41552  0.13807  1.0000
  C   C338      1.0  0.25416  0.26482  0.21564  1.0000
  C   C339      1.0  0.26047  0.41563  0.13622  1.0000
  C   C340      1.0  0.26739  0.36974  0.44956  1.0000
  C   C341      1.0  0.41370  0.39483  0.12997  1.0000
  C   C342      1.0  0.27029  0.31964  0.48078  1.0000
  H   H339      1.0  0.39441  0.46912  0.11108  1.0000
  H   H340      1.0  0.25849  0.17383  0.19046  1.0000
  H   H341      1.0  0.23722  0.18635  0.18383  1.0000
  C   C343      1.0  0.46204  0.47310  0.18631  1.0000
  C   C344      1.0  0.26541  0.46957  0.16046  1.0000
  C   C345      1.0  0.33105  0.47967  0.29181  1.0000
  H   H342      1.0  0.46042  0.46991  0.24451  1.0000
  C   C346      1.0  0.33205  0.45868  0.31319  1.0000
  Fe  Fe57      1.0  0.29289  0.48010  0.26781  1.0000
  H   H343      1.0  0.33572  0.46846  0.27638  1.0000
  N   N30       1.0  0.39141  0.42955  0.14093  1.0000
  H   H344      1.0  0.32667  0.45759  0.34957  1.0000
  N   N31       1.0  0.23621  0.24353  0.19993  1.0000
  H   H345      1.0  0.23773  0.29980  0.21619  1.0000
  H   H346      1.0  0.37475  0.45704  0.13192  1.0000
  Fe  Fe58      1.0  0.48271  0.11442  0.15375  1.0000
  C   C347      1.0  0.38002  0.44979  0.14737  1.0000
  C   C348      1.0  0.32606  0.47375  0.33284  1.0000
  H   H347      1.0  0.38160  0.47844  0.15605  1.0000
  Fe  Fe59      1.0  0.40403  0.48262  0.19752  1.0000
  C   C349      1.0  0.24552  0.38570  0.58541  1.0000
  H   H348      1.0  0.23831  0.34217  0.63771  1.0000
  S   S115      1.0  0.25636  0.13491  0.62562  1.0000
  S   S116      1.0  0.23745  0.18595  0.57853  1.0000
  S   S117      1.0  0.24186  0.30367  0.55206  1.0000
  N   N32       1.0  0.23876  0.36777  0.60306  1.0000
  C   C350      1.0  0.26280  0.37776  0.60827  1.0000
  H   H349      1.0  0.28118  0.12769  0.98074  1.0000
  C   C351      1.0  0.32544  0.05358  0.69444  1.0000
  C   C352      1.0  0.30671  0.08529  0.68694  1.0000
  C   C353      1.0  0.30734  0.07112  0.66447  1.0000
  H   H350      1.0  0.24157  0.07884  0.67798  1.0000
  C   C354      1.0  0.27307  0.03691  0.92829  1.0000
  H   H351      1.0  0.25970  0.34999  0.64249  1.0000
  S   S118      1.0  0.27936  0.07675  0.72120  1.0000
  Fe  Fe60      1.0  0.46598  0.32247  0.61303  1.0000
  S   S119      1.0  0.47014  0.25710  0.60460  1.0000
  S   S120      1.0  0.45145  0.35250  0.59127  1.0000
  Fe  Fe61      1.0  0.28865  0.01585  0.73104  1.0000
  Fe  Fe62      1.0  0.46913  0.24243  0.64300  1.0000
  S   S121      1.0  0.45703  0.19590  0.66282  1.0000
  H   H352      1.0  0.29324  0.10967  0.96208  1.0000
  S   S122      1.0  0.46397  0.30735  0.65119  1.0000
  S   S123      1.0  0.30369  0.00578  0.97502  1.0000
  S   S124      1.0  0.29112  0.38487  0.52031  1.0000
  C   C355      1.0  0.31471  0.09067  0.72525  1.0000
  H   H353      1.0  0.30015  0.07815  0.65300  1.0000
  S   S125      1.0  0.43721  0.01785  0.64948  1.0000
  C   C356      1.0  0.44564  0.40317  0.59286  1.0000
  C   C357      1.0  0.43627  0.41602  0.57882  1.0000
  H   H354      1.0  0.47970  0.40633  0.76228  1.0000
  C   C358      1.0  0.32640  0.03902  0.67207  1.0000
  H   H355      1.0  0.24377  0.06313  0.63662  1.0000
  C   C359      1.0  0.45036  0.43112  0.60705  1.0000
  H   H356      1.0  0.43253  0.39459  0.56785  1.0000
  C   C360      1.0  0.45341  0.44646  0.53569  1.0000
  C   C361      1.0  0.28538  0.10005  0.97303  1.0000
  H   H357      1.0  0.45754  0.42161  0.61801  1.0000
  C   C362      1.0  0.45201  0.14569  0.65907  1.0000
  C   C363      1.0  0.45611  0.12198  0.64065  1.0000
  C   C364      1.0  0.45150  0.08308  0.63812  1.0000
  C   C365      1.0  0.44272  0.06718  0.65386  1.0000
  C   C366      1.0  0.43859  0.09097  0.67223  1.0000
  C   C367      1.0  0.44324  0.12976  0.67483  1.0000
  H   H358      1.0  0.46281  0.13362  0.62831  1.0000
  H   H359      1.0  0.45477  0.06515  0.62379  1.0000
  H   H360      1.0  0.43172  0.07977  0.68431  1.0000
  H   H361      1.0  0.43993  0.14779  0.68908  1.0000
  S   S126      1.0  0.29999  0.98680  0.91037  1.0000
  C   C368      1.0  0.25763  0.39085  0.58770  1.0000
  H   H362      1.0  0.26634  0.40754  0.51095  1.0000
  S   S127      1.0  0.24314  0.25349  0.61609  1.0000
  C   C369      1.0  0.43742  0.17042  0.59491  1.0000
  H   H363      1.0  0.43469  0.98972  0.76357  1.0000
  C   C370      1.0  0.43598  0.00602  0.74638  1.0000
  C   C371      1.0  0.27727  0.36428  0.53006  1.0000
  C   C372      1.0  0.27718  0.32922  0.54502  1.0000
  C   C373      1.0  0.26646  0.31051  0.55219  1.0000
  C   C374      1.0  0.25568  0.32628  0.54414  1.0000
  C   C375      1.0  0.25576  0.36147  0.52926  1.0000
  C   C376      1.0  0.26645  0.38066  0.52249  1.0000
  H   H364      1.0  0.28548  0.31622  0.55100  1.0000
  H   H365      1.0  0.26657  0.28354  0.56365  1.0000
  H   H366      1.0  0.24748  0.37406  0.52293  1.0000
  H   H367      1.0  0.30529  0.09268  0.73194  1.0000
  C   C377      1.0  0.26234  0.11895  0.65263  1.0000
  C   C378      1.0  0.26917  0.08227  0.65409  1.0000
  C   C379      1.0  0.27416  0.06832  0.67505  1.0000
  C   C380      1.0  0.27253  0.09127  0.69480  1.0000
  C   C381      1.0  0.26564  0.12780  0.69337  1.0000
  C   C382      1.0  0.26049  0.14142  0.67250  1.0000
  H   H368      1.0  0.27067  0.06462  0.63884  1.0000
  H   H369      1.0  0.27944  0.04021  0.67583  1.0000
  H   H370      1.0  0.26434  0.14588  0.70850  1.0000
  H   H371      1.0  0.25528  0.16967  0.67171  1.0000
  H   H372      1.0  0.31851  0.12129  0.72525  1.0000
  H   H373      1.0  0.43824  0.14349  0.58474  1.0000
  H   H374      1.0  0.33260  0.04665  0.70600  1.0000
  C   C383      1.0  0.44036  0.24196  0.59910  1.0000
  H   H375      1.0  0.43766  0.03850  0.74889  1.0000
  C   C384      1.0  0.44125  0.20782  0.58550  1.0000
  H   H376      1.0  0.42752  0.00380  0.73760  1.0000
  H   H377      1.0  0.44503  0.21034  0.56790  1.0000
  H   H378      1.0  0.29900  0.10359  0.69255  1.0000
  H   H379      1.0  0.31953  0.06962  0.73747  1.0000
  C   C385      1.0  0.31724  0.04763  0.65708  1.0000
  H   H380      1.0  0.45640  0.41531  0.53983  1.0000
  H   H381      1.0  0.33418  0.02095  0.66652  1.0000
  H   H382      1.0  0.45642  0.98418  0.67692  1.0000
  H   H383      1.0  0.47576  0.35478  0.73369  1.0000
  C   C386      1.0  0.26526  0.07893  0.96689  1.0000
  Fe  Fe63      1.0  0.24256  0.18507  0.61588  1.0000
  H   H384      1.0  0.44341  0.27086  0.59167  1.0000
  H   H385      1.0  0.31782  0.03614  0.63976  1.0000
  N   N33       1.0  0.31557  0.07567  0.70175  1.0000
  S   S128      1.0  0.30088  0.01055  0.76092  1.0000
  C   C387      1.0  0.26112  0.03644  0.93559  1.0000
  N   N34       1.0  0.43600  0.23871  0.62159  1.0000
  C   C388      1.0  0.43208  0.20231  0.63083  1.0000
  C   C389      1.0  0.43268  0.16768  0.61763  1.0000
  C   C390      1.0  0.43530  0.27430  0.63597  1.0000
  H   H386      1.0  0.42884  0.19957  0.64880  1.0000
  H   H387      1.0  0.42988  0.13858  0.62527  1.0000
  H   H388      1.0  0.43998  0.30056  0.62742  1.0000
  H   H389      1.0  0.42591  0.28399  0.63954  1.0000
  H   H390      1.0  0.43958  0.26677  0.65263  1.0000
  C   C391      1.0  0.25717  0.05752  0.95505  1.0000
  C   C392      1.0  0.43181  0.45663  0.57855  1.0000
  H   H391      1.0  0.27224  0.38091  0.61005  1.0000
  H   H392      1.0  0.24795  0.05681  0.96119  1.0000
  H   H393      1.0  0.29027  0.05757  0.93516  1.0000
  C   C393      1.0  0.25579  0.36038  0.62641  1.0000
  H   H394      1.0  0.28843  0.07918  0.98735  1.0000
  C   C394      1.0  0.45706  0.47824  0.54860  1.0000
  H   H395      1.0  0.26302  0.40402  0.57337  1.0000
  H   H396      1.0  0.27628  0.02014  0.91336  1.0000
  C   C395      1.0  0.28094  0.05833  0.94066  1.0000
  C   C396      1.0  0.24368  0.35593  0.62357  1.0000
  H   H397      1.0  0.25499  0.01936  0.92633  1.0000
  N   N35       1.0  0.27696  0.07929  0.95958  1.0000
  C   C397      1.0  0.44545  0.45493  0.51827  1.0000
  H   H398      1.0  0.32652  0.00264  0.79436  1.0000
  N   N36       1.0  0.44583  0.98756  0.73259  1.0000
  H   H399      1.0  0.30392  0.02290  0.86444  1.0000
  C   C398      1.0  0.29935  0.99500  0.86257  1.0000
  H   H400      1.0  0.26671  0.29952  0.49464  1.0000
  Fe  Fe64      1.0  0.23662  0.25458  0.58003  1.0000
  H   H401      1.0  0.44231  0.43048  0.50851  1.0000
  C   C399      1.0  0.44580  0.47161  0.60698  1.0000
  Fe  Fe65      1.0  0.29439  0.44329  0.49793  1.0000
  H   H402      1.0  0.43973  0.01331  0.70059  1.0000
  H   H403      1.0  0.26219  0.09430  0.98240  1.0000
  H   H404      1.0  0.33678  0.99876  0.81742  1.0000
  C   C400      1.0  0.44655  0.99496  0.70910  1.0000
  H   H405      1.0  0.23429  0.04640  0.60157  1.0000
  H   H406      1.0  0.24161  0.39497  0.56914  1.0000
  C   C401      1.0  0.23508  0.07189  0.64394  1.0000
  H   H407      1.0  0.46295  0.47118  0.56261  1.0000
  H   H408      1.0  0.42469  0.46624  0.56747  1.0000
  H   H409      1.0  0.29925  0.00251  0.82507  1.0000
  H   H410      1.0  0.35768  0.98562  0.75033  1.0000
  C   C402      1.0  0.23389  0.08077  0.66738  1.0000
  S   S129      1.0  0.33278  0.98322  0.74241  1.0000
  S   S130      1.0  0.30164  0.98319  0.70725  1.0000
  C   C403      1.0  0.29670  0.98355  0.84015  1.0000
  H   H411      1.0  0.47397  0.56323  0.19725  1.0000
  H   H412      1.0  0.25220  0.94737  0.08864  1.0000
  H   H413      1.0  0.45305  0.50394  0.28852  1.0000
  Fe  Fe66      1.0  0.42698  0.51176  0.21777  1.0000
  S   S131      1.0  0.43516  0.52799  0.18240  1.0000
  S   S132      1.0  0.43736  0.50883  0.25093  1.0000
  Fe  Fe67      1.0  0.41709  0.55518  0.17425  1.0000
  S   S133      1.0  0.41198  0.61885  0.15889  1.0000
  H   H414      1.0  0.47990  0.83585  0.38804  1.0000
  S   S134      1.0  0.40925  0.54233  0.21067  1.0000
  S   S135      1.0  0.24055  0.68554  0.10380  1.0000
  Fe  Fe68      1.0  0.28955  0.51131  0.21676  1.0000
  C   C404      1.0  0.46771  0.51871  0.22305  1.0000
  S   S136      1.0  0.25345  0.79747  0.09212  1.0000
  C   C405      1.0  0.26423  0.71300  0.16248  1.0000
  H   H415      1.0  0.26917  0.92698  0.01365  1.0000
  H   H416      1.0  0.25611  0.95436  0.00366  1.0000
  H   H417      1.0  0.43285  0.57351  0.34062  1.0000
  Fe  Fe69      1.0  0.39619  0.84734  0.03692  1.0000
  S   S137      1.0  0.40383  0.83264  0.07193  1.0000
  S   S138      1.0  0.37637  0.84233  0.02999  1.0000
  Fe  Fe70      1.0  0.42102  0.85206  0.01271  1.0000
  S   S139      1.0  0.43038  0.83806  0.04572  1.0000
  Fe  Fe71      1.0  0.41677  0.79014  0.05371  1.0000
  S   S140      1.0  0.42386  0.72717  0.06632  1.0000
  Fe  Fe72      1.0  0.41698  0.88153  0.06195  1.0000
  S   S141      1.0  0.42207  0.92157  0.09100  1.0000
  S   S142      1.0  0.40842  0.80109  0.01923  1.0000
  S   S143      1.0  0.40835  0.89932  0.02839  1.0000
  S   S144      1.0  0.30076  0.53928  0.45841  1.0000
  N   N37       1.0  0.31785  0.52932  0.30958  1.0000
  C   C406      1.0  0.28273  0.68197  0.13452  1.0000
  Fe  Fe73      1.0  0.47589  0.64074  0.33319  1.0000
  S   S145      1.0  0.28025  0.84294  0.99515  1.0000
  S   S146      1.0  0.46362  0.64500  0.30271  1.0000
  Fe  Fe74      1.0  0.47607  0.65963  0.38474  1.0000
  S   S147      1.0  0.46586  0.68514  0.41613  1.0000
  S   S148      1.0  0.47243  0.60349  0.36623  1.0000
  S   S149      1.0  0.30131  0.52909  0.24448  1.0000
  H   H418      1.0  0.23419  0.84981  0.06012  1.0000
  H   H419      1.0  0.24403  0.86626  0.02185  1.0000
  S   S150      1.0  0.28259  0.54924  0.18584  1.0000
  C   C407      1.0  0.43974  0.61288  0.46457  1.0000
  C   C408      1.0  0.44215  0.65321  0.46874  1.0000
  C   C409      1.0  0.45037  0.67464  0.45408  1.0000
  C   C410      1.0  0.45633  0.65595  0.43523  1.0000
  C   C411      1.0  0.45408  0.61538  0.43132  1.0000
  C   C412      1.0  0.44580  0.59409  0.44585  1.0000
  H   H420      1.0  0.31428  0.52073  0.34606  1.0000
  H   H421      1.0  0.45200  0.70605  0.45724  1.0000
  H   H422      1.0  0.45856  0.60061  0.41685  1.0000
  H   H423      1.0  0.44399  0.56292  0.44245  1.0000
  C   C413      1.0  0.43301  0.95936  0.08931  1.0000
  H   H424      1.0  0.42788  0.58247  0.38059  1.0000
  H   H425      1.0  0.28995  0.66933  0.12374  1.0000
  C   C414      1.0  0.35705  0.51662  0.22101  1.0000
  C   C415      1.0  0.34395  0.92608  0.01108  1.0000
  C   C416      1.0  0.36483  0.91822  0.02146  1.0000
  C   C417      1.0  0.36396  0.87587  0.02388  1.0000
  C   C418      1.0  0.23996  0.87553  0.05787  1.0000
  H   H426      1.0  0.44864  0.58093  0.34000  1.0000
  S   S151      1.0  0.47795  0.69889  0.35186  1.0000
  S   S152      1.0  0.29648  0.93873  0.01635  1.0000
  C   C419      1.0  0.26114  0.80794  0.06514  1.0000
  C   C420      1.0  0.25874  0.78820  0.04510  1.0000
  C   C421      1.0  0.26479  0.79880  0.02387  1.0000
  C   C422      1.0  0.27321  0.82941  0.02241  1.0000
  C   C423      1.0  0.27564  0.84891  0.04252  1.0000
  C   C424      1.0  0.26968  0.83808  0.06376  1.0000
  H   H427      1.0  0.25219  0.76494  0.04589  1.0000
  H   H428      1.0  0.26288  0.78341  0.00842  1.0000
  H   H429      1.0  0.28217  0.87222  0.04174  1.0000
  H   H430      1.0  0.27162  0.85352  0.07916  1.0000
  C   C425      1.0  0.24848  0.62752  0.17672  1.0000
  C   C426      1.0  0.25540  0.61477  0.15750  1.0000
  C   C427      1.0  0.26562  0.58979  0.16068  1.0000
  C   C428      1.0  0.26901  0.57716  0.18303  1.0000
  C   C429      1.0  0.26189  0.58875  0.20223  1.0000
  C   C430      1.0  0.25168  0.61396  0.19905  1.0000
  H   H431      1.0  0.25301  0.62486  0.14023  1.0000
  H   H432      1.0  0.27107  0.58085  0.14573  1.0000
  H   H433      1.0  0.26441  0.57918  0.21951  1.0000
  H   H434      1.0  0.24636  0.62356  0.21402  1.0000
  C   C431      1.0  0.41480  0.64641  0.13202  1.0000
  C   C432      1.0  0.42390  0.63487  0.11610  1.0000
  C   C433      1.0  0.42634  0.65949  0.09586  1.0000
  C   C434      1.0  0.41972  0.69585  0.09119  1.0000
  C   C435      1.0  0.41046  0.70695  0.10685  1.0000
  C   C436      1.0  0.40807  0.68246  0.12717  1.0000
  H   H435      1.0  0.42918  0.60735  0.11956  1.0000
  H   H436      1.0  0.43350  0.65052  0.08384  1.0000
  H   H437      1.0  0.40524  0.73463  0.10347  1.0000
  H   H438      1.0  0.40098  0.69161  0.13930  1.0000
  C   C437      1.0  0.44502  0.54714  0.26426  1.0000
  C   C438      1.0  0.45224  0.53568  0.28281  1.0000
  C   C439      1.0  0.45835  0.56493  0.29422  1.0000
  C   C440      1.0  0.45714  0.60624  0.28748  1.0000
  C   C441      1.0  0.45004  0.61762  0.26875  1.0000
  C   C442      1.0  0.44409  0.58829  0.25708  1.0000
  C   C443      1.0  0.34307  0.88375  0.01360  1.0000
  H   H439      1.0  0.46382  0.55556  0.30848  1.0000
  H   H440      1.0  0.44901  0.64947  0.26338  1.0000
  H   H441      1.0  0.43857  0.59764  0.24288  1.0000
  S   S153      1.0  0.41095  0.49669  0.16086  1.0000
  C   C444      1.0  0.24560  0.88489  0.03630  1.0000
  H   H442      1.0  0.44786  0.71386  0.37578  1.0000
  S   S154      1.0  0.27139  0.57774  0.49141  1.0000
  S   S155      1.0  0.23624  0.66220  0.17364  1.0000
  H   H443      1.0  0.28293  0.53946  0.34800  1.0000
  H   H444      1.0  0.28840  0.64870  0.16550  1.0000
  C   C445      1.0  0.44314  0.68566  0.37664  1.0000
  H   H445      1.0  0.28219  0.70262  0.09069  1.0000
  C   C446      1.0  0.25018  0.92990  0.07398  1.0000
  S   S156      1.0  0.33321  0.50503  0.23024  1.0000
  H   H446      1.0  0.26665  0.71606  0.09236  1.0000
  H   H447      1.0  0.23843  0.88972  0.09385  1.0000
  Fe  Fe75      1.0  0.31265  0.51037  0.48544  1.0000
  H   H448      1.0  0.40349  0.82209  0.12589  1.0000
  H   H449      1.0  0.41366  0.86283  0.12698  1.0000
  Fe  Fe76      1.0  0.28583  0.52887  0.48518  1.0000
  C   C447      1.0  0.27523  0.72050  0.10041  1.0000
  H   H450      1.0  0.46915  0.52186  0.16415  1.0000
  H   H451      1.0  0.47414  0.76919  0.40680  1.0000
  H   H452      1.0  0.25673  0.72432  0.17308  1.0000
  N   N38       1.0  0.42137  0.80251  0.12970  1.0000
  C   C448      1.0  0.42233  0.76761  0.14345  1.0000
  C   C449      1.0  0.42904  0.80882  0.11094  1.0000
  C   C450      1.0  0.43129  0.73822  0.13876  1.0000
  C   C451      1.0  0.43804  0.77992  0.10562  1.0000
  C   C452      1.0  0.43913  0.74440  0.11962  1.0000
  C   C453      1.0  0.41152  0.83182  0.13416  1.0000
  H   H453      1.0  0.41594  0.76167  0.15773  1.0000
  H   H454      1.0  0.42811  0.83595  0.09969  1.0000
  H   H455      1.0  0.43174  0.70988  0.14917  1.0000
  H   H456      1.0  0.44377  0.78426  0.09016  1.0000
  H   H457      1.0  0.44572  0.72092  0.11507  1.0000
  H   H458      1.0  0.42601  0.62728  0.41390  1.0000
  C   C454      1.0  0.28761  0.51097  0.35219  1.0000
  H   H459      1.0  0.30563  0.56787  0.29127  1.0000
  H   H460      1.0  0.43753  0.66811  0.48303  1.0000
  H   H461      1.0  0.43667  0.95757  0.05253  1.0000
  H   H462      1.0  0.25862  0.74455  0.13136  1.0000
  H   H463      1.0  0.44936  0.66872  0.34262  1.0000
  H   H464      1.0  0.27181  0.67660  0.19039  1.0000
  C   C455      1.0  0.25951  0.92489  0.01131  1.0000
  H   H465      1.0  0.35570  0.97573  0.01338  1.0000
  S   S157      1.0  0.33001  0.54486  0.48773  1.0000
  C   C456      1.0  0.26525  0.72385  0.13880  1.0000
  C   C457      1.0  0.27269  0.68627  0.17219  1.0000
  C   C458      1.0  0.24239  0.89790  0.07686  1.0000
  C   C459      1.0  0.43977  0.59672  0.33993  1.0000
  H   H466      1.0  0.35210  0.82634  0.02208  1.0000
  H   H467      1.0  0.28741  0.52143  0.38899  1.0000
  H   H468      1.0  0.31605  0.59377  0.30781  1.0000
  C   C460      1.0  0.28200  0.67055  0.15816  1.0000
  N   N39       1.0  0.27438  0.70823  0.12513  1.0000
  S   S158      1.0  0.42898  0.58497  0.48146  1.0000
  H   H469      1.0  0.26177  0.96327  0.04996  1.0000
  H   H470      1.0  0.37316  0.93186  0.02437  1.0000
  H   H471      1.0  0.40953  0.83426  0.15305  1.0000
  H   H472      1.0  0.27727  0.75332  0.09816  1.0000
  N   N40       1.0  0.25340  0.91581  0.03375  1.0000
  C   C461      1.0  0.34798  0.48822  0.22210  1.0000
  H   H473      1.0  0.43905  0.61452  0.32318  1.0000
  C   C462      1.0  0.35297  0.85897  0.02008  1.0000
  C   C463      1.0  0.25560  0.93863  0.05212  1.0000
  C   C464      1.0  0.35490  0.94304  0.01513  1.0000
  H   H474      1.0  0.33473  0.87013  0.01074  1.0000
  H   H475      1.0  0.30351  0.56802  0.32188  1.0000
  C   C465      1.0  0.31046  0.56679  0.30759  1.0000
  C   C466      1.0  0.43873  0.97170  0.06829  1.0000
  C   C467      1.0  0.31904  0.50955  0.33074  1.0000
  C   C468      1.0  0.43644  0.67423  0.39665  1.0000
  H   H476      1.0  0.46962  0.53657  0.23766  1.0000
  C   C469      1.0  0.43582  0.97821  0.10962  1.0000
  Fe  Fe77      1.0  0.23842  0.75377  0.09994  1.0000
  H   H477      1.0  0.43589  0.69359  0.41139  1.0000
  N   N41       1.0  0.43839  0.62366  0.35941  1.0000
  C   C470      1.0  0.43204  0.61173  0.37920  1.0000
  C   C471      1.0  0.44403  0.65985  0.35806  1.0000
  C   C472      1.0  0.43089  0.63696  0.39805  1.0000
  S   S159      1.0  0.33178  0.95919  0.00284  1.0000
  H   H478      1.0  0.29255  0.63858  0.48108  1.0000
  C   C473      1.0  0.46737  0.51058  0.18187  1.0000
  H   H479      1.0  0.35486  0.54803  0.22468  1.0000
  H   H480      1.0  0.35126  0.59036  0.48081  1.0000
  H   H481      1.0  0.37578  0.52717  0.21455  1.0000
  H   H482      1.0  0.26295  0.49693  0.16961  1.0000
  C   C474      1.0  0.29015  0.50083  0.37554  1.0000
  H   H483      1.0  0.32319  0.53145  0.27365  1.0000
  S   S160      1.0  0.28795  0.50040  0.30495  1.0000
  C   C475      1.0  0.32391  0.51527  0.29034  1.0000
  H   H484      1.0  0.43147  0.96885  0.12599  1.0000
  H   H485      1.0  0.25856  0.90052  0.99891  1.0000
  C   C476      1.0  0.36895  0.50489  0.21523  1.0000
  C   C477      1.0  0.47009  0.53368  0.20040  1.0000
  C   C478      1.0  0.29104  0.48476  0.33425  1.0000
  C   C479      1.0  0.31650  0.88484  0.80692  1.0000
  S   S161      1.0  0.30741  0.90806  0.96525  1.0000
  C   C480      1.0  0.48012  0.84552  0.92648  1.0000
  S   S162      1.0  0.28771  0.93013  0.80941  1.0000
  H   H486      1.0  0.45826  0.53914  0.57614  1.0000
  Fe  Fe78      1.0  0.47209  0.77896  0.87751  1.0000
  H   H487      1.0  0.25410  0.63815  0.50687  1.0000
  S   S163      1.0  0.46004  0.75677  0.90800  1.0000
  S   S164      1.0  0.47026  0.81661  0.78943  1.0000
  S   S165      1.0  0.47576  0.74414  0.84497  1.0000
  Fe  Fe79      1.0  0.29218  0.92677  0.72065  1.0000
  C   C481      1.0  0.29080  0.94756  0.83732  1.0000
  S   S166      1.0  0.28849  0.88568  0.69130  1.0000
  C   C482      1.0  0.36655  0.95925  0.69564  1.0000
  C   C483      1.0  0.32298  0.91828  0.79850  1.0000
  H   H488      1.0  0.38643  0.94212  0.97193  1.0000
  C   C484      1.0  0.30011  0.63541  0.54543  1.0000
  S   S167      1.0  0.30472  0.91381  0.74953  1.0000
  H   H489      1.0  0.45053  0.75201  0.69280  1.0000
  S   S168      1.0  0.24729  0.75978  0.60955  1.0000
  S   S169      1.0  0.24441  0.77489  0.67840  1.0000
  Fe  Fe80      1.0  0.24493  0.69336  0.60334  1.0000
  S   S170      1.0  0.26015  0.65171  0.59011  1.0000
  H   H490      1.0  0.47575  0.97646  0.95096  1.0000
  C   C485      1.0  0.35692  0.97654  0.73275  1.0000
  Fe  Fe81      1.0  0.41967  0.56862  0.56605  1.0000
  S   S171      1.0  0.41233  0.54306  0.53478  1.0000
  Fe  Fe82      1.0  0.40962  0.65459  0.55471  1.0000
  S   S172      1.0  0.40155  0.63519  0.52186  1.0000
  S   S173      1.0  0.40683  0.72086  0.56546  1.0000
  Fe  Fe83      1.0  0.39548  0.57978  0.54302  1.0000
  S   S174      1.0  0.37726  0.54953  0.54541  1.0000
  Fe  Fe84      1.0  0.41891  0.59986  0.51555  1.0000
  S   S175      1.0  0.40247  0.60145  0.57622  1.0000
  S   S176      1.0  0.42729  0.62330  0.54650  1.0000
  Fe  Fe85      1.0  0.41996  0.92000  0.71252  1.0000
  S   S177      1.0  0.43291  0.91254  0.68236  1.0000
  S   S178      1.0  0.42464  0.91134  0.75037  1.0000
  Fe  Fe86      1.0  0.39922  0.94281  0.68159  1.0000
  S   S179      1.0  0.41111  0.93755  0.64897  1.0000
  H   H491      1.0  0.36972  0.59298  0.50233  1.0000
  Fe  Fe87      1.0  0.41848  0.87964  0.66590  1.0000
  S   S180      1.0  0.42313  0.81589  0.65247  1.0000
  H   H492      1.0  0.44951  0.49303  0.61801  1.0000
  S   S181      1.0  0.40604  0.88331  0.69749  1.0000
  H   H493      1.0  0.26245  0.90405  0.62854  1.0000
  C   C486      1.0  0.41166  0.74675  0.58962  1.0000
  C   C487      1.0  0.41880  0.72764  0.60630  1.0000
  C   C488      1.0  0.42218  0.74926  0.62534  1.0000
  C   C489      1.0  0.41841  0.79015  0.62814  1.0000
  C   C490      1.0  0.41116  0.80910  0.61160  1.0000
  C   C491      1.0  0.40785  0.78757  0.59247  1.0000
  H   H494      1.0  0.42180  0.69629  0.60446  1.0000
  H   H495      1.0  0.42780  0.73416  0.63793  1.0000
  H   H496      1.0  0.40819  0.84050  0.61339  1.0000
  H   H497      1.0  0.40233  0.80280  0.57973  1.0000
  C   C492      1.0  0.24629  0.90950  0.68868  1.0000
  H   H498      1.0  0.35450  0.94625  0.66944  1.0000
  C   C493      1.0  0.36438  0.54792  0.52858  1.0000
  C   C494      1.0  0.35524  0.52166  0.53615  1.0000
  C   C495      1.0  0.45685  0.55017  0.55796  1.0000
  H   H499      1.0  0.37595  0.97390  0.72539  1.0000
  C   C496      1.0  0.29022  0.93492  0.87973  1.0000
  C   C497      1.0  0.26200  0.62860  0.56305  1.0000
  C   C498      1.0  0.27050  0.59657  0.56066  1.0000
  C   C499      1.0  0.27311  0.57960  0.53902  1.0000
  C   C500      1.0  0.26733  0.59479  0.51944  1.0000
  C   C501      1.0  0.25863  0.62622  0.52192  1.0000
  C   C502      1.0  0.25595  0.64302  0.54363  1.0000
  H   H500      1.0  0.27522  0.58523  0.57559  1.0000
  H   H501      1.0  0.27979  0.55545  0.53743  1.0000
  H   H502      1.0  0.36800  0.80071  0.98997  1.0000
  H   H503      1.0  0.24942  0.66776  0.54523  1.0000
  C   C503      1.0  0.34478  0.51974  0.52380  1.0000
  C   C504      1.0  0.25774  0.90605  0.64526  1.0000
  H   H504      1.0  0.23675  0.87879  0.62172  1.0000
  C   C505      1.0  0.31766  0.90788  0.84568  1.0000
  H   H505      1.0  0.23829  0.83350  0.64041  1.0000
  N   N42       1.0  0.24770  0.88460  0.65020  1.0000
  H   H506      1.0  0.28295  0.89566  0.85546  1.0000
  C   C506      1.0  0.38741  0.90935  0.97078  1.0000
  C   C507      1.0  0.42609  0.79792  0.71749  1.0000
  C   C508      1.0  0.27680  0.85168  0.68904  1.0000
  C   C509      1.0  0.27571  0.83278  0.66796  1.0000
  C   C510      1.0  0.26605  0.80815  0.66463  1.0000
  C   C511      1.0  0.25740  0.80189  0.68247  1.0000
  C   C512      1.0  0.25869  0.81973  0.70380  1.0000
  C   C513      1.0  0.26830  0.84464  0.70707  1.0000
  H   H507      1.0  0.28230  0.83775  0.65399  1.0000
  H   H508      1.0  0.26524  0.79430  0.64822  1.0000
  H   H509      1.0  0.25208  0.81484  0.71775  1.0000
  H   H510      1.0  0.26907  0.85873  0.72343  1.0000
  C   C514      1.0  0.45780  0.84498  0.77906  1.0000
  C   C515      1.0  0.45651  0.84945  0.75498  1.0000
  C   C516      1.0  0.44645  0.86983  0.74589  1.0000
  C   C517      1.0  0.43760  0.88621  0.76084  1.0000
  C   C518      1.0  0.43899  0.88240  0.78488  1.0000
  C   C519      1.0  0.44902  0.86184  0.79398  1.0000
  H   H511      1.0  0.46326  0.83651  0.74332  1.0000
  H   H512      1.0  0.44550  0.87256  0.72736  1.0000
  H   H513      1.0  0.43219  0.89500  0.79659  1.0000
  H   H514      1.0  0.44990  0.85861  0.81253  1.0000
  C   C520      1.0  0.43802  0.83791  0.95831  1.0000
  C   C521      1.0  0.43995  0.79635  0.96360  1.0000
  C   C522      1.0  0.44659  0.77189  0.94789  1.0000
  C   C523      1.0  0.45146  0.78870  0.92685  1.0000
  C   C524      1.0  0.44945  0.83023  0.92149  1.0000
  C   C525      1.0  0.44272  0.85460  0.93709  1.0000
  H   H515      1.0  0.32493  0.92241  0.77999  1.0000
  H   H516      1.0  0.44803  0.73976  0.95218  1.0000
  H   H517      1.0  0.45301  0.84354  0.90528  1.0000
  H   H518      1.0  0.44126  0.88671  0.93280  1.0000
  C   C526      1.0  0.28753  0.92354  0.85732  1.0000
  H   H519      1.0  0.46551  0.67741  0.88637  1.0000
  H   H520      1.0  0.33622  0.95613  0.69468  1.0000
  Fe  Fe88      1.0  0.29063  0.90071  0.98810  1.0000
  C   C527      1.0  0.34561  0.97188  0.72425  1.0000
  C   C528      1.0  0.42705  0.79487  0.75912  1.0000
  Fe  Fe89      1.0  0.29794  0.96277  0.94864  1.0000
  C   C529      1.0  0.47824  0.91525  0.93920  1.0000
  C   C530      1.0  0.35231  0.57104  0.49629  1.0000
  H   H521      1.0  0.41260  0.82372  0.74081  1.0000
  Fe  Fe90      1.0  0.31311  0.97268  0.73782  1.0000
  H   H522      1.0  0.47637  0.85212  0.90925  1.0000
  H   H523      1.0  0.35630  0.50235  0.55163  1.0000
  H   H524      1.0  0.44215  0.55703  0.52308  1.0000
  N   N43       1.0  0.45286  0.51729  0.54433  1.0000
  H   H525      1.0  0.46510  0.83240  0.96327  1.0000
  H   H526      1.0  0.32554  0.59975  0.52857  1.0000
  C   C531      1.0  0.46403  0.94737  0.73031  1.0000
  Fe  Fe91      1.0  0.29203  0.95231  0.77155  1.0000
  S   S182      1.0  0.27870  0.96019  0.74334  1.0000
  H   H527      1.0  0.36868  0.90022  0.97369  1.0000
  H   H528      1.0  0.43523  0.50211  0.50017  1.0000
  C   C532      1.0  0.32398  0.94129  0.83664  1.0000
  C   C533      1.0  0.39980  0.84833  0.96795  1.0000
  C   C534      1.0  0.46475  0.95438  0.70629  1.0000
  H   H529      1.0  0.43640  0.78304  0.97985  1.0000
  S   S183      1.0  0.47123  0.83995  0.85853  1.0000
  S   S184      1.0  0.29775  0.50395  0.51278  1.0000
  C   C535      1.0  0.24300  0.86015  0.63241  1.0000
  N   N44       1.0  0.37859  0.84391  0.97125  1.0000
  C   C536      1.0  0.47341  0.94487  0.95386  1.0000
  H   H530      1.0  0.33793  0.49913  0.52985  1.0000
  H   H531      1.0  0.47792  0.81382  0.93219  1.0000
  Fe  Fe92      1.0  0.42459  0.97130  0.66783  1.0000
  N   N45       1.0  0.37981  0.68884  0.59451  1.0000
  C   C537      1.0  0.37627  0.64966  0.59824  1.0000
  C   C538      1.0  0.37859  0.70864  0.57336  1.0000
  C   C539      1.0  0.37127  0.62940  0.58060  1.0000
  C   C540      1.0  0.37380  0.68905  0.55522  1.0000
  C   C541      1.0  0.37010  0.64920  0.55893  1.0000
  C   C542      1.0  0.38553  0.70855  0.61301  1.0000
  H   H532      1.0  0.37756  0.63351  0.61476  1.0000
  H   H533      1.0  0.38175  0.73924  0.57013  1.0000
  H   H534      1.0  0.36871  0.59798  0.58340  1.0000
  H   H535      1.0  0.37325  0.70433  0.53825  1.0000
  H   H536      1.0  0.36660  0.63325  0.54489  1.0000
  H   H537      1.0  0.39460  0.69483  0.61497  1.0000
  H   H538      1.0  0.38647  0.74173  0.60907  1.0000
  H   H539      1.0  0.38031  0.70484  0.62970  1.0000
  N   N46       1.0  0.32660  0.94600  0.81331  1.0000
  S   S185      1.0  0.43030  0.87062  0.97794  1.0000
  C   C543      1.0  0.44143  0.49499  0.51367  1.0000
  N   N47       1.0  0.30704  0.61385  0.52986  1.0000
  H   H540      1.0  0.31527  0.90492  0.86409  1.0000
  H   H541      1.0  0.47204  0.94105  0.69596  1.0000
  H   H542      1.0  0.40853  0.83346  0.96665  1.0000
  H   H543      1.0  0.31821  0.58909  0.55649  1.0000
  C   C544      1.0  0.35522  0.95456  0.68718  1.0000
  C   C545      1.0  0.36282  0.57265  0.50850  1.0000
  C   C546      1.0  0.36733  0.96988  0.71865  1.0000
  H   H544      1.0  0.31626  0.55657  0.53300  1.0000
  H   H545      1.0  0.40656  0.90861  0.96818  1.0000
  H   H546      1.0  0.26053  0.94705  0.69748  1.0000
  H   H547      1.0  0.39057  0.79234  0.96979  1.0000
  C   C547      1.0  0.44214  0.77063  0.69226  1.0000
  C   C548      1.0  0.37740  0.88542  0.97180  1.0000
  C   C549      1.0  0.26242  0.92919  0.66211  1.0000
  C   C550      1.0  0.25667  0.93077  0.68396  1.0000
  N   N48       1.0  0.43693  0.77814  0.71545  1.0000
  H   H548      1.0  0.44304  0.76651  0.77218  1.0000
  C   C551      1.0  0.30453  0.61543  0.50694  1.0000
  C   C552      1.0  0.38961  0.82528  0.96955  1.0000
  H   H549      1.0  0.43583  0.75429  0.68217  1.0000
  C   C553      1.0  0.39868  0.89059  0.96876  1.0000
  Fe  Fe93      1.0  0.47653  0.80624  0.82645  1.0000
  H   H550      1.0  0.36824  0.79775  0.95873  1.0000
  H   H551      1.0  0.32647  0.96387  0.84839  1.0000
  C   C554      1.0  0.42101  0.80673  0.73931  1.0000
  C   C555      1.0  0.36811  0.81877  0.97320  1.0000
  H   H552      1.0  0.44399  0.80011  0.68275  1.0000
  C   C556      1.0  0.34322  0.54444  0.50371  1.0000
  H   H553      1.0  0.34010  0.97251  0.79121  1.0000
  H   H554      1.0  0.42140  0.80743  0.70212  1.0000
  H   H555      1.0  0.30837  0.85487  0.83730  1.0000
  S   S186      1.0  0.43172  0.53655  0.59215  1.0000
  H   H556      1.0  0.45168  0.75181  0.73327  1.0000
  S   S187      1.0  0.28089  0.95206  0.96929  1.0000
  C   C557      1.0  0.43807  0.77451  0.75691  1.0000
  C   C558      1.0  0.33281  0.98181  0.80374  1.0000
  C   C559      1.0  0.31381  0.87974  0.83066  1.0000
  H   H557      1.0  0.28768  0.91586  0.89479  1.0000
  H   H558      1.0  0.44998  0.57519  0.55917  1.0000
  C   C560      1.0  0.29618  0.97076  0.88255  1.0000
  H   H559      1.0  0.46518  0.56248  0.54998  1.0000
  C   C561      1.0  0.44295  0.76656  0.73479  1.0000
  H   H560      1.0  0.42338  0.80277  0.77608  1.0000
  C   C562      1.0  0.31724  0.58873  0.53750  1.0000
  C   C563      1.0  0.34482  0.96030  0.70144  1.0000
  H   H561      1.0  0.30189  0.63359  0.56370  1.0000
  Fe  Fe94      1.0  0.31262  0.95026  0.99238  1.0000
  C   C564      1.0  0.46762  0.86388  0.96069  1.0000
  H   H562      1.0  0.28470  0.67557  0.55059  1.0000
  H   H563      1.0  0.31323  0.86379  0.79504  1.0000
  H   H564      1.0  0.25027  0.84757  0.62091  1.0000
  H   H565      1.0  0.46995  0.61593  0.86347  1.0000
  C   C565      1.0  0.44533  0.52601  0.52682  1.0000
  C   C566      1.0  0.29043  0.65958  0.53810  1.0000
  H   H566      1.0  0.47069  0.92824  0.73884  1.0000
  S   S188      1.0  0.23833  0.67849  0.64019  1.0000
  S   S189      1.0  0.37929  0.95392  0.67631  1.0000
  N   N49       1.0  0.47531  0.87539  0.94274  1.0000
  H   H567      1.0  0.35973  0.83757  0.97286  1.0000
  H   H568      1.0  0.27077  0.94416  0.65866  1.0000
  Fe  Fe95      1.0  0.23947  0.74579  0.64529  1.0000
  H   H569      1.0  0.45609  0.88364  0.98923  1.0000
  H   H570      1.0  0.24201  0.90923  0.70589  1.0000
  C   C567      1.0  0.24190  0.88644  0.67149  1.0000
  H   H571      1.0  0.45391  0.95842  0.76191  1.0000
  C   C568      1.0  0.45600  0.97850  0.69560  1.0000
  C   C569      1.0  0.43659  0.48467  0.59259  1.0000
  C   C570      1.0  0.46544  0.93347  0.97204  1.0000
  C   C571      1.0  0.46250  0.89275  0.97550  1.0000
  C   C572      1.0  0.47672  0.62787  0.87366  1.0000
  C   C573      1.0  0.45449  0.96455  0.74329  1.0000
  H   H572      1.0  0.23416  0.86840  0.67563  1.0000
  C   C574      1.0  0.48309  0.67789  0.89908  1.0000
  C   C575      1.0  0.28778  0.66117  0.51477  1.0000
  C   C576      1.0  0.47423  0.66235  0.88644  1.0000
  H   H573      1.0  0.27998  0.67825  0.50903  1.0000
  H   H574      1.0  0.46145  0.95615  0.98334  1.0000
  C   C577      1.0  0.29483  0.63888  0.49907  1.0000
  H   H575      1.0  0.30993  0.59802  0.49463  1.0000
  H   H576      1.0  0.48124  0.70484  0.90892  1.0000
  S   S190      1.0  0.41222  0.98051  0.69910  1.0000
  S   S191      1.0  0.65041  0.02144  0.01577  1.0000
  C   C578      1.0  0.49685  0.16384  0.22530  1.0000
  S   S192      1.0  0.50610  0.17429  0.08466  1.0000
  H   H577      1.0  0.55504  0.05354  0.01572  1.0000
  H   H578      1.0  0.62415  0.99024  0.13273  1.0000
  S   S193      1.0  0.65696  0.02148  0.23151  1.0000
  C   C579      1.0  0.52779  0.13507  0.24212  1.0000
  Fe  Fe96      1.0  0.67002  0.01365  0.25982  1.0000
  S   S194      1.0  0.67708  0.07198  0.27301  1.0000
  Fe  Fe97      1.0  0.54057  0.01811  0.26788  1.0000
  S   S195      1.0  0.52663  0.02256  0.29643  1.0000
  S   S196      1.0  0.53717  0.03236  0.22977  1.0000
  C   C580      1.0  0.52085  0.05523  0.06787  1.0000
  H   H579      1.0  0.69455  0.16723  0.41882  1.0000
  C   C581      1.0  0.59517  0.36324  0.47655  1.0000
  H   H580      1.0  0.61924  0.03278  0.00441  1.0000
  Fe  Fe98      1.0  0.53991  0.05591  0.31566  1.0000
  S   S197      1.0  0.53497  0.11985  0.32821  1.0000
  S   S198      1.0  0.55339  0.05512  0.28576  1.0000
  H   H581      1.0  0.63318  0.06349  0.10424  1.0000
  C   C582      1.0  0.52177  0.43766  0.39351  1.0000
  H   H582      1.0  0.68139  0.29444  0.38927  1.0000
  Fe  Fe99      1.0  0.54994  0.28160  0.42770  1.0000
  S   S199      1.0  0.55279  0.28465  0.46607  1.0000
  S   S200      1.0  0.55135  0.21637  0.41443  1.0000
  Fe  Fe100     1.0  0.54803  0.37454  0.42176  1.0000
  S   S201      1.0  0.55107  0.38320  0.45924  1.0000
  C   C583      1.0  0.63939  0.03767  0.10865  1.0000
  Fe  Fe101     1.0  0.56550  0.33485  0.45635  1.0000
  C   C584      1.0  0.53878  0.09156  0.05877  1.0000
  Fe  Fe102     1.0  0.53825  0.33295  0.46651  1.0000
  S   S202      1.0  0.56355  0.32908  0.41799  1.0000
  S   S203      1.0  0.53434  0.32696  0.42896  1.0000
  Fe  Fe103     1.0  0.72144  0.16471  0.35942  1.0000
  S   S204      1.0  0.72323  0.17890  0.39694  1.0000
  S   S205      1.0  0.71210  0.10606  0.35266  1.0000
  Fe  Fe104     1.0  0.72064  0.24501  0.38503  1.0000
  S   S206      1.0  0.70793  0.29650  0.39662  1.0000
  S   S207      1.0  0.71740  0.22985  0.34827  1.0000
  H   H583      1.0  0.52171  0.40600  0.39950  1.0000
  C   C585      1.0  0.69114  0.33453  0.46689  1.0000
  C   C586      1.0  0.69883  0.29992  0.46584  1.0000
  C   C587      1.0  0.70417  0.28794  0.44455  1.0000
  C   C588      1.0  0.70187  0.31059  0.42410  1.0000
  C   C589      1.0  0.69414  0.34505  0.42514  1.0000
  C   C590      1.0  0.68881  0.35701  0.44639  1.0000
  H   H584      1.0  0.52712  0.10129  0.08900  1.0000
  H   H585      1.0  0.71009  0.26136  0.44401  1.0000
  H   H586      1.0  0.69231  0.36276  0.40940  1.0000
  H   H587      1.0  0.68292  0.38367  0.44695  1.0000
  S   S208      1.0  0.48713  0.08703  0.18960  1.0000
  H   H588      1.0  0.64850  0.04545  0.10216  1.0000
  S   S209      1.0  0.48750  0.09047  0.11849  1.0000
  C   C591      1.0  0.64657  0.04650  0.14742  1.0000
  H   H589      1.0  0.65346  0.06570  0.13975  1.0000
  C   C592      1.0  0.59718  0.39442  0.45963  1.0000
  H   H590      1.0  0.63527  0.47132  0.42951  1.0000
  H   H591      1.0  0.59061  0.40155  0.44694  1.0000
  C   C593      1.0  0.54598  0.18998  0.39097  1.0000
  C   C594      1.0  0.54842  0.14774  0.38999  1.0000
  C   C595      1.0  0.54504  0.12571  0.37113  1.0000
  C   C596      1.0  0.53911  0.14565  0.35293  1.0000
  C   C597      1.0  0.53658  0.18782  0.35399  1.0000
  C   C598      1.0  0.54002  0.20989  0.37280  1.0000
  H   H592      1.0  0.55301  0.13193  0.40393  1.0000
  H   H593      1.0  0.54701  0.09332  0.37071  1.0000
  H   H594      1.0  0.53197  0.20366  0.34011  1.0000
  H   H595      1.0  0.53809  0.24231  0.37321  1.0000
  C   C599      1.0  0.68743  0.07960  0.29441  1.0000
  C   C600      1.0  0.69030  0.04944  0.31129  1.0000
  C   C601      1.0  0.69800  0.05792  0.32879  1.0000
  C   C602      1.0  0.70306  0.09631  0.32941  1.0000
  C   C603      1.0  0.70035  0.12620  0.31230  1.0000
  C   C604      1.0  0.69250  0.11795  0.29505  1.0000
  H   H596      1.0  0.68629  0.02010  0.31128  1.0000
  H   H597      1.0  0.69989  0.03487  0.34219  1.0000
  H   H598      1.0  0.70416  0.15587  0.31255  1.0000
  H   H599      1.0  0.69031  0.14149  0.28209  1.0000
  H   H600      1.0  0.68053  0.21951  0.34313  1.0000
  C   C605      1.0  0.51111  0.45850  0.38779  1.0000
  H   H601      1.0  0.53057  0.15837  0.01261  1.0000
  C   C606      1.0  0.61642  0.40792  0.47547  1.0000
  C   C607      1.0  0.50824  0.41733  0.45225  1.0000
  C   C608      1.0  0.49881  0.44252  0.44490  1.0000
  C   C609      1.0  0.50114  0.07109  0.20007  1.0000
  C   C610      1.0  0.51157  0.07218  0.18603  1.0000
  C   C611      1.0  0.52252  0.05993  0.19534  1.0000
  C   C612      1.0  0.52317  0.04714  0.21881  1.0000
  C   C613      1.0  0.51274  0.04644  0.23290  1.0000
  C   C614      1.0  0.50179  0.05799  0.22350  1.0000
  H   H602      1.0  0.51119  0.08222  0.16798  1.0000
  Fe  Fe105     1.0  0.56019  0.99580  0.30172  1.0000
  H   H603      1.0  0.51310  0.03693  0.25101  1.0000
  H   H604      1.0  0.49376  0.05714  0.23450  1.0000
  C   C615      1.0  0.51536  0.12077  0.01356  1.0000
  C   C616      1.0  0.52257  0.14952  0.02230  1.0000
  C   C617      1.0  0.51943  0.16672  0.04375  1.0000
  C   C618      1.0  0.50911  0.15515  0.05671  1.0000
  C   C619      1.0  0.50178  0.12714  0.04769  1.0000
  C   C620      1.0  0.50487  0.11024  0.02619  1.0000
  H   H605      1.0  0.55737  0.09877  0.03056  1.0000
  H   H606      1.0  0.52509  0.18866  0.05051  1.0000
  H   H607      1.0  0.49380  0.11809  0.05741  1.0000
  H   H608      1.0  0.49918  0.08826  0.01952  1.0000
  H   H609      1.0  0.60908  0.44054  0.44596  1.0000
  C   C621      1.0  0.63030  0.00410  0.14354  1.0000
  C   C622      1.0  0.53246  0.45789  0.39159  1.0000
  C   C623      1.0  0.63736  0.01357  0.18156  1.0000
  H   H610      1.0  0.54469  0.11506  0.06294  1.0000
  H   H611      1.0  0.52688  0.41358  0.45816  1.0000
  N   N50       1.0  0.57330  0.16406  0.36023  1.0000
  C   C624      1.0  0.57799  0.12723  0.36798  1.0000
  C   C625      1.0  0.56762  0.16741  0.33984  1.0000
  C   C626      1.0  0.57691  0.09238  0.35536  1.0000
  C   C627      1.0  0.56636  0.13316  0.32682  1.0000
  C   C628      1.0  0.57105  0.09546  0.33467  1.0000
  C   C629      1.0  0.57484  0.20037  0.37339  1.0000
  H   H612      1.0  0.58248  0.12459  0.38415  1.0000
  H   H613      1.0  0.56370  0.19640  0.33389  1.0000
  H   H614      1.0  0.58050  0.06303  0.36156  1.0000
  H   H615      1.0  0.56148  0.13562  0.31110  1.0000
  H   H616      1.0  0.57006  0.06856  0.32487  1.0000
  H   H617      1.0  0.57433  0.19277  0.39237  1.0000
  H   H618      1.0  0.58351  0.21384  0.36848  1.0000
  H   H619      1.0  0.56764  0.22375  0.37032  1.0000
  H   H620      1.0  0.51630  0.01392  0.04215  1.0000
  C   C630      1.0  0.52617  0.12980  0.26613  1.0000
  H   H621      1.0  0.68471  0.14568  0.34979  1.0000
  N   N51       1.0  0.54061  0.07130  0.03869  1.0000
  H   H622      1.0  0.65238  0.05209  0.18210  1.0000
  H   H623      1.0  0.70069  0.28237  0.48162  1.0000
  C   C631      1.0  0.51949  0.43309  0.45282  1.0000
  C   C632      1.0  0.61442  0.37672  0.49238  1.0000
  C   C633      1.0  0.51490  0.13587  0.27661  1.0000
  H   H624      1.0  0.48938  0.14325  0.22962  1.0000
  Fe  Fe106     1.0  0.48983  0.15611  0.10723  1.0000
  H   H625      1.0  0.51939  0.14965  0.21017  1.0000
  H   H626      1.0  0.49387  0.19571  0.22845  1.0000
  C   C634      1.0  0.69118  0.17831  0.40236  1.0000
  S   S210      1.0  0.58200  0.33428  0.47827  1.0000
  S   S211      1.0  0.54710  0.99785  0.33285  1.0000
  C   C635      1.0  0.66902  0.98846  0.10409  1.0000
  S   S212      1.0  0.62952  0.43721  0.47379  1.0000
  N   N52       1.0  0.63886  0.02876  0.13377  1.0000
  H   H627      1.0  0.53360  0.12075  0.27663  1.0000
  H   H628      1.0  0.49900  0.16137  0.20641  1.0000
  H   H629      1.0  0.53053  0.06058  0.18429  1.0000
  H   H630      1.0  0.54718  0.10045  0.00752  1.0000
  H   H631      1.0  0.51363  0.13176  0.29532  1.0000
  C   C636      1.0  0.50535  0.14699  0.26282  1.0000
  S   S213      1.0  0.66387  0.44552  0.47257  1.0000
  S   S214      1.0  0.54603  0.43365  0.39972  1.0000
  C   C637      1.0  0.64598  0.03901  0.17146  1.0000
  C   C638      1.0  0.52890  0.08375  0.07368  1.0000
  H   H632      1.0  0.53647  0.12920  0.23377  1.0000
  H   H633      1.0  0.50288  0.44264  0.38958  1.0000
  C   C639      1.0  0.55054  0.08156  0.02240  1.0000
  N   N53       1.0  0.68457  0.23416  0.37735  1.0000
  C   C640      1.0  0.68332  0.20808  0.35997  1.0000
  C   C641      1.0  0.68847  0.21979  0.39834  1.0000
  H   H634      1.0  0.69208  0.11930  0.38748  1.0000
  C   C642      1.0  0.59305  0.98446  0.29098  1.0000
  C   C643      1.0  0.68978  0.15147  0.38483  1.0000
  H   H635      1.0  0.67388  0.28351  0.36376  1.0000
  H   H636      1.0  0.49007  0.43038  0.44396  1.0000
  H   H637      1.0  0.68970  0.24047  0.41201  1.0000
  H   H638      1.0  0.49660  0.15143  0.27106  1.0000
  C   C644      1.0  0.68573  0.16633  0.36357  1.0000
  C   C645      1.0  0.68223  0.27789  0.37289  1.0000
  N   N54       1.0  0.50701  0.15193  0.23926  1.0000
  C   C646      1.0  0.60770  0.41654  0.45913  1.0000
  H   H639      1.0  0.50692  0.38553  0.45735  1.0000
  H   H640      1.0  0.51286  0.05037  0.07876  1.0000
  C   C647      1.0  0.51807  0.14645  0.22887  1.0000
  H   H641      1.0  0.67291  0.00344  0.08862  1.0000
  C   C648      1.0  0.53273  0.04336  0.03284  1.0000
  H   H642      1.0  0.65285  0.44709  0.40636  1.0000
  H   H643      1.0  0.68975  0.29094  0.36219  1.0000
  H   H644      1.0  0.59967  0.06996  0.00792  1.0000
  S   S215      1.0  0.67371  0.98886  0.17372  1.0000
  H   H645      1.0  0.53384  0.02890  0.01635  1.0000
  C   C649      1.0  0.67320  0.99595  0.12606  1.0000
  H   H646      1.0  0.68030  0.01683  0.12727  1.0000
  S   S216      1.0  0.48638  0.17960  0.14327  1.0000
  C   C650      1.0  0.52277  0.03479  0.04736  1.0000
  H   H647      1.0  0.62333  0.98652  0.29403  1.0000
  H   H648      1.0  0.63706  0.01061  0.09918  1.0000
  H   H649      1.0  0.70183  0.98389  0.27986  1.0000
  C   C651      1.0  0.52120  0.47389  0.44610  1.0000
  H   H650      1.0  0.63684  0.00727  0.20019  1.0000
  C   C652      1.0  0.65323  0.47466  0.41580  1.0000
  H   H651      1.0  0.60467  0.99487  0.31839  1.0000
  S   S217      1.0  0.57998  0.98951  0.30948  1.0000
  C   C653      1.0  0.60423  0.98813  0.30034  1.0000
  C   C654      1.0  0.60389  0.35463  0.49290  1.0000
  Fe  Fe107     1.0  0.66823  0.02431  0.99621  1.0000
  C   C655      1.0  0.62944  0.99603  0.16756  1.0000
  C   C656      1.0  0.61485  0.98330  0.28657  1.0000
  C   C657      1.0  0.60151  0.04986  0.99382  1.0000
  Fe  Fe108     1.0  0.55683  0.44483  0.79604  1.0000
  S   S218      1.0  0.54494  0.45473  0.82803  1.0000
  S   S219      1.0  0.52389  0.34976  0.49396  1.0000
  Fe  Fe109     1.0  0.53755  0.40143  0.77241  1.0000
  S   S220      1.0  0.52449  0.40786  0.80272  1.0000
  S   S221      1.0  0.53498  0.36436  0.74061  1.0000
  C   C658      1.0  0.52451  0.02641  0.85779  1.0000
  Fe  Fe110     1.0  0.53982  0.38956  0.82488  1.0000
  S   S222      1.0  0.53726  0.35045  0.85851  1.0000
  C   C659      1.0  0.61515  0.00255  0.97379  1.0000
  S   S223      1.0  0.55264  0.37880  0.79463  1.0000
  S   S224      1.0  0.54265  0.46712  0.77177  1.0000
  S   S225      1.0  0.71787  0.18893  0.86097  1.0000
  S   S226      1.0  0.71978  0.11728  0.91600  1.0000
  Fe  Fe111     1.0  0.71883  0.25506  0.86856  1.0000
  S   S227      1.0  0.70399  0.30246  0.86203  1.0000
  S   S228      1.0  0.72467  0.24235  0.90521  1.0000
  H   H652      1.0  0.56672  0.36030  0.71988  1.0000
  H   H653      1.0  0.58479  0.39115  0.82159  1.0000
  C   C660      1.0  0.64898  0.11318  0.95767  1.0000
  Fe  Fe112     1.0  0.54944  0.12400  0.91915  1.0000
  S   S229      1.0  0.55129  0.13472  0.95712  1.0000
  S   S230      1.0  0.55229  0.16538  0.88629  1.0000
  Fe  Fe113     1.0  0.54556  0.03231  0.92869  1.0000
  S   S231      1.0  0.54736  0.03631  0.96700  1.0000
  Fe  Fe114     1.0  0.53584  0.09336  0.96359  1.0000
  Fe  Fe115     1.0  0.56277  0.07661  0.95806  1.0000
  C   C661      1.0  0.58888  0.42766  0.72018  1.0000
  S   S232      1.0  0.53314  0.08671  0.92551  1.0000
  S   S233      1.0  0.56189  0.06851  0.91984  1.0000
  S   S234      1.0  0.65456  0.39274  0.51924  1.0000
  C   C662      1.0  0.54305  0.26729  0.56929  1.0000
  C   C663      1.0  0.55779  0.42369  0.88101  1.0000
  C   C664      1.0  0.60349  0.40423  0.76801  1.0000
  C   C665      1.0  0.72475  0.08406  0.82459  1.0000
  S   S235      1.0  0.50404  0.24968  0.58381  1.0000
  S   S236      1.0  0.65858  0.40783  0.72878  1.0000
  H   H654      1.0  0.58844  0.36526  0.71028  1.0000
  Fe  Fe116     1.0  0.67204  0.40977  0.75614  1.0000
  S   S237      1.0  0.68587  0.35900  0.76272  1.0000
  C   C666      1.0  0.51776  0.31976  0.51759  1.0000
  C   C667      1.0  0.50917  0.33793  0.53264  1.0000
  C   C668      1.0  0.50457  0.31636  0.55252  1.0000
  C   C669      1.0  0.50853  0.27629  0.55758  1.0000
  C   C670      1.0  0.51692  0.25778  0.54223  1.0000
  C   C671      1.0  0.52155  0.27941  0.52235  1.0000
  H   H655      1.0  0.50617  0.36911  0.52910  1.0000
  H   H656      1.0  0.49813  0.33098  0.56416  1.0000
  H   H657      1.0  0.52001  0.22676  0.54597  1.0000
  H   H658      1.0  0.70142  0.43021  0.77464  1.0000
  C   C672      1.0  0.70782  0.41047  0.83093  1.0000
  C   C673      1.0  0.67009  0.35365  0.59467  1.0000
  H   H659      1.0  0.51903  0.28854  0.75225  1.0000
  H   H660      1.0  0.64698  0.41235  0.62633  1.0000
  S   S238      1.0  0.68464  0.34844  0.49409  1.0000
  N   N55       1.0  0.50141  0.31408  0.75379  1.0000
  H   H661      1.0  0.67589  0.39191  0.63034  1.0000
  C   C674      1.0  0.57893  0.33889  0.84241  1.0000
  C   C675      1.0  0.59278  0.04539  0.97762  1.0000
  C   C676      1.0  0.58334  0.39116  0.71689  1.0000
  H   H662      1.0  0.62639  0.04480  0.93217  1.0000
  C   C677      1.0  0.55576  0.33319  0.52016  1.0000
  S   S239      1.0  0.48864  0.25289  0.64688  1.0000
  C   C678      1.0  0.70702  0.10971  0.93471  1.0000
  C   C679      1.0  0.69976  0.14217  0.94244  1.0000
  C   C680      1.0  0.69003  0.13473  0.95813  1.0000
  C   C681      1.0  0.68738  0.09483  0.96600  1.0000
  C   C682      1.0  0.69448  0.06231  0.95787  1.0000
  C   C683      1.0  0.70430  0.06979  0.94245  1.0000
  H   H663      1.0  0.70178  0.17304  0.93670  1.0000
  H   H664      1.0  0.68461  0.16010  0.96435  1.0000
  H   H665      1.0  0.69256  0.03148  0.96382  1.0000
  H   H666      1.0  0.70988  0.04450  0.93663  1.0000
  C   C684      1.0  0.69837  0.31424  0.83435  1.0000
  C   C685      1.0  0.70431  0.30133  0.81406  1.0000
  C   C686      1.0  0.70014  0.31433  0.79227  1.0000
  C   C687      1.0  0.69005  0.34043  0.79053  1.0000
  C   C688      1.0  0.68394  0.35252  0.81083  1.0000
  C   C689      1.0  0.68808  0.33941  0.83263  1.0000
  H   H667      1.0  0.71222  0.28191  0.81516  1.0000
  H   H668      1.0  0.70489  0.30467  0.77665  1.0000
  H   H669      1.0  0.67610  0.37227  0.80974  1.0000
  H   H670      1.0  0.68339  0.34931  0.84825  1.0000
  C   C690      1.0  0.54114  0.29841  0.86548  1.0000
  C   C691      1.0  0.53843  0.28233  0.88805  1.0000
  C   C692      1.0  0.54168  0.24174  0.89473  1.0000
  C   C693      1.0  0.54777  0.21669  0.87890  1.0000
  C   C694      1.0  0.55051  0.23283  0.85634  1.0000
  C   C695      1.0  0.54720  0.27336  0.84963  1.0000
  H   H671      1.0  0.53375  0.30138  0.90051  1.0000
  H   H672      1.0  0.53951  0.22991  0.91214  1.0000
  H   H673      1.0  0.55522  0.21378  0.84394  1.0000
  H   H674      1.0  0.54940  0.28524  0.83224  1.0000
  C   C696      1.0  0.52276  0.36621  0.72225  1.0000
  C   C697      1.0  0.52194  0.33570  0.70618  1.0000
  C   C698      1.0  0.51189  0.33381  0.69275  1.0000
  C   C699      1.0  0.50260  0.36291  0.69498  1.0000
  C   C700      1.0  0.50368  0.39448  0.71027  1.0000
  C   C701      1.0  0.51365  0.39605  0.72392  1.0000
  H   H675      1.0  0.52898  0.31265  0.70456  1.0000
  H   H676      1.0  0.51121  0.30939  0.68105  1.0000
  C   C702      1.0  0.66719  0.33639  0.57413  1.0000
  H   H677      1.0  0.51419  0.42001  0.73597  1.0000
  C   C703      1.0  0.61304  0.43037  0.76898  1.0000
  C   C704      1.0  0.73277  0.07863  0.86323  1.0000
  H   H678      1.0  0.58418  0.31708  0.83238  1.0000
  H   H679      1.0  0.71747  0.06229  0.82486  1.0000
  C   C705      1.0  0.59194  0.41599  0.77616  1.0000
  H   H680      1.0  0.49660  0.41734  0.71202  1.0000
  S   S240      1.0  0.51921  0.09540  0.98768  1.0000
  H   H681      1.0  0.54998  0.34473  0.50616  1.0000
  C   C706      1.0  0.54471  0.06854  0.86494  1.0000
  H   H682      1.0  0.56236  0.01678  0.87619  1.0000
  C   C707      1.0  0.61263  0.02879  0.99188  1.0000
  H   H683      1.0  0.52581  0.35309  0.57588  1.0000
  C   C708      1.0  0.53570  0.00670  0.85758  1.0000
  C   C709      1.0  0.57924  0.38039  0.83628  1.0000
  H   H684      1.0  0.53303  0.12160  0.86828  1.0000
  N   N56       1.0  0.68034  0.37427  0.59563  1.0000
  C   C710      1.0  0.52351  0.06794  0.86171  1.0000
  C   C711      1.0  0.68796  0.37788  0.57656  1.0000
  S   S241      1.0  0.48511  0.33882  0.61444  1.0000
  H   H685      1.0  0.57122  0.29335  0.86612  1.0000
  C   C712      1.0  0.63684  0.12333  0.95916  1.0000
  C   C713      1.0  0.68346  0.39176  0.61729  1.0000
  H   H686      1.0  0.65883  0.32155  0.57313  1.0000
  Fe  Fe117     1.0  0.67197  0.40313  0.49952  1.0000
  C   C714      1.0  0.70902  0.40994  0.80683  1.0000
  S   S242      1.0  0.57529  0.47195  0.79472  1.0000
  C   C715      1.0  0.50974  0.27939  0.75043  1.0000
  H   H687      1.0  0.66233  0.06964  0.94568  1.0000
  H   H688      1.0  0.68594  0.42398  0.61402  1.0000
  C   C716      1.0  0.57120  0.38832  0.72232  1.0000
  H   H689      1.0  0.51487  0.08349  0.86238  1.0000
  C   C717      1.0  0.68041  0.47677  0.83908  1.0000
  C   C718      1.0  0.65347  0.43544  0.62748  1.0000
  C   C719      1.0  0.55007  0.28067  0.54997  1.0000
  N   N57       1.0  0.54558  0.02764  0.86159  1.0000
  H   H690      1.0  0.58872  0.01521  0.94694  1.0000
  H   H691      1.0  0.55993  0.42110  0.89956  1.0000
  C   C720      1.0  0.68540  0.36060  0.55582  1.0000
  C   C721      1.0  0.63268  0.06462  0.93907  1.0000
  C   C722      1.0  0.67494  0.33973  0.55466  1.0000
  C   C723      1.0  0.53994  0.34526  0.54968  1.0000
  C   C724      1.0  0.53367  0.08930  0.86506  1.0000
  H   H692      1.0  0.67277  0.32682  0.53853  1.0000
  H   H693      1.0  0.68493  0.46945  0.79375  1.0000
  C   C725      1.0  0.70082  0.43168  0.79337  1.0000
  H   H694      1.0  0.54408  0.23635  0.57643  1.0000
  H   H695      1.0  0.65257  0.43269  0.66510  1.0000
  H   H696      1.0  0.53838  0.37529  0.54158  1.0000
  H   H697      1.0  0.66385  0.35184  0.60951  1.0000
  C   C726      1.0  0.53440  0.29370  0.57889  1.0000
  H   H698      1.0  0.58469  0.39573  0.77494  1.0000
  H   H699      1.0  0.59835  0.42953  0.71615  1.0000
  C   C727      1.0  0.56496  0.35418  0.87398  1.0000
  C   C728      1.0  0.64475  0.05342  0.93743  1.0000
  S   S243      1.0  0.67526  0.08698  0.98626  1.0000
  S   S244      1.0  0.67898  0.46963  0.74203  1.0000
  Fe  Fe118     1.0  0.64599  0.44029  0.75416  1.0000
  N   N58       1.0  0.62887  0.09913  0.94992  1.0000
  H   H700      1.0  0.69097  0.37399  0.62487  1.0000
  H   H701      1.0  0.60249  0.33063  0.50608  1.0000
  C   C729      1.0  0.61090  0.46833  0.77859  1.0000
  H   H702      1.0  0.55916  0.34355  0.88837  1.0000
  S   S245      1.0  0.65921  0.43723  0.78240  1.0000
  N   N59       1.0  0.69020  0.45329  0.82794  1.0000
  S   S246      1.0  0.67710  0.45304  0.52220  1.0000
  H   H703      1.0  0.55667  0.25981  0.54242  1.0000
  C   C730      1.0  0.48565  0.37995  0.76031  1.0000
  Fe  Fe119     1.0  0.65911  0.44577  0.54036  1.0000
  S   S247      1.0  0.65464  0.43579  0.57964  1.0000
  C   C731      1.0  0.55724  0.00657  0.86172  1.0000
  C   C732      1.0  0.57174  0.32561  0.86139  1.0000
  H   H704      1.0  0.57244  0.44022  0.84389  1.0000
  H   H705      1.0  0.51666  0.00921  0.85554  1.0000
  C   C733      1.0  0.65861  0.45346  0.60694  1.0000
  C   C734      1.0  0.53283  0.33297  0.56908  1.0000
  H   H706      1.0  0.71603  0.39144  0.79860  1.0000
  H   H707      1.0  0.52811  0.26500  0.51087  1.0000
  H   H708      1.0  0.61458  0.13912  0.94032  1.0000
  C   C735      1.0  0.65294  0.07804  0.94668  1.0000
  H   H709      1.0  0.60505  0.37472  0.76069  1.0000
  C   C736      1.0  0.60640  0.99791  0.95768  1.0000
  H   H710      1.0  0.72101  0.11438  0.82956  1.0000
  C   C737      1.0  0.49579  0.37544  0.77314  1.0000
  S   S248      1.0  0.62725  0.41440  0.75719  1.0000
  H   H711      1.0  0.55903  0.45571  0.87458  1.0000
  C   C738      1.0  0.69141  0.45332  0.80429  1.0000
  H   H712      1.0  0.55535  0.41979  0.73501  1.0000
  C   C739      1.0  0.57065  0.45767  0.73428  1.0000
  Fe  Fe120     1.0  0.72500  0.17617  0.89627  1.0000
  C   C740      1.0  0.59531  0.01917  0.95952  1.0000
  N   N60       1.0  0.56523  0.39477  0.86771  1.0000
  Fe  Fe121     1.0  0.66445  0.46993  0.71646  1.0000
  S   S249      1.0  0.57908  0.07416  0.98045  1.0000
  N   N61       1.0  0.54844  0.31924  0.54043  1.0000
  H   H713      1.0  0.56163  0.30843  0.51304  1.0000
  H   H714      1.0  0.71388  0.39233  0.84157  1.0000
  H   H715      1.0  0.56151  0.35798  0.52472  1.0000
  H   H716      1.0  0.63383  0.15058  0.96786  1.0000
  H   H717      1.0  0.51888  0.00232  0.91536  1.0000
  H   H718      1.0  0.65533  0.13204  0.96524  1.0000
  H   H719      1.0  0.69136  0.36385  0.54059  1.0000
  H   H720      1.0  0.69603  0.39450  0.57723  1.0000
  H   H721      1.0  0.49777  0.39821  0.78525  1.0000
  C   C741      1.0  0.57226  0.40808  0.84911  1.0000
  H   H722      1.0  0.54827  0.41701  0.87956  1.0000
  C   C742      1.0  0.65663  0.44692  0.64957  1.0000
  H   H723      1.0  0.52858  0.28323  0.59331  1.0000
  H   H724      1.0  0.50937  0.26803  0.73268  1.0000
  H   H725      1.0  0.50763  0.25439  0.76336  1.0000
  H   H726      1.0  0.61326  0.11669  0.96953  1.0000
  Fe  Fe122     1.0  0.48917  0.27252  0.60867  1.0000
  C   C743      1.0  0.56480  0.42179  0.73094  1.0000
  C   C744      1.0  0.58978  0.45419  0.78548  1.0000
  C   C745      1.0  0.61623  0.11110  0.95131  1.0000
  H   H727      1.0  0.64767  0.02527  0.92953  1.0000
  H   H728      1.0  0.62098  0.36960  0.50509  1.0000
  N   N62       1.0  0.58256  0.46012  0.72906  1.0000
  H   H729      1.0  0.55255  0.08525  0.86795  1.0000
  C   C746      1.0  0.69833  0.43265  0.84127  1.0000
  C   C747      1.0  0.50360  0.34199  0.76971  1.0000
  H   H730      1.0  0.61062  0.08690  0.94543  1.0000
  H   H731      1.0  0.72859  0.08867  0.80662  1.0000
  H   H732      1.0  0.51162  0.33920  0.77931  1.0000
  S   S250      1.0  0.48895  0.35893  0.68124  1.0000
  H   H733      1.0  0.69735  0.43228  0.86002  1.0000
  C   C748      1.0  0.49135  0.31780  0.74149  1.0000
  H   H734      1.0  0.56224  0.01270  0.84500  1.0000
  H   H735      1.0  0.72535  0.09753  0.86956  1.0000
  H   H736      1.0  0.67717  0.46109  0.85549  1.0000
  H   H737      1.0  0.48969  0.29623  0.72849  1.0000
  C   C749      1.0  0.48337  0.35090  0.74444  1.0000
  Fe  Fe123     1.0  0.53050  0.47272  0.80380  1.0000
  C   C750      1.0  0.66494  0.47696  0.65151  1.0000
  C   C751      1.0  0.59935  0.48005  0.78683  1.0000
  Fe  Fe124     1.0  0.64664  0.43856  0.49389  1.0000
  H   H738      1.0  0.67272  0.48056  0.82776  1.0000
  Fe  Fe125     1.0  0.48352  0.31869  0.65239  1.0000
  Fe  Fe126     1.0  0.72432  0.76030  0.36793  1.0000
  S   S251      1.0  0.72117  0.74937  0.40664  1.0000
  S   S252      1.0  0.71328  0.81508  0.35308  1.0000
  Fe  Fe127     1.0  0.72425  0.68268  0.40043  1.0000
  S   S253      1.0  0.71699  0.62324  0.41736  1.0000
  S   S254      1.0  0.72611  0.69264  0.36146  1.0000
  H   H739      1.0  0.67250  0.86007  0.02897  1.0000
  H   H740      1.0  0.51646  0.79615  0.38923  1.0000
  H   H741      1.0  0.72444  0.85994  0.30602  1.0000
  H   H742      1.0  0.50125  0.84926  0.37948  1.0000
  S   S255      1.0  0.65330  0.92246  0.01157  1.0000
  Fe  Fe128     1.0  0.67131  0.92205  0.25742  1.0000
  H   H743      1.0  0.62530  0.52158  0.45174  1.0000
  S   S256      1.0  0.67997  0.86070  0.26876  1.0000
  C   C752      1.0  0.66411  0.53067  0.42828  1.0000
  C   C753      1.0  0.66370  0.49591  0.41550  1.0000
  C   C754      1.0  0.72407  0.72871  0.46875  1.0000
  S   S257      1.0  0.65842  0.92255  0.22872  1.0000
  H   H744      1.0  0.52103  0.73716  0.41642  1.0000
  S   S258      1.0  0.52048  0.91654  0.32101  1.0000
  H   H745      1.0  0.70724  0.76990  0.31271  1.0000
  H   H746      1.0  0.50742  0.55348  0.41977  1.0000
  C   C755      1.0  0.63361  0.53556  0.45648  1.0000
  H   H747      1.0  0.71798  0.61418  0.47648  1.0000
  H   H748      1.0  0.63013  0.82381  0.25289  1.0000
  Fe  Fe129     1.0  0.49231  0.59168  0.36549  1.0000
  S   S259      1.0  0.49566  0.64598  0.38610  1.0000
  S   S260      1.0  0.49707  0.52578  0.37683  1.0000
  Fe  Fe130     1.0  0.49739  0.68200  0.35178  1.0000
  S   S261      1.0  0.51290  0.72610  0.34625  1.0000
  S   S262      1.0  0.49556  0.62582  0.33103  1.0000
  H   H749      1.0  0.50869  0.95418  0.27930  1.0000
  C   C756      1.0  0.65905  0.95018  0.14460  1.0000
  N   N63       1.0  0.63868  0.86472  0.27323  1.0000
  C   C757      1.0  0.65491  0.94254  0.12262  1.0000
  C   C758      1.0  0.52171  0.51986  0.37788  1.0000
  N   N64       1.0  0.71870  0.92059  0.31370  1.0000
  C   C759      1.0  0.67094  0.85578  0.04806  1.0000
  H   H750      1.0  0.52176  0.55159  0.37204  1.0000
  C   C760      1.0  0.65404  0.54350  0.44142  1.0000
  C   C761      1.0  0.51869  0.86324  0.32763  1.0000
  C   C762      1.0  0.52827  0.83590  0.33140  1.0000
  C   C763      1.0  0.52631  0.79415  0.33670  1.0000
  C   C764      1.0  0.51479  0.77879  0.33801  1.0000
  C   C765      1.0  0.50523  0.80600  0.33373  1.0000
  C   C766      1.0  0.50718  0.84785  0.32874  1.0000
  H   H751      1.0  0.53719  0.84696  0.33054  1.0000
  H   H752      1.0  0.53380  0.77355  0.33991  1.0000
  H   H753      1.0  0.49632  0.79490  0.33460  1.0000
  H   H754      1.0  0.49968  0.86849  0.32575  1.0000
  C   C767      1.0  0.71232  0.95479  0.30668  1.0000
  C   C768      1.0  0.59265  0.97583  0.26757  1.0000
  S   S263      1.0  0.65402  0.95106  0.07508  1.0000
  C   C769      1.0  0.63520  0.85210  0.25064  1.0000
  C   C770      1.0  0.64330  0.48853  0.42900  1.0000
  H   H755      1.0  0.54949  0.87945  0.23268  1.0000
  C   C771      1.0  0.64958  0.85307  0.28103  1.0000
  C   C772      1.0  0.65293  0.86432  0.30273  1.0000
  H   H756      1.0  0.70537  0.92571  0.05246  1.0000
  H   H757      1.0  0.54066  0.51461  0.38156  1.0000
  C   C773      1.0  0.70813  0.92350  0.27122  1.0000
  H   H758      1.0  0.68317  0.90948  0.11461  1.0000
  C   C774      1.0  0.70444  0.60606  0.43457  1.0000
  C   C775      1.0  0.69513  0.63236  0.44193  1.0000
  C   C776      1.0  0.68577  0.61746  0.45672  1.0000
  C   C777      1.0  0.68550  0.57607  0.46419  1.0000
  C   C778      1.0  0.69470  0.54966  0.45650  1.0000
  C   C779      1.0  0.70411  0.56463  0.44189  1.0000
  H   H759      1.0  0.69521  0.66425  0.43643  1.0000
  S   S264      1.0  0.67343  0.55918  0.48287  1.0000
  H   H760      1.0  0.69463  0.51775  0.46199  1.0000
  H   H761      1.0  0.71123  0.54389  0.43632  1.0000
  C   C780      1.0  0.70302  0.82454  0.33084  1.0000
  C   C781      1.0  0.69631  0.86155  0.33037  1.0000
  C   C782      1.0  0.68915  0.87300  0.31166  1.0000
  C   C783      1.0  0.68849  0.84724  0.29325  1.0000
  C   C784      1.0  0.69486  0.80962  0.29409  1.0000
  C   C785      1.0  0.70214  0.79839  0.31268  1.0000
  H   H762      1.0  0.69681  0.88188  0.34441  1.0000
  H   H763      1.0  0.68426  0.90191  0.31139  1.0000
  H   H764      1.0  0.69435  0.78930  0.28003  1.0000
  H   H765      1.0  0.62757  0.91644  0.31910  1.0000
  H   H766      1.0  0.51268  0.55957  0.44844  1.0000
  H   H767      1.0  0.69134  0.88740  0.03132  1.0000
  H   H768      1.0  0.62961  0.87637  0.24204  1.0000
  H   H769      1.0  0.51981  0.96444  0.23379  1.0000
  C   C786      1.0  0.68511  0.90435  0.09637  1.0000
  H   H770      1.0  0.51971  0.86036  0.28037  1.0000
  C   C787      1.0  0.67719  0.88344  0.08382  1.0000
  H   H771      1.0  0.50284  0.90424  0.27948  1.0000
  C   C788      1.0  0.63075  0.88646  0.28687  1.0000
  H   H772      1.0  0.52282  0.54572  0.42459  1.0000
  H   H773      1.0  0.53008  0.48542  0.44609  1.0000
  N   N65       1.0  0.67938  0.87799  0.06068  1.0000
  C   C789      1.0  0.61443  0.97401  0.26326  1.0000
  C   C790      1.0  0.68950  0.89211  0.04959  1.0000
  C   C791      1.0  0.69527  0.91992  0.08505  1.0000
  H   H774      1.0  0.65584  0.83537  0.27038  1.0000
  C   C792      1.0  0.53511  0.86543  0.25737  1.0000
  C   C793      1.0  0.53516  0.92440  0.23094  1.0000
  C   C794      1.0  0.48665  0.81307  0.39275  1.0000
  H   H775      1.0  0.70591  0.73887  0.48084  1.0000
  S   S265      1.0  0.62750  0.96408  0.24540  1.0000
  H   H776      1.0  0.63516  0.52572  0.47478  1.0000
  C   C795      1.0  0.72359  0.91803  0.33677  1.0000
  C   C796      1.0  0.50719  0.92826  0.26825  1.0000
  H   H777      1.0  0.73114  0.89544  0.33769  1.0000
  S   S266      1.0  0.65973  0.96408  0.27938  1.0000
  H   H778      1.0  0.66170  0.85565  0.30859  1.0000
  H   H779      1.0  0.67226  0.54702  0.42857  1.0000
  C   C797      1.0  0.49862  0.82069  0.38806  1.0000
  H   H780      1.0  0.62204  0.89523  0.28080  1.0000
  C   C798      1.0  0.52395  0.87837  0.26635  1.0000
  H   H781      1.0  0.63222  0.56915  0.45521  1.0000
  S   S267      1.0  0.54844  0.95793  0.28130  1.0000
  C   C799      1.0  0.63382  0.89842  0.30861  1.0000
  C   C800      1.0  0.49224  0.74660  0.40896  1.0000
  H   H782      1.0  0.70377  0.92409  0.25491  1.0000
  C   C801      1.0  0.69753  0.91366  0.06152  1.0000
  H   H783      1.0  0.67867  0.63818  0.46243  1.0000
  H   H784      1.0  0.62273  0.97622  0.17533  1.0000
  C   C802      1.0  0.64501  0.88734  0.31652  1.0000
  H   H785      1.0  0.65455  0.56983  0.45190  1.0000
  C   C803      1.0  0.50720  0.79063  0.39378  1.0000
  H   H786      1.0  0.64757  0.89675  0.33324  1.0000
  N   N66       1.0  0.50397  0.75437  0.40437  1.0000
  H   H787      1.0  0.53952  0.94336  0.21743  1.0000
  C   C804      1.0  0.51379  0.54151  0.43272  1.0000
  C   C805      1.0  0.51098  0.49989  0.38041  1.0000
  H   H788      1.0  0.50102  0.93847  0.25459  1.0000
  H   H789      1.0  0.67176  0.82271  0.05271  1.0000
  Fe  Fe131     1.0  0.53487  0.96364  0.31116  1.0000
  H   H790      1.0  0.66910  0.87265  0.09253  1.0000
  H   H791      1.0  0.51592  0.70685  0.39397  1.0000
  C   C806      1.0  0.71985  0.64635  0.47482  1.0000
  N   N67       1.0  0.64381  0.52256  0.44160  1.0000
  C   C807      1.0  0.53240  0.49887  0.38338  1.0000
  H   H792      1.0  0.53941  0.83790  0.26449  1.0000
  H   H793      1.0  0.66172  0.86708  0.05228  1.0000
  H   H794      1.0  0.48961  0.71764  0.41699  1.0000
  C   C808      1.0  0.71463  0.88878  0.27853  1.0000
  Fe  Fe132     1.0  0.65859  0.96861  0.03660  1.0000
  C   C809      1.0  0.71986  0.88777  0.29998  1.0000
  C   C810      1.0  0.51314  0.72316  0.40985  1.0000
  H   H795      1.0  0.50987  0.70051  0.42331  1.0000
  N   N68       1.0  0.51857  0.91356  0.25788  1.0000
  C   C811      1.0  0.54074  0.88869  0.23955  1.0000
  C   C812      1.0  0.71292  0.71637  0.47712  1.0000
  H   H796      1.0  0.64308  0.84663  0.23874  1.0000
  H   H797      1.0  0.64779  0.92171  0.12143  1.0000
  H   H798      1.0  0.71520  0.86218  0.26808  1.0000
  H   H799      1.0  0.65513  0.93537  0.16008  1.0000
  H   H800      1.0  0.70209  0.66485  0.48639  1.0000
  C   C813      1.0  0.71079  0.67493  0.48031  1.0000
  C   C814      1.0  0.70698  0.95685  0.28530  1.0000
  C   C815      1.0  0.52401  0.93642  0.24038  1.0000
  C   C816      1.0  0.65983  0.96164  0.10221  1.0000
  H   H801      1.0  0.70132  0.93705  0.09448  1.0000
  H   H802      1.0  0.58416  0.97280  0.26008  1.0000
  H   H803      1.0  0.71665  0.90799  0.34991  1.0000
  H   H804      1.0  0.72683  0.94794  0.34139  1.0000
  Fe  Fe133     1.0  0.66821  0.97532  0.21217  1.0000
  Fe  Fe134     1.0  0.64756  0.96867  0.24929  1.0000
  S   S268      1.0  0.68203  0.97139  0.23924  1.0000
  H   H805      1.0  0.60280  0.96309  0.23594  1.0000
  C   C817      1.0  0.60327  0.97035  0.25391  1.0000
  N   N69       1.0  0.51192  0.49840  0.43889  1.0000
  N   N70       1.0  0.73078  0.65872  0.46671  1.0000
  H   H806      1.0  0.72583  0.76085  0.46587  1.0000
  S   S269      1.0  0.67670  0.97540  0.01912  1.0000
  H   H807      1.0  0.49351  0.50251  0.43211  1.0000
  C   C818      1.0  0.73295  0.69931  0.46358  1.0000
  C   C819      1.0  0.66824  0.97704  0.14649  1.0000
  H   H808      1.0  0.67155  0.48508  0.40576  1.0000
  H   H809      1.0  0.71123  0.98058  0.31770  1.0000
  C   C820      1.0  0.48342  0.77577  0.40323  1.0000
  C   C821      1.0  0.50081  0.48332  0.43835  1.0000
  Fe  Fe135     1.0  0.72188  0.66525  0.85220  1.0000
  S   S270      1.0  0.71567  0.65942  0.88972  1.0000
  S   S271      1.0  0.71736  0.62191  0.82386  1.0000
  Fe  Fe136     1.0  0.71409  0.72821  0.88888  1.0000
  S   S272      1.0  0.69793  0.76898  0.89952  1.0000
  S   S273      1.0  0.71897  0.73342  0.85055  1.0000
  S   S274      1.0  0.51567  0.52245  0.80796  1.0000
  Fe  Fe137     1.0  0.49509  0.75108  0.85081  1.0000
  S   S275      1.0  0.49617  0.81194  0.83092  1.0000
  S   S276      1.0  0.50977  0.70036  0.84949  1.0000
  H   H810      1.0  0.71301  0.56362  0.79019  1.0000
  Fe  Fe138     1.0  0.49083  0.84133  0.86455  1.0000
  S   S277      1.0  0.49528  0.90135  0.88019  1.0000
  S   S278      1.0  0.49136  0.78142  0.88483  1.0000
  H   H811      1.0  0.59782  0.50965  0.79404  1.0000
  C   C822      1.0  0.69041  0.60825  0.74250  1.0000
  C   C823      1.0  0.70728  0.87617  0.89491  1.0000
  C   C824      1.0  0.67003  0.49515  0.63096  1.0000
  H   H812      1.0  0.66813  0.63567  0.77778  1.0000
  C   C825      1.0  0.67260  0.57538  0.71875  1.0000
  H   H813      1.0  0.68321  0.64970  0.77801  1.0000
  C   C826      1.0  0.49436  0.65884  0.89867  1.0000
  Fe  Fe139     1.0  0.64628  0.97607  0.98981  1.0000
  C   C827      1.0  0.72628  0.84293  0.89558  1.0000
  S   S279      1.0  0.66950  0.54777  0.79125  1.0000
  H   H814      1.0  0.69472  0.53386  0.77704  1.0000
  H   H815      1.0  0.48994  0.84723  0.92442  1.0000
  H   H816      1.0  0.68339  0.50753  0.84273  1.0000
  H   H817      1.0  0.51005  0.58324  0.87275  1.0000
  C   C828      1.0  0.71860  0.87822  0.92907  1.0000
  H   H818      1.0  0.70116  0.90611  0.92600  1.0000
  C   C829      1.0  0.69340  0.58156  0.72482  1.0000
  Fe  Fe140     1.0  0.66555  0.49733  0.76689  1.0000
  H   H819      1.0  0.69908  0.88311  0.88632  1.0000
  H   H820      1.0  0.67642  0.51855  0.63213  1.0000
  H   H821      1.0  0.50129  0.67177  0.90804  1.0000
  C   C830      1.0  0.66992  0.60163  0.73677  1.0000
  C   C831      1.0  0.50880  0.91920  0.88968  1.0000
  C   C832      1.0  0.51958  0.89731  0.88693  1.0000
  C   C833      1.0  0.53010  0.91340  0.89431  1.0000
  N   N71       1.0  0.49670  0.62484  0.88627  1.0000
  C   C834      1.0  0.72761  0.85484  0.91818  1.0000
  S   S280      1.0  0.54355  0.97172  0.91185  1.0000
  H   H822      1.0  0.51985  0.86817  0.87896  1.0000
  H   H823      1.0  0.56564  0.48340  0.74136  1.0000
  H   H824      1.0  0.48994  0.58244  0.86388  1.0000
  H   H825      1.0  0.67094  0.49781  0.59333  1.0000
  C   C835      1.0  0.51459  0.57327  0.81793  1.0000
  C   C836      1.0  0.52403  0.59162  0.82767  1.0000
  C   C837      1.0  0.52251  0.63110  0.83633  1.0000
  C   C838      1.0  0.51155  0.65297  0.83544  1.0000
  C   C839      1.0  0.50219  0.63502  0.82521  1.0000
  C   C840      1.0  0.50369  0.59546  0.81667  1.0000
  H   H826      1.0  0.53248  0.57525  0.82874  1.0000
  H   H827      1.0  0.52986  0.64458  0.84409  1.0000
  H   H828      1.0  0.49372  0.65133  0.82425  1.0000
  H   H829      1.0  0.49633  0.58185  0.80902  1.0000
  S   S281      1.0  0.68521  0.88160  0.98546  1.0000
  C   C841      1.0  0.68442  0.56518  0.71284  1.0000
  C   C842      1.0  0.68832  0.84968  0.96165  1.0000
  C   C843      1.0  0.68127  0.85060  0.94241  1.0000
  C   C844      1.0  0.68425  0.82514  0.92384  1.0000
  C   C845      1.0  0.69436  0.79875  0.92407  1.0000
  C   C846      1.0  0.70141  0.79779  0.94332  1.0000
  C   C847      1.0  0.69836  0.82296  0.96200  1.0000
  H   H830      1.0  0.72304  0.82615  0.85321  1.0000
  H   H831      1.0  0.67868  0.82600  0.90912  1.0000
  H   H832      1.0  0.70918  0.77763  0.94383  1.0000
  H   H833      1.0  0.70387  0.82178  0.97680  1.0000
  C   C848      1.0  0.70396  0.60010  0.81603  1.0000
  C   C849      1.0  0.69288  0.61056  0.82638  1.0000
  C   C850      1.0  0.68249  0.59355  0.81890  1.0000
  C   C851      1.0  0.68302  0.56574  0.80107  1.0000
  C   C852      1.0  0.69412  0.55479  0.79094  1.0000
  C   C853      1.0  0.70449  0.57196  0.79834  1.0000
  H   H834      1.0  0.69229  0.63213  0.83998  1.0000
  H   H835      1.0  0.67398  0.60241  0.82688  1.0000
  H   H836      1.0  0.71217  0.86664  0.84909  1.0000
  H   H837      1.0  0.53842  0.89639  0.89190  1.0000
  H   H838      1.0  0.61813  0.48876  0.77953  1.0000
  H   H839      1.0  0.50922  0.58678  0.90388  1.0000
  C   C854      1.0  0.48805  0.60913  0.87395  1.0000
  H   H840      1.0  0.67348  0.87073  0.94188  1.0000
  C   C855      1.0  0.67574  0.64658  0.76647  1.0000
  N   N72       1.0  0.67878  0.61768  0.74838  1.0000
  H   H841      1.0  0.69745  0.62076  0.75180  1.0000
  H   H842      1.0  0.67337  0.67694  0.75850  1.0000
  S   S282      1.0  0.65130  0.50281  0.74050  1.0000
  H   H843      1.0  0.66069  0.60866  0.74162  1.0000
  C   C856      1.0  0.58845  0.49837  0.73204  1.0000
  C   C857      1.0  0.51913  0.97302  0.90757  1.0000
  N   N73       1.0  0.71621  0.85371  0.88424  1.0000
  H   H844      1.0  0.66558  0.56259  0.70952  1.0000
  S   S283      1.0  0.66930  0.49290  0.67896  1.0000
  H   H845      1.0  0.59799  0.49269  0.73542  1.0000
  C   C858      1.0  0.52994  0.95134  0.90460  1.0000
  H   H846      1.0  0.48428  0.92429  0.92481  1.0000
  H   H847      1.0  0.50036  0.97437  0.90219  1.0000
  H   H848      1.0  0.70773  0.81747  0.86120  1.0000
  H   H849      1.0  0.71935  0.88689  0.94679  1.0000
  H   H850      1.0  0.68655  0.54427  0.69912  1.0000
  H   H851      1.0  0.70261  0.57350  0.72049  1.0000
  C   C859      1.0  0.50864  0.95707  0.90006  1.0000
  C   C860      1.0  0.71473  0.84040  0.86076  1.0000
  C   C861      1.0  0.70839  0.88918  0.91735  1.0000
  C   C862      1.0  0.50843  0.60434  0.88714  1.0000
  Fe  Fe141     1.0  0.66791  0.49517  0.49618  1.0000
  C   C863      1.0  0.66692  0.48349  0.60886  1.0000
  S   S284      1.0  0.65010  0.49131  0.51590  1.0000
  Fe  Fe142     1.0  0.67104  0.93201  0.99286  1.0000
  H   H852      1.0  0.51549  0.62713  0.88516  1.0000
  H   H853      1.0  0.58768  0.51867  0.71627  1.0000
  H   H854      1.0  0.58443  0.51422  0.74727  1.0000
  H   H855      1.0  0.55642  0.97313  0.86484  1.0000
  H   H856      1.0  0.53635  0.97419  0.85511  1.0000
  S   S285      1.0  0.62919  0.97627  0.96979  1.0000
  S   S286      1.0  0.66372  0.98179  0.96902  1.0000
  S   S287      1.0  0.73274  0.73477  0.89938  1.0000
  H   H857      1.0  0.60821  0.97766  0.94363  1.0000
  Fe  Fe143     1.0  0.79298  0.45628  0.03868  1.0000
  S   S288      1.0  0.82793  0.04113  0.47696  1.0000
  S   S289      1.0  0.79863  0.39338  0.02797  1.0000
  Fe  Fe144     1.0  0.97553  0.28454  0.09679  1.0000
  S   S290      1.0  0.96980  0.33955  0.11632  1.0000
  S   S291      1.0  0.96938  0.26937  0.06121  1.0000
  Fe  Fe145     1.0  0.97041  0.29840  0.14846  1.0000
  S   S292      1.0  0.95458  0.29998  0.17464  1.0000
  S   S293      1.0  0.97475  0.24170  0.12844  1.0000
  Fe  Fe146     1.0  0.79430  0.42900  0.26828  1.0000
  S   S294      1.0  0.78822  0.38476  0.29772  1.0000
  N   N74       1.0  0.77693  0.22462  0.33267  1.0000
  S   S295      1.0  0.81096  0.42401  0.24508  1.0000
  Fe  Fe147     1.0  0.92826  0.43332  0.28048  1.0000
  S   S296      1.0  0.93496  0.44440  0.31556  1.0000
  S   S297      1.0  0.94287  0.42897  0.25174  1.0000
  Fe  Fe148     1.0  0.90212  0.43915  0.29859  1.0000
  S   S298      1.0  0.90734  0.45065  0.33495  1.0000
  S   S299      1.0  0.88307  0.42391  0.28976  1.0000
  C   C864      1.0  0.84328  0.39009  0.21237  1.0000
  Fe  Fe149     1.0  0.92122  0.40050  0.32981  1.0000
  S   S300      1.0  0.92810  0.35158  0.35604  1.0000
  C   C865      1.0  0.76375  0.39053  0.04958  1.0000
  S   S301      1.0  0.91551  0.38637  0.29448  1.0000
  C   C866      1.0  0.94280  0.44145  0.37262  1.0000
  C   C867      1.0  0.93557  0.98691  0.40059  1.0000
  S   S302      1.0  0.74443  0.26848  0.30866  1.0000
  Fe  Fe150     1.0  0.80032  0.45780  0.21737  1.0000
  S   S303      1.0  0.75943  0.15801  0.40133  1.0000
  H   H858      1.0  0.93394  0.44011  0.99505  1.0000
  N   N75       1.0  0.94853  0.40325  0.00697  1.0000
  C   C868      1.0  0.94647  0.41523  0.03096  1.0000
  H   H859      1.0  0.75754  0.44290  0.28933  1.0000
  Fe  Fe151     1.0  0.90932  0.15512  0.43779  1.0000
  S   S304      1.0  0.90603  0.13897  0.47612  1.0000
  S   S305      1.0  0.90224  0.21437  0.42024  1.0000
  Fe  Fe152     1.0  0.92023  0.07074  0.42809  1.0000
  S   S306      1.0  0.91747  0.04870  0.46509  1.0000
  Fe  Fe153     1.0  0.89932  0.07987  0.46434  1.0000
  C   C869      1.0  0.77443  0.98654  0.42902  1.0000
  Fe  Fe154     1.0  0.92433  0.10903  0.47412  1.0000
  S   S307      1.0  0.92279  0.34173  0.01382  1.0000
  S   S308      1.0  0.90160  0.09743  0.42629  1.0000
  S   S309      1.0  0.92806  0.12961  0.43684  1.0000
  S   S310      1.0  0.77908  0.46336  0.01166  1.0000
  N   N76       1.0  0.76438  0.99409  0.44544  1.0000
  C   C870      1.0  0.85031  0.06746  0.46422  1.0000
  C   C871      1.0  0.86276  0.06878  0.46528  1.0000
  N   N77       1.0  0.95767  0.99199  0.44469  1.0000
  C   C872      1.0  0.74593  0.01175  0.47737  1.0000
  H   H860      1.0  0.84328  0.35709  0.21386  1.0000
  H   H861      1.0  0.86778  0.08785  0.45292  1.0000
  Fe  Fe155     1.0  0.74256  0.18747  0.38694  1.0000
  C   C873      1.0  0.76180  0.13379  0.42883  1.0000
  C   C874      1.0  0.77265  0.11245  0.43211  1.0000
  C   C875      1.0  0.77507  0.09287  0.45361  1.0000
  C   C876      1.0  0.76668  0.09461  0.47218  1.0000
  C   C877      1.0  0.75587  0.11628  0.46900  1.0000
  C   C878      1.0  0.75338  0.13549  0.44735  1.0000
  H   H862      1.0  0.77927  0.11137  0.41797  1.0000
  H   H863      1.0  0.78350  0.07705  0.45591  1.0000
  H   H864      1.0  0.95237  0.04184  0.46577  1.0000
  H   H865      1.0  0.74504  0.15212  0.44512  1.0000
  C   C879      1.0  0.92068  0.31428  0.37415  1.0000
  C   C880      1.0  0.90832  0.31365  0.37682  1.0000
  C   C881      1.0  0.90287  0.28322  0.39127  1.0000
  C   C882      1.0  0.90967  0.25268  0.40293  1.0000
  C   C883      1.0  0.92203  0.25302  0.40003  1.0000
  C   C884      1.0  0.92749  0.28384  0.38587  1.0000
  H   H866      1.0  0.90294  0.33675  0.36791  1.0000
  H   H867      1.0  0.89330  0.28325  0.39336  1.0000
  H   H868      1.0  0.92739  0.22977  0.40884  1.0000
  H   H869      1.0  0.93706  0.28398  0.38394  1.0000
  C   C885      1.0  0.77482  0.35816  0.30087  1.0000
  C   C886      1.0  0.76829  0.34992  0.28184  1.0000
  C   C887      1.0  0.75866  0.32376  0.28471  1.0000
  C   C888      1.0  0.75539  0.30597  0.30661  1.0000
  C   C889      1.0  0.76156  0.31591  0.32581  1.0000
  C   C890      1.0  0.77125  0.34174  0.32292  1.0000
  H   H870      1.0  0.77096  0.36219  0.26476  1.0000
  H   H871      1.0  0.75393  0.31627  0.26976  1.0000
  H   H872      1.0  0.75911  0.30264  0.34276  1.0000
  H   H873      1.0  0.77624  0.34798  0.33776  1.0000
  C   C891      1.0  0.86921  0.44929  0.28364  1.0000
  C   C892      1.0  0.85918  0.42571  0.28149  1.0000
  C   C893      1.0  0.84806  0.44399  0.27619  1.0000
  H   H874      1.0  0.86003  0.39296  0.28407  1.0000
  H   H875      1.0  0.84049  0.42526  0.27464  1.0000
  C   C894      1.0  0.95215  0.33181  0.19852  1.0000
  C   C895      1.0  0.96069  0.35844  0.20476  1.0000
  C   C896      1.0  0.95790  0.38646  0.22208  1.0000
  C   C897      1.0  0.94661  0.38797  0.23352  1.0000
  C   C898      1.0  0.93826  0.36000  0.22809  1.0000
  C   C899      1.0  0.94103  0.33211  0.21065  1.0000
  H   H876      1.0  0.96934  0.35804  0.19590  1.0000
  H   H877      1.0  0.96443  0.40782  0.22626  1.0000
  H   H878      1.0  0.92953  0.36090  0.23665  1.0000
  H   H879      1.0  0.93439  0.31144  0.20605  1.0000
  C   C900      1.0  0.93529  0.31817  0.02714  1.0000
  C   C901      1.0  0.94376  0.29448  0.01486  1.0000
  C   C902      1.0  0.95405  0.27927  0.02566  1.0000
  C   C903      1.0  0.95602  0.28769  0.04877  1.0000
  C   C904      1.0  0.94746  0.31079  0.06115  1.0000
  C   C905      1.0  0.93711  0.32558  0.05044  1.0000
  H   H880      1.0  0.96057  0.26112  0.01598  1.0000
  H   H881      1.0  0.94878  0.31710  0.07901  1.0000
  H   H882      1.0  0.93054  0.34342  0.06019  1.0000
  C   C906      1.0  0.80266  0.43821  0.10939  1.0000
  H   H883      1.0  0.90250  0.22589  0.35165  1.0000
  H   H884      1.0  0.80738  0.42323  0.09526  1.0000
  H   H885      1.0  0.93698  0.41157  0.03650  1.0000
  C   C907      1.0  0.80598  0.42989  0.13249  1.0000
  C   C908      1.0  0.80001  0.44895  0.15131  1.0000
  H   H886      1.0  0.76852  0.17737  0.35329  1.0000
  H   H887      1.0  0.78771  0.27562  0.27421  1.0000
  H   H888      1.0  0.91786  0.11702  0.38323  1.0000
  H   H889      1.0  0.96329  0.36306  0.01436  1.0000
  H   H890      1.0  0.79765  0.28911  0.31020  1.0000
  C   C909      1.0  0.74607  0.03020  0.45513  1.0000
  C   C910      1.0  0.79050  0.26786  0.31074  1.0000
  S   S311      1.0  0.80456  0.43635  0.18020  1.0000
  H   H891      1.0  0.92857  0.44418  0.19890  1.0000
  S   S312      1.0  0.74018  0.25486  0.37795  1.0000
  C   C911      1.0  0.77099  0.35601  0.05389  1.0000
  H   H892      1.0  0.96026  0.46470  0.36562  1.0000
  S   S313      1.0  0.78797  0.47542  0.07605  1.0000
  H   H893      1.0  0.77900  0.39898  0.12480  1.0000
  N   N78       1.0  0.95865  0.43311  0.16456  1.0000
  C   C912      1.0  0.94953  0.40904  0.15984  1.0000
  C   C913      1.0  0.95171  0.03189  0.44777  1.0000
  C   C914      1.0  0.93685  0.44210  0.18861  1.0000
  H   H894      1.0  0.82702  0.39611  0.19417  1.0000
  H   H895      1.0  0.95093  0.38510  0.14761  1.0000
  S   S314      1.0  0.88437  0.04550  0.48451  1.0000
  H   H896      1.0  0.97419  0.39643  0.15801  1.0000
  C   C915      1.0  0.93093  0.45156  0.37853  1.0000
  H   H897      1.0  0.78953  0.36469  0.11135  1.0000
  C   C916      1.0  0.77223  0.20784  0.35504  1.0000
  H   H898      1.0  0.96937  0.42766  0.13350  1.0000
  H   H899      1.0  0.94220  0.03029  0.44406  1.0000
  H   H900      1.0  0.77045  0.23040  0.27614  1.0000
  H   H901      1.0  0.76507  0.22842  0.36210  1.0000
  C   C917      1.0  0.95769  0.37666  0.00115  1.0000
  C   C918      1.0  0.78490  0.26034  0.29049  1.0000
  C   C919      1.0  0.96334  0.98349  0.42392  1.0000
  H   H902      1.0  0.76344  0.19936  0.31378  1.0000
  S   S315      1.0  0.79648  0.00432  0.47464  1.0000
  H   H903      1.0  0.74936  0.11804  0.48332  1.0000
  H   H904      1.0  0.95180  0.39585  0.04315  1.0000
  H   H905      1.0  0.81328  0.40851  0.13578  1.0000
  H   H906      1.0  0.79046  0.25689  0.34762  1.0000
  C   C920      1.0  0.76184  0.41900  0.06660  1.0000
  C   C921      1.0  0.78633  0.24978  0.33184  1.0000
  S   S316      1.0  0.83152  0.40423  0.00488  1.0000
  C   C922      1.0  0.77526  0.23489  0.29154  1.0000
  H   H907      1.0  0.82701  0.47115  0.19149  1.0000
  N   N79       1.0  0.77436  0.37861  0.09184  1.0000
  H   H908      1.0  0.78205  0.32396  0.07828  1.0000
  C   C923      1.0  0.83417  0.41190  0.20138  1.0000
  C   C924      1.0  0.77988  0.37163  0.11416  1.0000
  Fe  Fe156     1.0  0.78585  0.40265  0.99914  1.0000
  H   H909      1.0  0.75979  0.39549  0.03292  1.0000
  C   C925      1.0  0.84354  0.04303  0.48017  1.0000
  H   H910      1.0  0.77920  0.20381  0.36794  1.0000
  C   C926      1.0  0.95711  0.46158  0.18105  1.0000
  H   H911      1.0  0.97686  0.18712  0.07867  1.0000
  C   C927      1.0  0.75549  0.02133  0.43937  1.0000
  H   H912      1.0  0.85552  0.37954  0.01365  1.0000
  H   H913      1.0  0.84589  0.08566  0.45094  1.0000
  C   C928      1.0  0.83418  0.45447  0.19998  1.0000
  H   H914      1.0  0.73922  0.05266  0.45046  1.0000
  C   C929      1.0  0.86866  0.04541  0.48229  1.0000
  H   H915      1.0  0.92450  0.42777  0.37926  1.0000
  H   H916      1.0  0.97664  0.45008  0.15626  1.0000
  H   H917      1.0  0.94880  0.44745  0.03243  1.0000
  H   H918      1.0  0.78098  0.01065  0.43012  1.0000
  C   C930      1.0  0.79318  0.46553  0.10467  1.0000
  H   H919      1.0  0.93746  0.13474  0.36533  1.0000
  H   H920      1.0  0.77264  0.33402  0.04058  1.0000
  Fe  Fe157     1.0  0.73710  0.23660  0.34200  1.0000
  H   H921      1.0  0.90032  0.16335  0.37670  1.0000
  H   H922      1.0  0.77570  0.34588  0.12417  1.0000
  H   H923      1.0  0.75654  0.44660  0.06317  1.0000
  H   H924      1.0  0.93151  0.39263  0.16876  1.0000
  S   S317      1.0  0.74086  0.17003  0.35014  1.0000
  N   N80       1.0  0.92108  0.21566  0.34461  1.0000
  C   C931      1.0  0.93079  0.19053  0.34832  1.0000
  C   C932      1.0  0.91019  0.20577  0.35425  1.0000
  C   C933      1.0  0.92977  0.15467  0.36223  1.0000
  C   C934      1.0  0.90887  0.17028  0.36834  1.0000
  C   C935      1.0  0.91874  0.14460  0.37229  1.0000
  C   C936      1.0  0.92234  0.25242  0.32942  1.0000
  H   H925      1.0  0.93941  0.19828  0.34059  1.0000
  H   H926      1.0  0.85948  0.39446  0.23031  1.0000
  Fe  Fe158     1.0  0.81188  0.42456  0.00296  1.0000
  C   C937      1.0  0.94618  0.46657  0.19327  1.0000
  H   H927      1.0  0.94543  0.41029  0.36883  1.0000
  H   H928      1.0  0.92286  0.24432  0.31098  1.0000
  H   H929      1.0  0.91478  0.27462  0.33212  1.0000
  H   H930      1.0  0.93046  0.26857  0.33319  1.0000
  S   S318      1.0  0.78334  0.45747  0.23999  1.0000
  C   C938      1.0  0.77132  0.21738  0.31294  1.0000
  H   H931      1.0  0.75582  0.03731  0.42251  1.0000
  C   C939      1.0  0.85216  0.45354  0.21964  1.0000
  S   S319      1.0  0.93036  0.03854  0.39877  1.0000
  H   H932      1.0  0.77246  0.45854  0.29278  1.0000
  C   C940      1.0  0.77628  0.35056  0.07522  1.0000
  H   H933      1.0  0.95566  0.05580  0.43589  1.0000
  C   C941      1.0  0.93850  0.41320  0.17175  1.0000
  H   H934      1.0  0.76801  0.45961  0.33462  1.0000
  H   H935      1.0  0.76587  0.43523  0.10073  1.0000
  C   C942      1.0  0.79060  0.47652  0.14655  1.0000
  C   C943      1.0  0.76714  0.41232  0.08786  1.0000
  C   C944      1.0  0.85237  0.41097  0.22151  1.0000
  C   C945      1.0  0.97025  0.42664  0.15257  1.0000
  H   H936      1.0  0.94246  0.28828  0.99698  1.0000
  C   C946      1.0  0.95109  0.47195  0.37080  1.0000
  H   H937      1.0  0.90981  0.47443  0.39379  1.0000
  H   H938      1.0  0.83316  0.01532  0.42774  1.0000
  N   N81       1.0  0.84302  0.47472  0.20936  1.0000
  H   H939      1.0  0.96444  0.47963  0.18545  1.0000
  C   C947      1.0  0.76320  0.46967  0.29013  1.0000
  C   C948      1.0  0.82640  0.99152  0.42809  1.0000
  H   H940      1.0  0.85299  0.48130  0.00942  1.0000
  H   H941      1.0  0.94502  0.99112  0.36727  1.0000
  H   H942      1.0  0.81784  0.00674  0.43365  1.0000
  C   C949      1.0  0.85508  0.38446  0.99508  1.0000
  H   H943      1.0  0.85921  0.46949  0.22704  1.0000
  C   C950      1.0  0.75508  0.98430  0.48346  1.0000
  H   H944      1.0  0.77144  0.98646  0.41101  1.0000
  H   H945      1.0  0.96342  0.00604  0.40961  1.0000
  H   H946      1.0  0.73896  0.01971  0.49010  1.0000
  H   H947      1.0  0.98249  0.12517  0.10266  1.0000
  H   H948      1.0  0.89065  0.21943  0.88132  1.0000
  C   C951      1.0  0.81596  0.03916  0.62446  1.0000
  Fe  Fe159     1.0  0.91818  0.06161  0.81851  1.0000
  S   S320      1.0  0.90754  0.06256  0.78654  1.0000
  S   S321      1.0  0.92226  0.12527  0.83027  1.0000
  H   H949      1.0  0.88216  0.07573  0.53153  1.0000
  C   C952      1.0  0.97483  0.24517  0.55029  1.0000
  Fe  Fe160     1.0  0.92183  0.01994  0.77237  1.0000
  S   S322      1.0  0.92772  0.03024  0.73427  1.0000
  H   H950      1.0  0.96520  0.27543  0.57779  1.0000
  H   H951      1.0  0.82805  0.99507  0.60890  1.0000
  H   H952      1.0  0.89957  0.14729  0.55916  1.0000
  S   S323      1.0  0.79948  0.42854  0.97342  1.0000
  H   H953      1.0  0.92905  0.15390  0.70863  1.0000
  N   N82       1.0  0.73384  0.06918  0.84044  1.0000
  H   H954      1.0  0.76751  0.20900  0.86341  1.0000
  Fe  Fe161     1.0  0.92326  0.37001  0.92738  1.0000
  S   S324      1.0  0.91213  0.39459  0.95719  1.0000
  S   S325      1.0  0.93791  0.40283  0.90601  1.0000
  Fe  Fe162     1.0  0.91350  0.28407  0.93473  1.0000
  S   S326      1.0  0.90187  0.30249  0.96578  1.0000
  S   S327      1.0  0.91249  0.21747  0.92500  1.0000
  Fe  Fe163     1.0  0.89715  0.35922  0.94454  1.0000
  S   S328      1.0  0.87816  0.38361  0.93804  1.0000
  Fe  Fe164     1.0  0.91767  0.33606  0.97640  1.0000
  H   H955      1.0  0.78373  0.16048  0.77246  1.0000
  S   S329      1.0  0.90796  0.33899  0.91278  1.0000
  S   S330      1.0  0.92959  0.31330  0.94730  1.0000
  Fe  Fe165     1.0  0.74325  0.24362  0.88910  1.0000
  H   H956      1.0  0.92250  0.03001  0.52758  1.0000
  S   S331      1.0  0.75981  0.27590  0.89866  1.0000
  C   C953      1.0  0.94133  0.41963  0.99038  1.0000
  S   S332      1.0  0.74267  0.16439  0.81433  1.0000
  Fe  Fe166     1.0  0.81221  0.01038  0.49661  1.0000
  S   S333      1.0  0.80110  0.03778  0.52587  1.0000
  H   H957      1.0  0.93747  0.42260  0.95419  1.0000
  S   S334      1.0  0.97405  0.20794  0.63962  1.0000
  S   S335      1.0  0.97281  0.12580  0.69337  1.0000
  Fe  Fe167     1.0  0.96942  0.17592  0.60766  1.0000
  S   S336      1.0  0.95377  0.19697  0.58603  1.0000
  S   S337      1.0  0.97108  0.11359  0.62480  1.0000
  S   S338      1.0  0.80548  0.01831  0.73814  1.0000
  H   H958      1.0  0.82778  0.01494  0.70233  1.0000
  S   S339      1.0  0.78796  0.04746  0.79765  1.0000
  C   C954      1.0  0.94355  0.12934  0.52223  1.0000
  C   C955      1.0  0.95317  0.11509  0.53522  1.0000
  C   C956      1.0  0.95641  0.13553  0.55470  1.0000
  C   C957      1.0  0.95002  0.17056  0.56146  1.0000
  C   C958      1.0  0.94046  0.18514  0.54834  1.0000
  C   C959      1.0  0.93722  0.16468  0.52880  1.0000
  H   H959      1.0  0.95813  0.08777  0.53035  1.0000
  H   H960      1.0  0.96381  0.12397  0.56456  1.0000
  H   H961      1.0  0.93550  0.21236  0.55335  1.0000
  C   C960      1.0  0.85503  0.99210  0.79695  1.0000
  C   C961      1.0  0.75467  0.12885  0.81075  1.0000
  C   C962      1.0  0.76250  0.11962  0.82835  1.0000
  C   C963      1.0  0.77243  0.09339  0.82426  1.0000
  C   C964      1.0  0.77458  0.07593  0.80265  1.0000
  C   C965      1.0  0.76651  0.08402  0.78532  1.0000
  C   C966      1.0  0.75662  0.11056  0.78935  1.0000
  H   H962      1.0  0.76106  0.13336  0.84492  1.0000
  H   H963      1.0  0.77865  0.08724  0.83774  1.0000
  H   H964      1.0  0.76812  0.07096  0.76859  1.0000
  H   H965      1.0  0.75061  0.11767  0.77562  1.0000
  H   H966      1.0  0.92020  0.13299  0.57064  1.0000
  C   C967      1.0  0.76808  0.33714  0.96595  1.0000
  C   C968      1.0  0.75739  0.31699  0.96453  1.0000
  C   C969      1.0  0.75463  0.29851  0.94403  1.0000
  C   C970      1.0  0.76259  0.29978  0.92472  1.0000
  C   C971      1.0  0.77325  0.32020  0.92610  1.0000
  C   C972      1.0  0.77599  0.33884  0.94655  1.0000
  C   C973      1.0  0.77151  0.20158  0.79035  1.0000
  H   H967      1.0  0.74641  0.28287  0.94327  1.0000
  H   H968      1.0  0.77949  0.32128  0.91130  1.0000
  H   H969      1.0  0.78429  0.35389  0.94739  1.0000
  H   H970      1.0  0.92369  0.47471  0.91979  1.0000
  H   H971      1.0  0.75276  0.41422  0.96034  1.0000
  C   C974      1.0  0.86552  0.37989  0.98082  1.0000
  C   C975      1.0  0.86517  0.38686  0.95682  1.0000
  C   C976      1.0  0.85418  0.39763  0.94729  1.0000
  C   C977      1.0  0.84372  0.40214  0.96156  1.0000
  H   H972      1.0  0.88718  0.11794  0.51320  1.0000
  H   H973      1.0  0.83539  0.41082  0.95398  1.0000
  H   H974      1.0  0.95897  0.44609  0.89289  1.0000
  C   C978      1.0  0.91919  0.15035  0.85672  1.0000
  C   C979      1.0  0.92176  0.19184  0.85759  1.0000
  C   C980      1.0  0.91976  0.21292  0.87823  1.0000
  C   C981      1.0  0.91526  0.19263  0.89840  1.0000
  C   C982      1.0  0.91262  0.15122  0.89750  1.0000
  C   C983      1.0  0.91452  0.13024  0.87681  1.0000
  H   H975      1.0  0.92539  0.20776  0.84221  1.0000
  H   H976      1.0  0.92187  0.24469  0.87859  1.0000
  H   H977      1.0  0.90920  0.13506  0.91299  1.0000
  H   H978      1.0  0.91254  0.09834  0.87650  1.0000
  C   C984      1.0  0.94072  0.05442  0.72306  1.0000
  C   C985      1.0  0.94985  0.06361  0.73720  1.0000
  C   C986      1.0  0.95979  0.08437  0.72768  1.0000
  C   C987      1.0  0.96063  0.09662  0.70403  1.0000
  C   C988      1.0  0.95160  0.08685  0.68981  1.0000
  C   C989      1.0  0.94173  0.06567  0.69928  1.0000
  H   H979      1.0  0.94923  0.05483  0.75548  1.0000
  H   H980      1.0  0.96677  0.09155  0.73879  1.0000
  H   H981      1.0  0.95211  0.09611  0.67159  1.0000
  H   H982      1.0  0.78569  0.00974  0.59683  1.0000
  C   C990      1.0  0.76863  0.21976  0.81137  1.0000
  H   H983      1.0  0.86633  0.00251  0.51140  1.0000
  H   H984      1.0  0.88218  0.12550  0.54286  1.0000
  H   H985      1.0  0.75926  0.01135  0.84110  1.0000
  H   H986      1.0  0.96672  0.34335  0.97377  1.0000
  S   S340      1.0  0.90849  0.00823  0.83497  1.0000
  H   H987      1.0  0.73832  0.45924  0.93939  1.0000
  C   C991      1.0  0.90569  0.06354  0.52909  1.0000
  H   H988      1.0  0.96697  0.23229  0.54392  1.0000
  H   H989      1.0  0.76656  0.25911  0.84961  1.0000
  C   C992      1.0  0.75582  0.43859  0.94844  1.0000
  H   H990      1.0  0.81237  0.04979  0.60809  1.0000
  Fe  Fe168     1.0  0.73694  0.19302  0.84834  1.0000
  H   H991      1.0  0.81166  0.04990  0.68233  1.0000
  H   H992      1.0  0.78025  0.24060  0.86087  1.0000
  H   H993      1.0  0.93367  0.45245  0.85482  1.0000
  Fe  Fe169     1.0  0.79313  0.00361  0.76906  1.0000
  H   H994      1.0  0.76559  0.20556  0.77616  1.0000
  N   N83       1.0  0.94179  0.14978  0.76949  1.0000
  C   C993      1.0  0.94810  0.16740  0.75107  1.0000
  C   C994      1.0  0.93082  0.13518  0.76664  1.0000
  C   C995      1.0  0.94354  0.16970  0.72896  1.0000
  C   C996      1.0  0.92602  0.13671  0.74478  1.0000
  C   C997      1.0  0.93247  0.15394  0.72583  1.0000
  C   C998      1.0  0.94660  0.14706  0.79261  1.0000
  H   H995      1.0  0.95685  0.17869  0.75318  1.0000
  H   H996      1.0  0.92582  0.12155  0.78128  1.0000
  H   H997      1.0  0.94880  0.18197  0.71419  1.0000
  H   H998      1.0  0.91756  0.12323  0.74247  1.0000
  C   C999      1.0  0.95968  0.36536  0.97822  1.0000
  H   H999      1.0  0.94189  0.16963  0.80381  1.0000
  H   H1000     1.0  0.94526  0.11621  0.80090  1.0000
  H   H1001     1.0  0.95626  0.15237  0.79200  1.0000
  N   N84       1.0  0.77578  0.21350  0.82969  1.0000
  N   N85       1.0  0.89932  0.09583  0.53805  1.0000
  C   C1000     1.0  0.91737  0.05496  0.53519  1.0000
  Fe  Fe170     1.0  0.89871  0.00679  0.80185  1.0000
  H   H1002     1.0  0.85376  0.40288  0.92874  1.0000
  C   C1001     1.0  0.75175  0.02980  0.84758  1.0000
  H   H1003     1.0  0.74395  0.03711  0.81451  1.0000
  C   C1002     1.0  0.78166  0.17625  0.78830  1.0000
  C   C1003     1.0  0.92252  0.07958  0.55058  1.0000
  H   H1004     1.0  0.87011  0.30183  0.95430  1.0000
  C   C1004     1.0  0.86683  0.99103  0.78782  1.0000
  S   S341      1.0  0.87844  0.00193  0.80626  1.0000
  H   H1005     1.0  0.75121  0.31540  0.97942  1.0000
  C   C1005     1.0  0.78680  0.00254  0.63418  1.0000
  S   S342      1.0  0.76924  0.06904  0.49927  1.0000
  H   H1006     1.0  0.74046  0.07268  0.89670  1.0000
  C   C1006     1.0  0.94321  0.40957  0.96726  1.0000
  C   C1007     1.0  0.86189  0.02082  0.49819  1.0000
  S   S343      1.0  0.73736  0.26037  0.85306  1.0000
  C   C1008     1.0  0.90444  0.12089  0.55263  1.0000
  H   H1007     1.0  0.90178  0.04434  0.51700  1.0000
  H   H1008     1.0  0.75762  0.02935  0.88250  1.0000
  C   C1009     1.0  0.97388  0.26970  0.56945  1.0000
  C   C1010     1.0  0.76792  0.44490  0.94505  1.0000
  C   C1011     1.0  0.75087  0.04009  0.87075  1.0000
  H   H1009     1.0  0.76041  0.23780  0.81315  1.0000
  S   S344      1.0  0.93308  0.02171  0.80329  1.0000
  N   N86       1.0  0.88359  0.24486  0.91280  1.0000
  C   C1012     1.0  0.88424  0.20799  0.92477  1.0000
  C   C1013     1.0  0.87860  0.27828  0.92319  1.0000
  C   C1014     1.0  0.87985  0.20395  0.94778  1.0000
  C   C1015     1.0  0.87396  0.27517  0.94606  1.0000
  C   C1016     1.0  0.87466  0.23782  0.95844  1.0000
  C   C1017     1.0  0.88888  0.24941  0.88918  1.0000
  H   H1010     1.0  0.88864  0.18185  0.91688  1.0000
  H   H1011     1.0  0.87835  0.30777  0.91394  1.0000
  C   C1018     1.0  0.77183  0.47594  0.92960  1.0000
  H   H1012     1.0  0.84440  0.00048  0.50949  1.0000
  Fe  Fe171     1.0  0.97725  0.14460  0.65547  1.0000
  H   H1013     1.0  0.88292  0.26792  0.87782  1.0000
  H   H1014     1.0  0.89750  0.26453  0.88960  1.0000
  C   C1019     1.0  0.94100  0.45527  0.90649  1.0000
  H   H1015     1.0  0.86781  0.47772  0.97621  1.0000
  C   C1020     1.0  0.84943  0.01961  0.49718  1.0000
  C   C1021     1.0  0.81137  0.05467  0.64522  1.0000
  H   H1016     1.0  0.92980  0.17601  0.51898  1.0000
  C   C1022     1.0  0.82849  0.99206  0.68872  1.0000
  C   C1023     1.0  0.95220  0.46835  0.89815  1.0000
  Fe  Fe172     1.0  0.78535  0.02666  0.50471  1.0000
  C   C1024     1.0  0.78571  0.18847  0.82790  1.0000
  H   H1017     1.0  0.93165  0.07362  0.55515  1.0000
  S   S345      1.0  0.93943  0.10025  0.49896  1.0000
  C   C1025     1.0  0.91608  0.11295  0.55927  1.0000
  H   H1018     1.0  0.80415  0.07734  0.64512  1.0000
  H   H1019     1.0  0.79113  0.18226  0.84271  1.0000
  H   H1020     1.0  0.87387  0.37155  0.98847  1.0000
  C   C1026     1.0  0.95142  0.46460  0.84119  1.0000
  H   H1021     1.0  0.97357  0.44918  0.82969  1.0000
  H   H1022     1.0  0.97531  0.00262  0.63408  1.0000
  S   S346      1.0  0.74414  0.17632  0.88295  1.0000
  C   C1027     1.0  0.95240  0.38210  0.96118  1.0000
  C   C1028     1.0  0.78882  0.16959  0.80717  1.0000
  H   H1023     1.0  0.95375  0.37351  0.94331  1.0000
  C   C1029     1.0  0.81566  0.03900  0.66623  1.0000
  H   H1024     1.0  0.85320  0.00029  0.81470  1.0000
  C   C1030     1.0  0.93982  0.47565  0.84871  1.0000
  C   C1031     1.0  0.88713  0.10435  0.53117  1.0000
  C   C1032     1.0  0.84413  0.39591  0.98563  1.0000
  H   H1025     1.0  0.79645  0.14854  0.80600  1.0000
  C   C1033     1.0  0.77238  0.23132  0.85190  1.0000
  C   C1034     1.0  0.74774  0.46404  0.93653  1.0000
  H   H1026     1.0  0.95403  0.43256  0.84125  1.0000
  H   H1027     1.0  0.78017  0.02639  0.63757  1.0000
  H   H1028     1.0  0.93473  0.05856  0.68819  1.0000
  C   C1035     1.0  0.74306  0.04453  0.83259  1.0000
  S   S347      1.0  0.77110  0.35973  0.99229  1.0000
  N   N87       1.0  0.82445  0.00924  0.66652  1.0000
  S   S348      1.0  0.78831  0.99661  0.68179  1.0000
  C   C1036     1.0  0.74129  0.06448  0.87869  1.0000
  C   C1037     1.0  0.78991  0.99318  0.61098  1.0000
  H   H1029     1.0  0.97411  0.04893  0.66696  1.0000
  C   C1038     1.0  0.97163  0.48240  0.82729  1.0000
  H   H1030     1.0  0.83653  0.98378  0.79070  1.0000
  C   C1039     1.0  0.82892  0.99355  0.64626  1.0000
  C   C1040     1.0  0.98253  0.30956  0.59860  1.0000
  C   C1041     1.0  0.82479  0.00838  0.62493  1.0000
  H   H1031     1.0  0.98123  0.28911  0.61430  1.0000
  H   H1032     1.0  0.88075  0.17497  0.95739  1.0000
  C   C1042     1.0  0.98316  0.00796  0.64340  1.0000
  H   H1033     1.0  0.97488  0.33160  0.59748  1.0000
  H   H1034     1.0  0.87137  0.23535  0.97638  1.0000
  H   H1035     1.0  0.78123  0.48164  0.92724  1.0000
  H   H1036     1.0  0.77425  0.42591  0.95452  1.0000
  C   C1043     1.0  0.98251  0.03425  0.66167  1.0000
  Fe  Fe173     1.0  0.74564  0.69897  0.36654  1.0000
  S   S349      1.0  0.74379  0.68699  0.40521  1.0000
  S   S350      1.0  0.76130  0.65931  0.35212  1.0000
  H   H1037     1.0  0.96111  0.89997  0.47288  1.0000
  S   S351      1.0  0.74674  0.79018  0.43933  1.0000
  S   S352      1.0  0.74412  0.76746  0.37022  1.0000
  H   H1038     1.0  0.97279  0.93778  0.40376  1.0000
  Fe  Fe174     1.0  0.98124  0.81894  0.33939  1.0000
  H   H1039     1.0  0.81666  0.87358  0.46957  1.0000
  H   H1040     1.0  0.93532  0.90129  0.43619  1.0000
  S   S353      1.0  0.80529  0.51941  0.22847  1.0000
  Fe  Fe175     1.0  0.92082  0.49382  0.31798  1.0000
  Fe  Fe176     1.0  0.78915  0.51678  0.25316  1.0000
  S   S354      1.0  0.77550  0.56887  0.25873  1.0000
  H   H1041     1.0  0.82242  0.57581  0.32802  1.0000
  H   H1042     1.0  0.94514  0.48761  0.20720  1.0000
  S   S355      1.0  0.92315  0.55669  0.33334  1.0000
  H   H1043     1.0  0.74895  0.64100  0.45918  1.0000
  S   S356      1.0  0.79110  0.89472  0.46420  1.0000
  C   C1044     1.0  0.84264  0.92242  0.47015  1.0000
  C   C1045     1.0  0.93555  0.52096  0.38115  1.0000
  C   C1046     1.0  0.94747  0.51199  0.37515  1.0000
  H   H1044     1.0  0.74098  0.57827  0.31886  1.0000
  Fe  Fe177     1.0  0.96474  0.82232  0.38277  1.0000
  S   S357      1.0  0.97138  0.76049  0.39670  1.0000
  S   S358      1.0  0.95106  0.85537  0.40631  1.0000
  Fe  Fe178     1.0  0.97021  0.73950  0.36023  1.0000
  S   S359      1.0  0.96617  0.67566  0.34750  1.0000
  S   S360      1.0  0.96236  0.79981  0.34710  1.0000
  H   H1045     1.0  0.76772  0.88054  0.48794  1.0000
  H   H1046     1.0  0.96770  0.74317  0.30945  1.0000
  C   C1047     1.0  0.94757  0.93122  0.38360  1.0000
  C   C1048     1.0  0.94490  0.90565  0.40305  1.0000
  C   C1049     1.0  0.93746  0.92088  0.42112  1.0000
  H   H1047     1.0  0.74003  0.60204  0.47316  1.0000
  H   H1048     1.0  0.78746  0.66789  0.27308  1.0000
  H   H1049     1.0  0.95326  0.91988  0.36955  1.0000
  S   S361      1.0  0.83316  0.51105  0.26464  1.0000
  C   C1050     1.0  0.74678  0.55194  0.32250  1.0000
  C   C1051     1.0  0.80098  0.62125  0.26677  1.0000
  C   C1052     1.0  0.93522  0.58999  0.33610  1.0000
  C   C1053     1.0  0.93298  0.62736  0.34679  1.0000
  C   C1054     1.0  0.94223  0.65406  0.35026  1.0000
  C   C1055     1.0  0.95396  0.64372  0.34325  1.0000
  C   C1056     1.0  0.95620  0.60630  0.33258  1.0000
  C   C1057     1.0  0.94694  0.57975  0.32895  1.0000
  H   H1050     1.0  0.92400  0.63584  0.35246  1.0000
  H   H1051     1.0  0.94028  0.68254  0.35850  1.0000
  H   H1052     1.0  0.96520  0.59772  0.32705  1.0000
  H   H1053     1.0  0.94889  0.55124  0.32073  1.0000
  H   H1054     1.0  0.81885  0.53852  0.30792  1.0000
  H   H1055     1.0  0.83372  0.53211  0.21001  1.0000
  H   H1056     1.0  0.73819  0.61665  0.44302  1.0000
  H   H1057     1.0  0.85601  0.54267  0.27224  1.0000
  C   C1058     1.0  0.75032  0.54316  0.34500  1.0000
  H   H1058     1.0  0.92714  0.97244  0.43400  1.0000
  N   N88       1.0  0.82921  0.95749  0.44443  1.0000
  C   C1059     1.0  0.73997  0.62813  0.46024  1.0000
  H   H1059     1.0  0.83608  0.86835  0.48824  1.0000
  S   S362      1.0  0.91462  0.48541  0.28192  1.0000
  H   H1060     1.0  0.82990  0.57527  0.29983  1.0000
  C   C1060     1.0  0.75902  0.82042  0.44526  1.0000
  C   C1061     1.0  0.75859  0.84177  0.46589  1.0000
  C   C1062     1.0  0.76818  0.86506  0.47183  1.0000
  C   C1063     1.0  0.77845  0.86710  0.45728  1.0000
  C   C1064     1.0  0.77886  0.84600  0.43659  1.0000
  C   C1065     1.0  0.76922  0.82302  0.43054  1.0000
  H   H1061     1.0  0.91094  0.51539  0.37203  1.0000
  H   H1062     1.0  0.74727  0.56269  0.35889  1.0000
  H   H1063     1.0  0.78673  0.84709  0.42518  1.0000
  H   H1064     1.0  0.76976  0.80676  0.41468  1.0000
  C   C1066     1.0  0.76456  0.63328  0.32617  1.0000
  C   C1067     1.0  0.75897  0.64361  0.30556  1.0000
  C   C1068     1.0  0.76237  0.62337  0.28516  1.0000
  C   C1069     1.0  0.77126  0.59225  0.28514  1.0000
  C   C1070     1.0  0.77666  0.58125  0.30588  1.0000
  C   C1071     1.0  0.77342  0.60197  0.32617  1.0000
  H   H1065     1.0  0.75220  0.66775  0.30523  1.0000
  H   H1066     1.0  0.75812  0.63214  0.26922  1.0000
  H   H1067     1.0  0.78350  0.55738  0.30620  1.0000
  H   H1068     1.0  0.77780  0.59373  0.34202  1.0000
  C   C1072     1.0  0.75797  0.50968  0.34941  1.0000
  C   C1073     1.0  0.97100  0.72620  0.29415  1.0000
  C   C1074     1.0  0.84002  0.95439  0.45420  1.0000
  H   H1069     1.0  0.85109  0.92091  0.47836  1.0000
  H   H1070     1.0  0.76329  0.48709  0.27315  1.0000
  S   S363      1.0  0.80662  0.48735  0.01485  1.0000
  C   C1075     1.0  0.79699  0.65126  0.30372  1.0000
  N   N89       1.0  0.81207  0.59820  0.29957  1.0000
  C   C1076     1.0  0.80978  0.59601  0.27668  1.0000
  C   C1077     1.0  0.80579  0.62529  0.31312  1.0000
  C   C1078     1.0  0.83423  0.89304  0.47568  1.0000
  Fe  Fe179     1.0  0.81518  0.48561  0.25690  1.0000
  H   H1071     1.0  0.79177  0.67192  0.31462  1.0000
  C   C1079     1.0  0.82123  0.57076  0.30944  1.0000
  H   H1072     1.0  0.81468  0.57427  0.26602  1.0000
  H   H1073     1.0  0.80743  0.62671  0.33137  1.0000
  H   H1074     1.0  0.79887  0.61842  0.24881  1.0000
  H   H1075     1.0  0.74855  0.53518  0.28704  1.0000
  C   C1080     1.0  0.84680  0.48629  0.27271  1.0000
  H   H1076     1.0  0.97155  0.88437  0.43539  1.0000
  H   H1077     1.0  0.76074  0.50254  0.36688  1.0000
  H   H1078     1.0  0.81237  0.93115  0.44197  1.0000
  C   C1081     1.0  0.96794  0.91491  0.43826  1.0000
  C   C1082     1.0  0.95684  0.96254  0.46217  1.0000
  C   C1083     1.0  0.82335  0.89593  0.46522  1.0000
  C   C1084     1.0  0.79458  0.64909  0.28039  1.0000
  Fe  Fe180     1.0  0.79416  0.94195  0.49129  1.0000
  Fe  Fe181     1.0  0.74098  0.75449  0.40854  1.0000
  H   H1079     1.0  0.84815  0.53182  0.22108  1.0000
  H   H1080     1.0  0.95376  0.53623  0.37324  1.0000
  H   H1081     1.0  0.78587  0.49154  0.16066  1.0000
  C   C1085     1.0  0.75111  0.52748  0.30459  1.0000
  C   C1086     1.0  0.96867  0.94501  0.42049  1.0000
  H   H1082     1.0  0.77887  0.95635  0.43284  1.0000
  H   H1083     1.0  0.96736  0.74137  0.27836  1.0000
  H   H1084     1.0  0.77989  0.50585  0.12017  1.0000
  C   C1087     1.0  0.93284  0.96127  0.41996  1.0000
  S   S364      1.0  0.79938  0.48846  0.28216  1.0000
  H   H1085     1.0  0.96747  0.69503  0.29609  1.0000
  C   C1088     1.0  0.85681  0.50993  0.27487  1.0000
  H   H1086     1.0  0.93271  0.55242  0.38360  1.0000
  C   C1089     1.0  0.76431  0.97589  0.46720  1.0000
  H   H1087     1.0  0.87551  0.51028  0.28187  1.0000
  H   H1088     1.0  0.75081  0.83994  0.47751  1.0000
  H   H1089     1.0  0.84664  0.52967  0.19011  1.0000
  C   C1090     1.0  0.82096  0.92866  0.44962  1.0000
  C   C1091     1.0  0.76209  0.48571  0.33111  1.0000
  H   H1090     1.0  0.77153  0.95529  0.47226  1.0000
  H   H1091     1.0  0.74154  0.70929  0.45680  1.0000
  N   N90       1.0  0.75881  0.49524  0.30900  1.0000
  C   C1092     1.0  0.86792  0.49164  0.28033  1.0000
  C   C1093     1.0  0.94290  0.97161  0.38239  1.0000
  S   S365      1.0  0.98295  0.84621  0.37415  1.0000
  H   H1092     1.0  0.91394  0.52392  0.40173  1.0000
  H   H1093     1.0  0.84657  0.97733  0.45021  1.0000
  H   H1094     1.0  0.83223  0.50212  0.00247  1.0000
  C   C1094     1.0  0.96198  0.92361  0.45924  1.0000
  C   C1095     1.0  0.91491  0.50157  0.38790  1.0000
  N   N91       1.0  0.92746  0.49090  0.38281  1.0000
  C   C1096     1.0  0.84292  0.51931  0.20742  1.0000
  H   H1095     1.0  0.95201  0.96889  0.47835  1.0000
  H   H1096     1.0  0.82584  0.98045  0.41037  1.0000
  C   C1097     1.0  0.78721  0.48458  0.12347  1.0000
  C   C1098     1.0  0.76352  0.50067  0.91787  1.0000
  S   S366      1.0  0.74155  0.62238  0.92685  1.0000
  S   S367      1.0  0.74747  0.79605  0.84909  1.0000
  C   C1099     1.0  0.78163  0.88775  0.68310  1.0000
  H   H1097     1.0  0.83556  0.96888  0.64654  1.0000
  S   S368      1.0  0.74132  0.66947  0.85994  1.0000
  S   S369      1.0  0.92869  0.91103  0.83951  1.0000
  S   S370      1.0  0.78227  0.96383  0.52087  1.0000
  Fe  Fe182     1.0  0.96402  0.62078  0.87846  1.0000
  S   S371      1.0  0.97132  0.68001  0.88921  1.0000
  S   S372      1.0  0.94797  0.59230  0.89741  1.0000
  Fe  Fe183     1.0  0.97120  0.69939  0.85117  1.0000
  S   S373      1.0  0.96709  0.76197  0.83291  1.0000
  H   H1098     1.0  0.74759  0.92406  0.74667  1.0000
  S   S374      1.0  0.96278  0.64233  0.84110  1.0000
  H   H1099     1.0  0.77980  0.90153  0.66564  1.0000
  H   H1100     1.0  0.87381  0.92373  0.83112  1.0000
  S   S375      1.0  0.79082  0.54166  0.96015  1.0000
  C   C1100     1.0  0.95610  0.53419  0.83512  1.0000
  H   H1101     1.0  0.83796  0.98155  0.68740  1.0000
  C   C1101     1.0  0.88192  0.90703  0.82600  1.0000
  S   S376      1.0  0.81082  0.94604  0.51120  1.0000
  Fe  Fe184     1.0  0.79265  0.91380  0.75911  1.0000
  Fe  Fe185     1.0  0.98127  0.61494  0.83624  1.0000
  S   S377      1.0  0.78499  0.85095  0.76760  1.0000
  C   C1102     1.0  0.79850  0.96258  0.60614  1.0000
  C   C1103     1.0  0.84769  0.97185  0.76039  1.0000
  H   H1102     1.0  0.78296  0.85437  0.68138  1.0000
  N   N92       1.0  0.75163  0.49481  0.92163  1.0000
  S   S378      1.0  0.80419  0.94871  0.78122  1.0000
  S   S379      1.0  0.80523  0.92116  0.72759  1.0000
  H   H1103     1.0  0.81048  0.91767  0.62147  1.0000
  C   C1104     1.0  0.84335  0.50968  0.94754  1.0000
  C   C1105     1.0  0.95460  0.51014  0.89586  1.0000
  N   N93       1.0  0.95941  0.49382  0.83472  1.0000
  H   H1104     1.0  0.96317  0.51983  0.88898  1.0000
  H   H1105     1.0  0.78996  0.90023  0.68872  1.0000
  S   S380      1.0  0.80323  0.95024  0.57722  1.0000
  H   H1106     1.0  0.80525  0.93510  0.66218  1.0000
  H   H1107     1.0  0.76684  0.95295  0.68247  1.0000
  C   C1106     1.0  0.93646  0.51681  0.84965  1.0000
  C   C1107     1.0  0.94581  0.53929  0.90198  1.0000
  C   C1108     1.0  0.93476  0.52610  0.91114  1.0000
  Fe  Fe186     1.0  0.92263  0.96783  0.81750  1.0000
  H   H1108     1.0  0.97330  0.49162  0.80869  1.0000
  H   H1109     1.0  0.88897  0.90549  0.85996  1.0000
  C   C1109     1.0  0.79229  0.98189  0.65293  1.0000
  H   H1110     1.0  0.92792  0.54843  0.91600  1.0000
  C   C1110     1.0  0.97840  0.78985  0.88425  1.0000
  H   H1111     1.0  0.97062  0.80477  0.87691  1.0000
  C   C1111     1.0  0.93936  0.86961  0.83697  1.0000
  C   C1112     1.0  0.93914  0.83746  0.85400  1.0000
  C   C1113     1.0  0.94734  0.80394  0.85286  1.0000
  C   C1114     1.0  0.95600  0.80222  0.83471  1.0000
  C   C1115     1.0  0.95619  0.83430  0.81765  1.0000
  C   C1116     1.0  0.94790  0.86757  0.81864  1.0000
  H   H1112     1.0  0.93260  0.83855  0.86829  1.0000
  H   H1113     1.0  0.94703  0.77967  0.86615  1.0000
  H   H1114     1.0  0.96283  0.83349  0.80353  1.0000
  H   H1115     1.0  0.94823  0.89189  0.80538  1.0000
  C   C1117     1.0  0.89043  0.89686  0.84215  1.0000
  H   H1116     1.0  0.96245  0.55719  0.82994  1.0000
  H   H1117     1.0  0.90761  0.86930  0.84763  1.0000
  C   C1118     1.0  0.86901  0.98027  0.76483  1.0000
  C   C1119     1.0  0.75628  0.94235  0.71393  1.0000
  C   C1120     1.0  0.75549  0.60209  0.93622  1.0000
  C   C1121     1.0  0.76629  0.61095  0.92450  1.0000
  C   C1122     1.0  0.77702  0.59279  0.93228  1.0000
  C   C1123     1.0  0.77710  0.56528  0.95172  1.0000
  C   C1124     1.0  0.76629  0.55644  0.96343  1.0000
  C   C1125     1.0  0.75559  0.57478  0.95575  1.0000
  H   H1118     1.0  0.76640  0.63185  0.90948  1.0000
  H   H1119     1.0  0.78530  0.60000  0.92307  1.0000
  H   H1120     1.0  0.76616  0.53547  0.97841  1.0000
  H   H1121     1.0  0.74731  0.56770  0.96500  1.0000
  C   C1126     1.0  0.75788  0.81028  0.82613  1.0000
  C   C1127     1.0  0.76244  0.78295  0.80985  1.0000
  C   C1128     1.0  0.77075  0.79588  0.79216  1.0000
  C   C1129     1.0  0.77460  0.83622  0.79046  1.0000
  C   C1130     1.0  0.76992  0.86367  0.80656  1.0000
  C   C1131     1.0  0.76165  0.85073  0.82427  1.0000
  H   H1122     1.0  0.75967  0.75177  0.81100  1.0000
  H   H1123     1.0  0.77429  0.77432  0.77984  1.0000
  H   H1124     1.0  0.77279  0.89474  0.80556  1.0000
  H   H1125     1.0  0.75822  0.87214  0.83678  1.0000
  H   H1126     1.0  0.82307  0.96579  0.69474  1.0000
  C   C1132     1.0  0.85047  0.49057  0.99204  1.0000
  N   N94       1.0  0.90304  0.86694  0.81236  1.0000
  S   S381      1.0  0.78106  0.96791  0.74848  1.0000
  H   H1127     1.0  0.97797  0.49843  0.83747  1.0000
  H   H1128     1.0  0.77581  0.84449  0.72191  1.0000
  C   C1133     1.0  0.85521  0.49805  0.95099  1.0000
  Fe  Fe187     1.0  0.81580  0.96127  0.74904  1.0000
  H   H1129     1.0  0.81779  0.49429  0.96112  1.0000
  C   C1134     1.0  0.97841  0.77869  0.90782  1.0000
  S   S382      1.0  0.91221  0.96349  0.78543  1.0000
  H   H1130     1.0  0.91858  0.83025  0.81948  1.0000
  Fe  Fe188     1.0  0.79442  0.97747  0.71831  1.0000
  C   C1135     1.0  0.80084  0.95116  0.64812  1.0000
  C   C1136     1.0  0.76128  0.88069  0.73609  1.0000
  H   H1131     1.0  0.97060  0.78483  0.91896  1.0000
  H   H1132     1.0  0.92061  0.87128  0.79819  1.0000
  H   H1133     1.0  0.94221  0.57842  0.84407  1.0000
  C   C1137     1.0  0.76521  0.93218  0.69734  1.0000
  H   H1134     1.0  0.91322  0.82588  0.79108  1.0000
  S   S383      1.0  0.83607  0.95902  0.74243  1.0000
  Fe  Fe189     1.0  0.73778  0.73767  0.86096  1.0000
  C   C1138     1.0  0.75432  0.91634  0.73342  1.0000
  C   C1139     1.0  0.80383  0.94143  0.62493  1.0000
  H   H1135     1.0  0.89664  0.87145  0.77820  1.0000
  C   C1140     1.0  0.77017  0.87160  0.71923  1.0000
  H   H1136     1.0  0.87770  0.90659  0.79016  1.0000
  H   H1137     1.0  0.76008  0.86071  0.75146  1.0000
  Fe  Fe190     1.0  0.79895  0.97305  0.53995  1.0000
  H   H1138     1.0  0.73550  0.84537  0.92724  1.0000
  C   C1141     1.0  0.91439  0.84755  0.80486  1.0000
  C   C1142     1.0  0.94462  0.54632  0.84273  1.0000
  C   C1143     1.0  0.89483  0.87757  0.79631  1.0000
  H   H1139     1.0  0.74715  0.54723  0.89977  1.0000
  N   N95       1.0  0.77195  0.89700  0.70004  1.0000
  C   C1144     1.0  0.88412  0.89742  0.80292  1.0000
  C   C1145     1.0  0.90098  0.87658  0.83501  1.0000
  Fe  Fe191     1.0  0.79315  0.48910  0.98714  1.0000
  C   C1146     1.0  0.82281  0.52252  0.96199  1.0000
  H   H1140     1.0  0.76664  0.52542  0.90636  1.0000
  H   H1141     1.0  0.75527  0.97077  0.50091  1.0000
  S   S384      1.0  0.98183  0.58932  0.87298  1.0000
  H   H1142     1.0  0.75110  0.97059  0.71187  1.0000
  H   H1143     1.0  0.84060  0.51608  0.93001  1.0000
  N   N96       1.0  0.83530  0.51210  0.96595  1.0000
  H   H1144     1.0  0.73813  0.50372  0.89741  1.0000
  Fe  Fe192     1.0  0.73495  0.66637  0.89757  1.0000
  C   C1147     1.0  0.83870  0.50227  0.98796  1.0000
  H   H1145     1.0  0.81869  0.54078  0.97617  1.0000
  C   C1148     1.0  0.85950  0.97063  0.75127  1.0000
  H   H1146     1.0  0.82173  0.54111  0.94563  1.0000
  H   H1147     1.0  0.86153  0.49505  0.93635  1.0000
  H   H1148     1.0  0.86132  0.96223  0.73357  1.0000
  H   H1149     1.0  0.87800  0.97929  0.75750  1.0000
  C   C1149     1.0  0.74293  0.52127  0.90966  1.0000
  H   H1150     1.0  0.73647  0.53500  0.92247  1.0000
  H   H1151     1.0  0.92769  0.52585  0.85647  1.0000
  C   C1150     1.0  0.85876  0.48842  0.97340  1.0000
  C   C1151     1.0  0.93235  0.48431  0.91340  1.0000
  H   H1152     1.0  0.73330  0.82460  0.88731  1.0000
  C   C1152     1.0  0.84552  0.98276  0.78335  1.0000
