data_image0
_chemical_formula_structural       FeNFeCSHNCSNFeSHFeS2FeSFeS3C2SC2SCFeS2FeS2FeSFeS3C3H2CHNHC6H4C6H4C2HC6H4C6H2CH2C6H4NC4HC2HCH4SNC3H5CNH14SCH3S2HCFeH4NC6H4C2HC3HCHCHC2HCH2C4H4CHCSH3C2Fe2HS4HFeS2FeS2FeSFeS3CHNH2CFeHSHC2S2FeS2FeS2FeHFeS3C6H4C2H2C6HCHFeC6H3C7H4C6H4C6H5C2H4C3NFeC2H2FeCH3SCHCH6CHNC6H8CH3SH2CH2SNH2CNCFeC2SCS2CSH2C4HCH2NCH3CH2CH5C2SHSCFeS2FeS2FeSFeS3H2SC2SHSHCFeSCHFeS2FeS2FeSFeS3H2C6H4FeCHC7HFeSC4H5C6H4C6H2C8H2NH2C2HC2HCFeH4CH4FeNCH2NC2H4C2H4SCHCSCHCHCSNH4FeC2SCHFeHNC6H9CH2CH3C2SC2FeH2CHCH2CH3SFeS2FeS2FeSFeS3HCSFeHSH2N2CSFeS2FeS2FeSFeS3CHC6H4C6H5CHC6H4C6H4C6NH3SCHC3NHSCNCH2CHFeC2H4SNCHCH6CHCFeC2NC2HC2HCH2CHC2H4C2SCHC2H2C3H3S2HC4H2C6H2C3H2CH3C2H2NCHC4H2FeS2FeSCFeSFeS3FeS2FeS2FeSFeS4HSCFeCSC2HCH4C2SC2H2C7H4C8H4C6H4C6H8C2NHC2H3CHNC5H2CH2SH4NHC2HNCH3CHCHNC7HFeH7C2HSC2H5CH2SHFeHSCH2SFeS2FeS2FeSFeS3FeSCFeS2FeSFeS3CSHC2H2C4H3C7H4C6H4C8H4C6H7N2SH2C2HC2HCFeH3C2H2SCH3C2HCHNH2C2HNC5H3FeH2CSC2H2CNCH6SHCH3C2HCH2FeH3C2H2CHSHCHFeS2FeS2FeSFeS3FeS2FeS2FeSFeS3CHCH2CHC3HC2H4C6H4C6H4C6SH3C6H6CHCSHCNH3NCSCH3CHCH3NCHCH3CHCHFeCHCHNC2FeC2NCH2NC2HSH4NC2H3C2HC2HCHC2H2C2SCH2CHCHNCSFeSFe2S2FeSCFeSFeS3FeS2FeSHFeSFeS4C4H3CH2CHC6H4C6H4C6H4C6H8CH2C4SHCHNC4HCHC2H2C2HCHC2H2CHC3H5CHCHCH3CH2NCNH2NHCHSH2C3H3SHCHC2HFeHCH3SNH2CHC3FeC3FeS2FeS2FeSFeS3FeSCFeS2FeSFeS3HC3NC2HC2HC6H4C6H4C6H4C6H6SCSC3HSCNC6H7CH2N2CH3CH8SCHCH4C3NHNSC2HCH2FeCHC2HSCH5C2H2CSH4CHCH3CHFeHCHFeS2FeS2FeSCFeS2FeSFeS3FeSCFeS2FeSFeS3C4HNCHCH2C6H4C6H4C6H4C6H4FeHC2HCNHC4H3C5H2CH3C3HCH5CHCNH3CNHSH2CH4CHCHC2H2CHC3NH3SCH5NHCH2C5HCHNH2FeS2FeS2FeSFeS3FeSHFeS2FeSFeS3CHCSH2C7H3C6H4C6H2C8H4C6H4FeSH3N2C6H7NHSH5NCH3C2H2CH2C2HCNC6HC7FeSC3H2FeCH4SH3C2SCH3NH4C2SH2S2HC2HFeS2FeS2FeSFeS3FeS2FeS2FeHFeS3HC3FeC2HC2HC6H4C6H4C6H4C6H5C4H4C2HC3H3CH2NC3HCNHSH2CHCNH4C2H2CH6CHFeNHC4HSNH3CHSHSH5CHCH2CHCH4SH3FeS2FeS2FeSFeS3HS2CHSHCSFeSH3FeS2FeS2FeSFeS3C6H4C6H3C6H4C6H4C6SH4C2H3C4H3FeCH3C2HC3H2CHNC4H2FeSNCHCH3CSHC2NHCH2C3SC3NC6H6C2HNH3CH3FeCSH3CS2FeS2FeS2FeSFeS3HSHFeSCFeSCFeSCHFeS2FeS2FeCFeS4C6H2CH2C6H4C6H4C6H4C6H4CNFeHC4H5NHCH4SH2C3HCH4C2H2C3HC4HCH2C2H4CFeHFeH2C3HCSH2N2HCSHSC2H2CNC3H11FeSC2SHFeSC2FeSCFeS2FeSFeS3HFeS2FeS2FeSFeS3CH2NH2C6H3C7H4C6H4C6H3FeHC6H5CSCHC4H5CH2SCHCSHCH3C3NCSHNC2H3CH4C3HCHNH2CHC2HCHSHC2SCHCHC3HNH7CHS2HFeHFeH5NH2CSCHCH4FeS2FeS2FeSFeS3CHS2CSCHSFeSCHCFeS2FeS2FeSFeHS2C6H4C6H3C6H4C6H4C6H5C2H3FeC5H3NC6H3CHFeSCNC2HCSHNFeCH2CHFeC2H2C2H5C2H2C3HSHC3SH2C2H3CNH2CHCNH3NHCH2C2H2FeHCHSH2CH2
_chemical_formula_sum              "Fe192 N96 C1152 S384 H1152"
_cell_length_a       50.3316
_cell_length_b       34.7066
_cell_length_c       97.3651
_cell_angle_alpha    88.861
_cell_angle_beta     95.4974
_cell_angle_gamma    87.9417

_space_group_name_H-M_alt    "P 1"
_space_group_IT_number       1

loop_
  _space_group_symop_operation_xyz
  'x, y, z'

loop_
  _atom_site_type_symbol
  _atom_site_label
  _atom_site_symmetry_multiplicity
  _atom_site_fract_x
  _atom_site_fract_y
  _atom_site_fract_z
  _atom_site_occupancy
  Fe  Fe1       1.0  0.26867  0.51910  0.02823  1.0000
  N   N1        1.0  0.39187  0.03268  0.20227  1.0000
  Fe  Fe2       1.0  0.38285  0.11495  0.23694  1.0000
  C   C1        1.0  0.05486  0.24077  0.10429  1.0000
  S   S1        1.0  0.35463  0.14766  0.22088  1.0000
  H   H1        1.0  0.32098  0.20477  0.23955  1.0000
  N   N2        1.0  0.25561  0.39382  0.01978  1.0000
  C   C2        1.0  0.06129  0.37534  0.24599  1.0000
  S   S2        1.0  0.42434  0.09681  0.23277  1.0000
  N   N3        1.0  0.29227  0.29033  0.22770  1.0000
  Fe  Fe3       1.0  0.31699  0.43805  0.18412  1.0000
  S   S3        1.0  0.27755  0.41907  0.17390  1.0000
  H   H2        1.0  0.38559  0.52051  0.23786  1.0000
  Fe  Fe4       1.0  0.33110  0.35895  0.19777  1.0000
  S   S4        1.0  0.29360  0.33342  0.18850  1.0000
  S   S5        1.0  0.36199  0.32897  0.21311  1.0000
  Fe  Fe5       1.0  0.30033  0.36518  0.16896  1.0000
  S   S6        1.0  0.29872  0.33878  0.14785  1.0000
  Fe  Fe6       1.0  0.27374  0.38889  0.19433  1.0000
  S   S7        1.0  0.23694  0.37513  0.20463  1.0000
  S   S8        1.0  0.34001  0.38590  0.17774  1.0000
  S   S9        1.0  0.31103  0.41271  0.20498  1.0000
  C   C3        1.0  0.29500  0.33182  0.22958  1.0000
  C   C4        1.0  0.08615  0.28971  0.10005  1.0000
  S   S10       1.0  0.26661  0.48153  0.04722  1.0000
  C   C5        1.0  0.37683  0.46470  0.22947  1.0000
  C   C6        1.0  0.41741  0.04427  0.19772  1.0000
  S   S11       1.0  0.30342  0.50579  0.01605  1.0000
  C   C7        1.0  0.38821  0.50081  0.22952  1.0000
  Fe  Fe7       1.0  0.18512  0.29002  0.09196  1.0000
  S   S12       1.0  0.14896  0.31192  0.07831  1.0000
  S   S13       1.0  0.18750  0.31321  0.11356  1.0000
  Fe  Fe8       1.0  0.20291  0.23565  0.06990  1.0000
  S   S14       1.0  0.16819  0.25347  0.05473  1.0000
  S   S15       1.0  0.23378  0.18937  0.06575  1.0000
  Fe  Fe9       1.0  0.17694  0.31352  0.06167  1.0000
  S   S16       1.0  0.17436  0.36235  0.04587  1.0000
  Fe  Fe10      1.0  0.14376  0.25018  0.07276  1.0000
  S   S17       1.0  0.10687  0.21508  0.07282  1.0000
  S   S18       1.0  0.21364  0.29609  0.07571  1.0000
  S   S19       1.0  0.17794  0.22795  0.08760  1.0000
  C   C8        1.0  0.07517  0.23815  0.06921  1.0000
  C   C9        1.0  0.07232  0.27728  0.06545  1.0000
  C   C10       1.0  0.04670  0.29528  0.06346  1.0000
  H   H3        1.0  0.41525  0.49629  0.19899  1.0000
  H   H4        1.0  0.41767  0.42340  0.19375  1.0000
  C   C11       1.0  0.05236  0.21699  0.07067  1.0000
  H   H5        1.0  0.08980  0.29375  0.06419  1.0000
  N   N4        1.0  0.03397  0.26675  0.10107  1.0000
  H   H6        1.0  0.05445  0.18662  0.07346  1.0000
  C   C12       1.0  0.21803  0.10874  0.02940  1.0000
  C   C13       1.0  0.20230  0.14271  0.03008  1.0000
  C   C14       1.0  0.20729  0.16810  0.04101  1.0000
  C   C15       1.0  0.22821  0.15991  0.05127  1.0000
  C   C16       1.0  0.24450  0.12658  0.05034  1.0000
  C   C17       1.0  0.23934  0.10094  0.03949  1.0000
  H   H7        1.0  0.18580  0.14898  0.02230  1.0000
  H   H8        1.0  0.19478  0.19380  0.04150  1.0000
  H   H9        1.0  0.26078  0.12007  0.05823  1.0000
  H   H10       1.0  0.25142  0.07467  0.03919  1.0000
  C   C18       1.0  0.23984  0.45045  0.04741  1.0000
  C   C19       1.0  0.24186  0.41924  0.05685  1.0000
  C   C20       1.0  0.22155  0.39254  0.05669  1.0000
  C   C21       1.0  0.19892  0.39724  0.04722  1.0000
  C   C22       1.0  0.19656  0.42907  0.03803  1.0000
  C   C23       1.0  0.21707  0.45548  0.03805  1.0000
  H   H11       1.0  0.25949  0.41530  0.06408  1.0000
  H   H12       1.0  0.22364  0.36796  0.06367  1.0000
  H   H13       1.0  0.17904  0.43294  0.03071  1.0000
  H   H14       1.0  0.21511  0.47979  0.03090  1.0000
  C   C24       1.0  0.05468  0.38984  0.22138  1.0000
  C   C25       1.0  0.06976  0.39299  0.23422  1.0000
  H   H15       1.0  0.08810  0.40851  0.23496  1.0000
  C   C26       1.0  0.26766  0.32879  0.13894  1.0000
  C   C27       1.0  0.24365  0.33846  0.14439  1.0000
  C   C28       1.0  0.21918  0.33257  0.13662  1.0000
  C   C29       1.0  0.21855  0.31708  0.12339  1.0000
  C   C30       1.0  0.24254  0.30696  0.11801  1.0000
  C   C31       1.0  0.26703  0.31283  0.12578  1.0000
  H   H16       1.0  0.24395  0.35072  0.15453  1.0000
  H   H17       1.0  0.20065  0.34039  0.14084  1.0000
  H   H18       1.0  0.24225  0.29495  0.10783  1.0000
  H   H19       1.0  0.28557  0.30525  0.12154  1.0000
  C   C32       1.0  0.22137  0.40954  0.21454  1.0000
  C   C33       1.0  0.20031  0.39809  0.22193  1.0000
  C   C34       1.0  0.18719  0.42460  0.22989  1.0000
  C   C35       1.0  0.19492  0.46284  0.23046  1.0000
  C   C36       1.0  0.21592  0.47444  0.22300  1.0000
  C   C37       1.0  0.22930  0.44775  0.21512  1.0000
  H   H20       1.0  0.19397  0.36867  0.22140  1.0000
  H   H21       1.0  0.17067  0.41563  0.23532  1.0000
  C   C38       1.0  0.34736  0.52875  0.19051  1.0000
  H   H22       1.0  0.24545  0.45680  0.20939  1.0000
  H   H23       1.0  0.06153  0.40291  0.21223  1.0000
  C   C39       1.0  0.36127  0.27817  0.21462  1.0000
  C   C40       1.0  0.34468  0.25712  0.20545  1.0000
  C   C41       1.0  0.34356  0.21692  0.20719  1.0000
  C   C42       1.0  0.35892  0.19743  0.21815  1.0000
  C   C43       1.0  0.37590  0.21833  0.22719  1.0000
  C   C44       1.0  0.37706  0.25859  0.22542  1.0000
  H   H24       1.0  0.33277  0.27170  0.19695  1.0000
  H   H25       1.0  0.33046  0.20096  0.20011  1.0000
  H   H26       1.0  0.38790  0.20359  0.23565  1.0000
  H   H27       1.0  0.39012  0.27459  0.23250  1.0000
  N   N5        1.0  0.17586  0.11578  0.06455  1.0000
  C   C45       1.0  0.15524  0.14277  0.06305  1.0000
  C   C46       1.0  0.17820  0.08828  0.05481  1.0000
  C   C47       1.0  0.13675  0.14346  0.05136  1.0000
  C   C48       1.0  0.16001  0.08802  0.04301  1.0000
  H   H28       1.0  0.10651  0.29832  0.09931  1.0000
  C   C49       1.0  0.19485  0.11517  0.07696  1.0000
  C   C50       1.0  0.37313  0.06018  0.20509  1.0000
  H   H29       1.0  0.19467  0.06705  0.05591  1.0000
  C   C51       1.0  0.02682  0.23502  0.06876  1.0000
  H   H30       1.0  0.41613  0.04578  0.18628  1.0000
  H   H31       1.0  0.31029  0.34239  0.22309  1.0000
  H   H32       1.0  0.21519  0.10574  0.07452  1.0000
  H   H33       1.0  0.19687  0.14453  0.08123  1.0000
  S   S20       1.0  0.11179  0.48114  0.25796  1.0000
  N   N6        1.0  0.39392  0.45142  0.20777  1.0000
  C   C52       1.0  0.40488  0.48693  0.20767  1.0000
  C   C53       1.0  0.37995  0.44017  0.21846  1.0000
  C   C54       1.0  0.21247  0.36681  0.01506  1.0000
  H   H34       1.0  0.03097  0.34151  0.25402  1.0000
  H   H35       1.0  0.06833  0.34541  0.09372  1.0000
  H   H36       1.0  0.16259  0.06706  0.03505  1.0000
  H   H37       1.0  0.24090  0.34902  0.03202  1.0000
  H   H38       1.0  0.37103  0.41213  0.21848  1.0000
  C   C55       1.0  0.03100  0.36947  0.22032  1.0000
  N   N7        1.0  0.04845  0.27335  0.22068  1.0000
  H   H39       1.0  0.38411  0.43822  0.18681  1.0000
  H   H40       1.0  0.28775  0.18094  0.22161  1.0000
  H   H41       1.0  0.26109  0.29786  0.21128  1.0000
  H   H42       1.0  0.29331  0.40617  0.12928  1.0000
  H   H43       1.0  0.38994  0.39645  0.19821  1.0000
  H   H44       1.0  0.27580  0.34810  0.22658  1.0000
  H   H45       1.0  0.27686  0.45354  0.12831  1.0000
  H   H46       1.0  0.26633  0.41551  0.13939  1.0000
  H   H47       1.0  0.20458  0.38040  0.08773  1.0000
  H   H48       1.0  0.25350  0.37320  0.08592  1.0000
  H   H49       1.0  0.18824  0.40604  0.10908  1.0000
  H   H50       1.0  0.27181  0.14844  0.01968  1.0000
  H   H51       1.0  0.30111  0.33829  0.24053  1.0000
  H   H52       1.0  0.04457  0.32566  0.06070  1.0000
  S   S21       1.0  0.33617  0.49384  0.17860  1.0000
  C   C56       1.0  0.13926  0.11598  0.04126  1.0000
  H   H53       1.0  0.28002  0.38412  0.03882  1.0000
  H   H54       1.0  0.07133  0.27986  0.24005  1.0000
  H   H55       1.0  0.32463  0.27499  0.24283  1.0000
  S   S22       1.0  0.37300  0.05491  0.24349  1.0000
  S   S23       1.0  0.17825  0.49653  0.24025  1.0000
  H   H56       1.0  0.32319  0.51172  0.20651  1.0000
  C   C57       1.0  0.40243  0.51199  0.21859  1.0000
  Fe  Fe11      1.0  0.43609  0.11230  0.25476  1.0000
  H   H57       1.0  0.28845  0.42459  0.02886  1.0000
  H   H58       1.0  0.18813  0.09554  0.08495  1.0000
  H   H59       1.0  0.36549  0.45588  0.23785  1.0000
  H   H60       1.0  0.22188  0.50406  0.22336  1.0000
  N   N8        1.0  0.25479  0.41013  0.11787  1.0000
  C   C58       1.0  0.22793  0.41452  0.11890  1.0000
  C   C59       1.0  0.26401  0.39607  0.10611  1.0000
  C   C60       1.0  0.20951  0.40415  0.10804  1.0000
  C   C61       1.0  0.24614  0.38527  0.09508  1.0000
  C   C62       1.0  0.21872  0.38937  0.09607  1.0000
  C   C63       1.0  0.27373  0.42217  0.12923  1.0000
  H   H61       1.0  0.22059  0.42502  0.12830  1.0000
  H   H62       1.0  0.28529  0.39241  0.10532  1.0000
  H   H63       1.0  0.25768  0.22798  0.20727  1.0000
  H   H64       1.0  0.29715  0.11970  0.01197  1.0000
  C   C64       1.0  0.06475  0.31612  0.09695  1.0000
  C   C65       1.0  0.05336  0.26886  0.23470  1.0000
  H   H65       1.0  0.37715  0.09059  0.20414  1.0000
  C   C66       1.0  0.23711  0.36801  0.02300  1.0000
  C   C67       1.0  0.27187  0.23798  0.21540  1.0000
  C   C68       1.0  0.06827  0.29124  0.21273  1.0000
  H   H66       1.0  0.07966  0.31280  0.21895  1.0000
  C   C69       1.0  0.27397  0.27749  0.21768  1.0000
  H   H67       1.0  0.12529  0.11653  0.03205  1.0000
  C   C70       1.0  0.28148  0.39458  0.02806  1.0000
  H   H68       1.0  0.03986  0.45997  0.24716  1.0000
  C   C71       1.0  0.28858  0.21164  0.22346  1.0000
  C   C72       1.0  0.30915  0.26475  0.23542  1.0000
  H   H69       1.0  0.42303  0.07277  0.20189  1.0000
  C   C73       1.0  0.34880  0.04955  0.20959  1.0000
  H   H70       1.0  0.05120  0.21108  0.10695  1.0000
  H   H71       1.0  0.15305  0.16416  0.07086  1.0000
  C   C74       1.0  0.30723  0.22503  0.23360  1.0000
  C   C75       1.0  0.03473  0.25157  0.24242  1.0000
  C   C76       1.0  0.39652  0.42610  0.19607  1.0000
  C   C77       1.0  0.08123  0.25178  0.10373  1.0000
  H   H72       1.0  0.09773  0.23080  0.10572  1.0000
  H   H73       1.0  0.12066  0.16535  0.05018  1.0000
  H   H74       1.0  0.29655  0.37648  0.02327  1.0000
  H   H75       1.0  0.05838  0.30722  0.20349  1.0000
  C   C78       1.0  0.03759  0.35521  0.24493  1.0000
  H   H76       1.0  0.08235  0.26884  0.20935  1.0000
  C   C79       1.0  0.02565  0.25982  0.21396  1.0000
  S   S24       1.0  0.20932  0.07554  0.01642  1.0000
  H   H77       1.0  0.03827  0.24912  0.25357  1.0000
  H   H78       1.0  0.33439  0.07158  0.21222  1.0000
  H   H79       1.0  0.19740  0.34747  0.01805  1.0000
  C   C80       1.0  0.03862  0.30408  0.09752  1.0000
  C   C81       1.0  0.27570  0.12928  0.01104  1.0000
  Fe  Fe12      1.0  0.41584  0.03806  0.24112  1.0000
  Fe  Fe13      1.0  0.15584  0.47045  0.25691  1.0000
  H   H80       1.0  0.26407  0.10299  0.01201  1.0000
  S   S25       1.0  0.47407  0.14525  0.25806  1.0000
  S   S26       1.0  0.39496  0.13499  0.25832  1.0000
  S   S27       1.0  0.25257  0.05188  0.50045  1.0000
  S   S28       1.0  0.25849  0.50340  0.49407  1.0000
  H   H81       1.0  0.51332  0.30378  0.36524  1.0000
  Fe  Fe14      1.0  0.33037  0.30763  0.44142  1.0000
  S   S29       1.0  0.36856  0.28265  0.45242  1.0000
  S   S30       1.0  0.31064  0.36619  0.44393  1.0000
  Fe  Fe15      1.0  0.31709  0.23289  0.42655  1.0000
  S   S31       1.0  0.35407  0.20150  0.43629  1.0000
  S   S32       1.0  0.28277  0.20471  0.41440  1.0000
  Fe  Fe16      1.0  0.34490  0.23029  0.45573  1.0000
  S   S33       1.0  0.34623  0.20261  0.47682  1.0000
  Fe  Fe17      1.0  0.37488  0.25628  0.43201  1.0000
  S   S34       1.0  0.41454  0.24934  0.42297  1.0000
  S   S35       1.0  0.30626  0.25733  0.44649  1.0000
  S   S36       1.0  0.33829  0.28551  0.42054  1.0000
  C   C82       1.0  0.17391  0.22737  0.28866  1.0000
  H   H82       1.0  0.41274  0.17394  0.43893  1.0000
  N   N9        1.0  0.43667  0.19335  0.45651  1.0000
  H   H83       1.0  0.32794  0.30776  0.48535  1.0000
  H   H84       1.0  0.27897  0.12594  0.42684  1.0000
  C   C83       1.0  0.50740  0.18874  0.27448  1.0000
  Fe  Fe18      1.0  0.16341  0.42795  0.28463  1.0000
  H   H85       1.0  0.51155  0.26041  0.43148  1.0000
  S   S37       1.0  0.19658  0.39402  0.29741  1.0000
  H   H86       1.0  0.26990  0.35985  0.46916  1.0000
  C   C84       1.0  0.46453  0.23074  0.47218  1.0000
  C   C85       1.0  0.28238  0.37306  0.50849  1.0000
  S   S38       1.0  0.16749  0.49017  0.27838  1.0000
  S   S39       1.0  0.12024  0.43632  0.28830  1.0000
  Fe  Fe19      1.0  0.23911  0.13639  0.30823  1.0000
  S   S40       1.0  0.19521  0.13485  0.31074  1.0000
  S   S41       1.0  0.25483  0.14212  0.28739  1.0000
  Fe  Fe20      1.0  0.25451  0.14588  0.33883  1.0000
  S   S42       1.0  0.21206  0.14522  0.34395  1.0000
  S   S43       1.0  0.29219  0.15706  0.35249  1.0000
  Fe  Fe21      1.0  0.20779  0.09606  0.32915  1.0000
  H   H87       1.0  0.33670  0.11519  0.26524  1.0000
  Fe  Fe22      1.0  0.20273  0.18369  0.32519  1.0000
  S   S44       1.0  0.17306  0.23412  0.32546  1.0000
  S   S45       1.0  0.25143  0.09364  0.32555  1.0000
  S   S46       1.0  0.24549  0.18831  0.32122  1.0000
  C   C86       1.0  0.19015  0.35101  0.30620  1.0000
  C   C87       1.0  0.16489  0.34400  0.31034  1.0000
  C   C88       1.0  0.16009  0.30838  0.31661  1.0000
  C   C89       1.0  0.18042  0.27949  0.31862  1.0000
  C   C90       1.0  0.20583  0.28689  0.31477  1.0000
  C   C91       1.0  0.21074  0.32270  0.30872  1.0000
  H   H88       1.0  0.14906  0.36603  0.30872  1.0000
  H   H89       1.0  0.14045  0.30300  0.31971  1.0000
  H   H90       1.0  0.22166  0.26502  0.31630  1.0000
  H   H91       1.0  0.23038  0.32817  0.30565  1.0000
  C   C92       1.0  0.47428  0.15580  0.28623  1.0000
  C   C93       1.0  0.48601  0.16893  0.29894  1.0000
  H   H92       1.0  0.45721  0.13766  0.28594  1.0000
  H   H93       1.0  0.47774  0.16111  0.30841  1.0000
  C   C94       1.0  0.33476  0.07866  0.28323  1.0000
  C   C95       1.0  0.32485  0.10699  0.27345  1.0000
  C   C96       1.0  0.29986  0.12552  0.27453  1.0000
  C   C97       1.0  0.28478  0.11590  0.28542  1.0000
  C   C98       1.0  0.29433  0.08666  0.29489  1.0000
  C   C99       1.0  0.31921  0.06804  0.29378  1.0000
  H   H94       1.0  0.23192  0.03391  0.45298  1.0000
  C   C100      1.0  0.50872  0.19147  0.29943  1.0000
  H   H95       1.0  0.28260  0.07839  0.30309  1.0000
  Fe  Fe23      1.0  0.30062  0.50056  0.50394  1.0000
  C   C101      1.0  0.49099  0.29076  0.44663  1.0000
  C   C102      1.0  0.46593  0.30177  0.45077  1.0000
  C   C103      1.0  0.44232  0.29018  0.44337  1.0000
  C   C104      1.0  0.44361  0.26755  0.43172  1.0000
  C   C105      1.0  0.46866  0.25752  0.42731  1.0000
  C   C106      1.0  0.49232  0.26907  0.43474  1.0000
  H   H96       1.0  0.46478  0.31877  0.45991  1.0000
  H   H97       1.0  0.42318  0.29852  0.44676  1.0000
  H   H98       1.0  0.46978  0.24015  0.41827  1.0000
  C   C107      1.0  0.36253  0.14601  0.30176  1.0000
  C   C108      1.0  0.28607  0.19034  0.39738  1.0000
  C   C109      1.0  0.31026  0.19299  0.39154  1.0000
  C   C110      1.0  0.31203  0.18200  0.37782  1.0000
  C   C111      1.0  0.28958  0.16881  0.36985  1.0000
  C   C112      1.0  0.26538  0.16635  0.37570  1.0000
  C   C113      1.0  0.26368  0.17695  0.38945  1.0000
  H   H99       1.0  0.32762  0.20333  0.39759  1.0000
  H   H100      1.0  0.33082  0.18400  0.37334  1.0000
  H   H101      1.0  0.24800  0.15619  0.36967  1.0000
  H   H102      1.0  0.24489  0.17495  0.39392  1.0000
  C   C114      1.0  0.32187  0.07699  0.47846  1.0000
  C   C115      1.0  0.31962  0.10073  0.48976  1.0000
  C   C116      1.0  0.32752  0.13906  0.48923  1.0000
  C   C117      1.0  0.33714  0.15414  0.47729  1.0000
  C   C118      1.0  0.33924  0.13049  0.46594  1.0000
  C   C119      1.0  0.33183  0.09188  0.46657  1.0000
  H   H103      1.0  0.31184  0.08960  0.49896  1.0000
  H   H104      1.0  0.32587  0.15715  0.49806  1.0000
  H   H105      1.0  0.34676  0.14172  0.45671  1.0000
  H   H106      1.0  0.33348  0.07367  0.45777  1.0000
  C   C120      1.0  0.31871  0.39292  0.45885  1.0000
  C   C121      1.0  0.30309  0.42608  0.46107  1.0000
  C   C122      1.0  0.30761  0.44654  0.47332  1.0000
  C   C123      1.0  0.32794  0.43412  0.48338  1.0000
  C   C124      1.0  0.34402  0.40149  0.48104  1.0000
  C   C125      1.0  0.33940  0.38087  0.46880  1.0000
  H   H107      1.0  0.28722  0.43574  0.45335  1.0000
  H   H108      1.0  0.29547  0.47208  0.47489  1.0000
  H   H109      1.0  0.35997  0.39200  0.48873  1.0000
  H   H110      1.0  0.35176  0.35565  0.46709  1.0000
  H   H111      1.0  0.39674  0.18601  0.46157  1.0000
  C   C126      1.0  0.32066  0.17581  0.30684  1.0000
  C   C127      1.0  0.41873  0.22082  0.47628  1.0000
  H   H112      1.0  0.37609  0.09653  0.31434  1.0000
  H   H113      1.0  0.30279  0.15006  0.32376  1.0000
  H   H114      1.0  0.44690  0.17883  0.43641  1.0000
  H   H115      1.0  0.29779  0.28074  0.48345  1.0000
  C   C128      1.0  0.44320  0.23718  0.48010  1.0000
  C   C129      1.0  0.15316  0.25550  0.28740  1.0000
  C   C130      1.0  0.33741  0.09257  0.33145  1.0000
  N   N10       1.0  0.29198  0.33997  0.48795  1.0000
  Fe  Fe24      1.0  0.12337  0.49693  0.27998  1.0000
  C   C131      1.0  0.48530  0.16521  0.27399  1.0000
  C   C132      1.0  0.41585  0.19865  0.46443  1.0000
  H   H116      1.0  0.12540  0.32106  0.26957  1.0000
  H   H117      1.0  0.17096  0.19948  0.29337  1.0000
  Fe  Fe25      1.0  0.11201  0.42025  0.26609  1.0000
  C   C133      1.0  0.20233  0.27246  0.27866  1.0000
  H   H118      1.0  0.13427  0.24882  0.29121  1.0000
  H   H119      1.0  0.14215  0.34930  0.28289  1.0000
  H   H120      1.0  0.19327  0.25787  0.36001  1.0000
  S   S47       1.0  0.51996  0.30126  0.45735  1.0000
  C   C134      1.0  0.19866  0.23592  0.28427  1.0000
  H   H121      1.0  0.21502  0.21441  0.28541  1.0000
  C   C135      1.0  0.13487  0.32022  0.28035  1.0000
  H   H122      1.0  0.27477  0.16469  0.46823  1.0000
  H   H123      1.0  0.32194  0.07198  0.32789  1.0000
  H   H124      1.0  0.30565  0.31387  0.47002  1.0000
  H   H125      1.0  0.29246  0.14789  0.26711  1.0000
  H   H126      1.0  0.32667  0.04579  0.30124  1.0000
  H   H127      1.0  0.48355  0.24396  0.47485  1.0000
  C   C136      1.0  0.26595  0.08451  0.44149  1.0000
  H   H128      1.0  0.50543  0.08468  0.29324  1.0000
  N   N11       1.0  0.25264  0.27195  0.37846  1.0000
  C   C137      1.0  0.22557  0.27045  0.37547  1.0000
  C   C138      1.0  0.26950  0.26303  0.36867  1.0000
  C   C139      1.0  0.21474  0.25925  0.36243  1.0000
  C   C140      1.0  0.25935  0.25151  0.35556  1.0000
  C   C141      1.0  0.23180  0.24972  0.35246  1.0000
  C   C142      1.0  0.26344  0.28488  0.39205  1.0000
  H   H129      1.0  0.21220  0.27784  0.38319  1.0000
  H   H130      1.0  0.29097  0.26391  0.37103  1.0000
  H   H131      1.0  0.30420  0.19659  0.30434  1.0000
  H   H132      1.0  0.27280  0.24331  0.34796  1.0000
  H   H133      1.0  0.22360  0.24086  0.34237  1.0000
  H   H134      1.0  0.28479  0.27550  0.39446  1.0000
  H   H135      1.0  0.26178  0.31682  0.39246  1.0000
  H   H136      1.0  0.25256  0.27206  0.40035  1.0000
  C   C143      1.0  0.46093  0.20845  0.46038  1.0000
  H   H137      1.0  0.26390  0.06188  0.43398  1.0000
  H   H138      1.0  0.25950  0.10076  0.47494  1.0000
  H   H139      1.0  0.43730  0.13893  0.44698  1.0000
  S   S48       1.0  0.07996  0.37666  0.26215  1.0000
  H   H140      1.0  0.47745  0.20449  0.45409  1.0000
  H   H141      1.0  0.22162  0.27978  0.27548  1.0000
  C   C144      1.0  0.27450  0.12054  0.43739  1.0000
  H   H142      1.0  0.40198  0.22542  0.48238  1.0000
  H   H143      1.0  0.44559  0.25502  0.48913  1.0000
  S   S49       1.0  0.33346  0.45864  0.49900  1.0000
  N   N12       1.0  0.33983  0.12161  0.32055  1.0000
  H   H144      1.0  0.35656  0.07614  0.33429  1.0000
  H   H145      1.0  0.33147  0.10656  0.34093  1.0000
  C   C145      1.0  0.43330  0.16987  0.44416  1.0000
  N   N13       1.0  0.15698  0.29130  0.28195  1.0000
  C   C146      1.0  0.18112  0.29994  0.27752  1.0000
  Fe  Fe26      1.0  0.38843  0.07366  0.26462  1.0000
  C   C147      1.0  0.31986  0.14923  0.31776  1.0000
  C   C148      1.0  0.26317  0.10627  0.46430  1.0000
  S   S50       1.0  0.18256  0.04699  0.33563  1.0000
  C   C149      1.0  0.36092  0.11960  0.31266  1.0000
  S   S51       1.0  0.15504  0.40783  0.26296  1.0000
  S   S52       1.0  0.36746  0.05891  0.28335  1.0000
  C   C150      1.0  0.27744  0.14966  0.44702  1.0000
  S   S53       1.0  0.43082  0.05236  0.26288  1.0000
  H   H146      1.0  0.37874  0.14326  0.29520  1.0000
  H   H147      1.0  0.24473  0.41112  0.48033  1.0000
  C   C151      1.0  0.29648  0.34447  0.50190  1.0000
  C   C152      1.0  0.34216  0.17412  0.29880  1.0000
  C   C153      1.0  0.27178  0.14258  0.46056  1.0000
  C   C154      1.0  0.27337  0.36317  0.48025  1.0000
  H   H148      1.0  0.28438  0.17752  0.44398  1.0000
  C   C155      1.0  0.30646  0.30902  0.48139  1.0000
  H   H149      1.0  0.18431  0.32864  0.27348  1.0000
  H   H150      1.0  0.34264  0.19369  0.29001  1.0000
  N   N14       1.0  0.26043  0.07776  0.45480  1.0000
  C   C156      1.0  0.25903  0.39220  0.48649  1.0000
  H   H151      1.0  0.52216  0.04598  0.28477  1.0000
  H   H152      1.0  0.11943  0.31432  0.28747  1.0000
  H   H153      1.0  0.25245  0.41929  0.50569  1.0000
  C   C157      1.0  0.26353  0.39702  0.50071  1.0000
  H   H154      1.0  0.51693  0.28641  0.39320  1.0000
  H   H155      1.0  0.49975  0.08044  0.27499  1.0000
  C   C158      1.0  0.25147  0.03967  0.45871  1.0000
  H   H156      1.0  0.51991  0.26809  0.34384  1.0000
  H   H157      1.0  0.38387  0.50171  0.49986  1.0000
  H   H158      1.0  0.31110  0.32593  0.50801  1.0000
  H   H159      1.0  0.51584  0.19648  0.26504  1.0000
  H   H160      1.0  0.24921  0.03719  0.46993  1.0000
  C   C159      1.0  0.51528  0.07675  0.28390  1.0000
  C   C160      1.0  0.51909  0.20172  0.28713  1.0000
  S   S54       1.0  0.52425  0.20565  0.31549  1.0000
  H   H161      1.0  0.27535  0.46800  0.57909  1.0000
  S   S55       1.0  0.21395  0.46532  0.52178  1.0000
  C   C161      1.0  0.25473  0.06778  0.57096  1.0000
  Fe  Fe27      1.0  0.20658  0.29981  0.57564  1.0000
  S   S56       1.0  0.17167  0.27528  0.56319  1.0000
  S   S57       1.0  0.23964  0.33355  0.56759  1.0000
  Fe  Fe28      1.0  0.19094  0.26691  0.60287  1.0000
  S   S58       1.0  0.15450  0.23928  0.59287  1.0000
  S   S59       1.0  0.20273  0.27128  0.62579  1.0000
  Fe  Fe29      1.0  0.18106  0.22205  0.57651  1.0000
  S   S60       1.0  0.17654  0.16361  0.56700  1.0000
  Fe  Fe30      1.0  0.14764  0.29410  0.58031  1.0000
  S   S61       1.0  0.10734  0.32509  0.57597  1.0000
  S   S62       1.0  0.21823  0.24473  0.58767  1.0000
  S   S63       1.0  0.18184  0.32372  0.59163  1.0000
  H   H162      1.0  0.49518  0.38931  0.74027  1.0000
  H   H163      1.0  0.05759  0.20564  0.57519  1.0000
  S   S64       1.0  0.27338  0.10802  0.53458  1.0000
  C   C162      1.0  0.07885  0.24652  0.54238  1.0000
  C   C163      1.0  0.10666  0.24840  0.54445  1.0000
  S   S65       1.0  0.37592  0.46292  0.73643  1.0000
  H   H164      1.0  0.23952  0.16020  0.75087  1.0000
  S   S66       1.0  0.43972  0.44354  0.73513  1.0000
  H   H165      1.0  0.12203  0.15278  0.54947  1.0000
  C   C164      1.0  0.03137  0.25601  0.57140  1.0000
  Fe  Fe31      1.0  0.40434  0.41224  0.74152  1.0000
  S   S67       1.0  0.39723  0.34830  0.74045  1.0000
  C   C165      1.0  0.22260  0.13302  0.69311  1.0000
  H   H166      1.0  0.29139  0.08869  0.56464  1.0000
  Fe  Fe32      1.0  0.28946  0.14430  0.67916  1.0000
  S   S68       1.0  0.33298  0.15317  0.67755  1.0000
  S   S69       1.0  0.26206  0.13131  0.66018  1.0000
  Fe  Fe33      1.0  0.29512  0.15243  0.71024  1.0000
  S   S70       1.0  0.33913  0.16157  0.71121  1.0000
  S   S71       1.0  0.27373  0.16203  0.72921  1.0000
  Fe  Fe34      1.0  0.32868  0.20057  0.69272  1.0000
  S   S72       1.0  0.34285  0.26083  0.68904  1.0000
  Fe  Fe35      1.0  0.33969  0.11325  0.69612  1.0000
  S   S73       1.0  0.37485  0.07009  0.69797  1.0000
  S   S74       1.0  0.28448  0.19479  0.69273  1.0000
  S   S75       1.0  0.29631  0.10073  0.69672  1.0000
  H   H167      1.0  0.18966  0.36032  0.55208  1.0000
  H   H168      1.0  0.23641  0.14283  0.68600  1.0000
  C   C166      1.0  0.38227  0.32511  0.72589  1.0000
  C   C167      1.0  0.37743  0.28569  0.72711  1.0000
  C   C168      1.0  0.36510  0.26596  0.71593  1.0000
  C   C169      1.0  0.35784  0.28533  0.70334  1.0000
  C   C170      1.0  0.36277  0.32480  0.70208  1.0000
  C   C171      1.0  0.37480  0.34476  0.71336  1.0000
  H   H169      1.0  0.38317  0.27028  0.73677  1.0000
  H   H170      1.0  0.36159  0.23562  0.71701  1.0000
  H   H171      1.0  0.35726  0.33997  0.69235  1.0000
  H   H172      1.0  0.37846  0.37516  0.71232  1.0000
  Fe  Fe36      1.0  0.38613  0.47914  0.75842  1.0000
  C   C172      1.0  0.47182  0.35085  0.75150  1.0000
  H   H173      1.0  0.19676  0.15808  0.72271  1.0000
  C   C173      1.0  0.05892  0.26988  0.60698  1.0000
  C   C174      1.0  0.25462  0.12498  0.73515  1.0000
  C   C175      1.0  0.25391  0.08898  0.72894  1.0000
  C   C176      1.0  0.23731  0.06068  0.73351  1.0000
  C   C177      1.0  0.22124  0.06849  0.74419  1.0000
  C   C178      1.0  0.22220  0.10433  0.75047  1.0000
  C   C179      1.0  0.23891  0.13246  0.74598  1.0000
  H   H174      1.0  0.26599  0.08301  0.72059  1.0000
  Fe  Fe37      1.0  0.26968  0.05357  0.52253  1.0000
  S   S76       1.0  0.42045  0.51552  0.75407  1.0000
  C   C180      1.0  0.05639  0.23677  0.57413  1.0000
  C   C181      1.0  0.07988  0.25763  0.57558  1.0000
  C   C182      1.0  0.07845  0.29783  0.57414  1.0000
  C   C183      1.0  0.05346  0.31700  0.57133  1.0000
  H   H175      1.0  0.28701  0.52484  0.56526  1.0000
  H   H176      1.0  0.05556  0.14861  0.75800  1.0000
  H   H177      1.0  0.09907  0.24257  0.57769  1.0000
  H   H178      1.0  0.05226  0.34811  0.57013  1.0000
  H   H179      1.0  0.18018  0.41231  0.53414  1.0000
  C   C184      1.0  0.21691  0.23102  0.63550  1.0000
  C   C185      1.0  0.22694  0.23604  0.64927  1.0000
  C   C186      1.0  0.24079  0.20564  0.65693  1.0000
  C   C187      1.0  0.24418  0.16974  0.65096  1.0000
  C   C188      1.0  0.23332  0.16429  0.63734  1.0000
  C   C189      1.0  0.21986  0.19494  0.62958  1.0000
  H   H180      1.0  0.22454  0.26384  0.65393  1.0000
  H   H181      1.0  0.24882  0.21009  0.66744  1.0000
  H   H182      1.0  0.23569  0.13644  0.63271  1.0000
  H   H183      1.0  0.21203  0.19076  0.61899  1.0000
  C   C190      1.0  0.20272  0.14943  0.55726  1.0000
  C   C191      1.0  0.22543  0.17141  0.55712  1.0000
  C   C192      1.0  0.24674  0.15884  0.54984  1.0000
  C   C193      1.0  0.24532  0.12454  0.54250  1.0000
  C   C194      1.0  0.22235  0.10294  0.54235  1.0000
  C   C195      1.0  0.20114  0.11527  0.54981  1.0000
  H   H184      1.0  0.22673  0.19793  0.56274  1.0000
  H   H185      1.0  0.26445  0.17567  0.54995  1.0000
  C   C196      1.0  0.49564  0.36492  0.74746  1.0000
  C   C197      1.0  0.22865  0.43421  0.57814  1.0000
  C   C198      1.0  0.22145  0.42644  0.53364  1.0000
  C   C199      1.0  0.24771  0.41726  0.53902  1.0000
  C   C200      1.0  0.25305  0.38785  0.54910  1.0000
  C   C201      1.0  0.23218  0.36731  0.55390  1.0000
  C   C202      1.0  0.20589  0.37593  0.54839  1.0000
  C   C203      1.0  0.20057  0.40541  0.53826  1.0000
  H   H186      1.0  0.26394  0.43298  0.53555  1.0000
  H   H187      1.0  0.27341  0.38133  0.55336  1.0000
  N   N15       1.0  0.05262  0.30861  0.60636  1.0000
  H   H188      1.0  0.05177  0.16188  0.71388  1.0000
  H   H189      1.0  0.19711  0.47150  0.55800  1.0000
  C   C204      1.0  0.12222  0.21440  0.54683  1.0000
  C   C205      1.0  0.03877  0.24306  0.60649  1.0000
  H   H190      1.0  0.07257  0.15078  0.54572  1.0000
  C   C206      1.0  0.07381  0.33660  0.60674  1.0000
  C   C207      1.0  0.04327  0.16719  0.72349  1.0000
  H   H191      1.0  0.45297  0.36405  0.74713  1.0000
  C   C208      1.0  0.32563  0.32888  0.75029  1.0000
  Fe  Fe38      1.0  0.44569  0.46075  0.75725  1.0000
  H   H192      1.0  0.06690  0.27315  0.54071  1.0000
  H   H193      1.0  0.06974  0.35801  0.59808  1.0000
  H   H194      1.0  0.07517  0.35171  0.61671  1.0000
  H   H195      1.0  0.37896  0.06085  0.72805  1.0000
  C   C209      1.0  0.04559  0.15992  0.74835  1.0000
  H   H196      1.0  0.11607  0.27608  0.54440  1.0000
  H   H197      1.0  0.13682  0.28717  0.75796  1.0000
  H   H198      1.0  0.09364  0.32259  0.60546  1.0000
  H   H199      1.0  0.22842  0.18087  0.70672  1.0000
  Fe  Fe39      1.0  0.41210  0.49638  0.73231  1.0000
  N   N16       1.0  0.23553  0.46664  0.56944  1.0000
  C   C210      1.0  0.10990  0.17916  0.54738  1.0000
  H   H200      1.0  0.28602  0.37668  0.51954  1.0000
  H   H201      1.0  0.34658  0.38082  0.75499  1.0000
  N   N17       1.0  0.06689  0.21176  0.54288  1.0000
  C   C211      1.0  0.16816  0.09455  0.72073  1.0000
  C   C212      1.0  0.51997  0.34808  0.75306  1.0000
  H   H202      1.0  0.24734  0.09609  0.57373  1.0000
  H   H203      1.0  0.16960  0.06266  0.72225  1.0000
  H   H204      1.0  0.07959  0.25948  0.60750  1.0000
  H   H205      1.0  0.43664  0.29121  0.75675  1.0000
  C   C213      1.0  0.19191  0.08621  0.70009  1.0000
  C   C214      1.0  0.19998  0.14142  0.71367  1.0000
  H   H206      1.0  0.27373  0.20137  0.62055  1.0000
  H   H207      1.0  0.36153  0.04148  0.74192  1.0000
  H   H208      1.0  0.04374  0.21239  0.60656  1.0000
  H   H209      1.0  0.34926  0.03551  0.72401  1.0000
  S   S77       1.0  0.08778  0.12797  0.73558  1.0000
  C   C215      1.0  0.08203  0.17832  0.54531  1.0000
  H   H210      1.0  0.30154  0.27880  0.74826  1.0000
  C   C216      1.0  0.03778  0.20991  0.54031  1.0000
  S   S78       1.0  0.28913  0.49556  0.52552  1.0000
  C   C217      1.0  0.21786  0.15456  0.70463  1.0000
  H   H211      1.0  0.24523  0.41195  0.57935  1.0000
  C   C218      1.0  0.20961  0.09861  0.69080  1.0000
  H   H212      1.0  0.17219  0.10672  0.73115  1.0000
  C   C219      1.0  0.26721  0.51323  0.56373  1.0000
  S   S79       1.0  0.15264  0.12193  0.75876  1.0000
  N   N18       1.0  0.18743  0.10747  0.71139  1.0000
  H   H213      1.0  0.22111  0.07644  0.53670  1.0000
  H   H214      1.0  0.23660  0.03294  0.72864  1.0000
  H   H215      1.0  0.14748  0.10353  0.71657  1.0000
  H   H216      1.0  0.33736  0.32139  0.74187  1.0000
  Fe  Fe40      1.0  0.24714  0.50264  0.51582  1.0000
  C   C220      1.0  0.26049  0.48119  0.57146  1.0000
  C   C221      1.0  0.33074  0.36235  0.75763  1.0000
  S   S80       1.0  0.19898  0.03406  0.74905  1.0000
  C   C222      1.0  0.05675  0.15306  0.73597  1.0000
  H   H217      1.0  0.21916  0.03927  0.57540  1.0000
  Fe  Fe41      1.0  0.11118  0.10046  0.75446  1.0000
  H   H218      1.0  0.18357  0.09823  0.54984  1.0000
  N   N19       1.0  0.28182  0.24948  0.63338  1.0000
  C   C223      1.0  0.27249  0.28589  0.63599  1.0000
  C   C224      1.0  0.29799  0.22891  0.64323  1.0000
  C   C225      1.0  0.27892  0.30231  0.64884  1.0000
  C   C226      1.0  0.30500  0.24464  0.65613  1.0000
  C   C227      1.0  0.29534  0.28149  0.65895  1.0000
  C   C228      1.0  0.27551  0.23315  0.61973  1.0000
  H   H219      1.0  0.25934  0.30197  0.62824  1.0000
  H   H220      1.0  0.30525  0.19993  0.64125  1.0000
  H   H221      1.0  0.27103  0.33081  0.65098  1.0000
  H   H222      1.0  0.31779  0.22838  0.66394  1.0000
  H   H223      1.0  0.30059  0.29373  0.66899  1.0000
  H   H224      1.0  0.25597  0.24501  0.61482  1.0000
  H   H225      1.0  0.29130  0.23990  0.61294  1.0000
  H   H226      1.0  0.14382  0.21518  0.54834  1.0000
  H   H227      1.0  0.11906  0.22840  0.74647  1.0000
  C   C229      1.0  0.36749  0.03611  0.73142  1.0000
  H   H228      1.0  0.21336  0.08172  0.68187  1.0000
  H   H229      1.0  0.35318  0.50876  0.52089  1.0000
  C   C230      1.0  0.27965  0.06340  0.56581  1.0000
  H   H230      1.0  0.18186  0.05941  0.69825  1.0000
  H   H231      1.0  0.22450  0.44448  0.58847  1.0000
  H   H232      1.0  0.21079  0.41949  0.57350  1.0000
  C   C231      1.0  0.30549  0.30506  0.75387  1.0000
  C   C232      1.0  0.23888  0.03587  0.57184  1.0000
  S   S81       1.0  0.12427  0.03788  0.75415  1.0000
  C   C233      1.0  0.21677  0.48333  0.55982  1.0000
  C   C234      1.0  0.22287  0.51525  0.55186  1.0000
  Fe  Fe42      1.0  0.16524  0.05924  0.76003  1.0000
  H   H233      1.0  0.03219  0.20098  0.52957  1.0000
  H   H234      1.0  0.31774  0.04929  0.54934  1.0000
  C   C235      1.0  0.02997  0.29619  0.57001  1.0000
  H   H235      1.0  0.20822  0.52763  0.54394  1.0000
  C   C236      1.0  0.11815  0.23213  0.75747  1.0000
  H   H236      1.0  0.02998  0.18907  0.54763  1.0000
  H   H237      1.0  0.21032  0.11027  0.75891  1.0000
  C   C237      1.0  0.02651  0.32162  0.60561  1.0000
  H   H238      1.0  0.02758  0.23820  0.54194  1.0000
  H   H239      1.0  0.18786  0.39150  0.99753  1.0000
  H   H240      1.0  0.45282  0.21137  0.90722  1.0000
  S   S82       1.0  0.27051  0.47668  0.97925  1.0000
  Fe  Fe43      1.0  0.35624  0.30944  0.95560  1.0000
  S   S83       1.0  0.31824  0.29924  0.94236  1.0000
  S   S84       1.0  0.35970  0.34555  0.97469  1.0000
  Fe  Fe44      1.0  0.38963  0.25479  0.93936  1.0000
  S   S85       1.0  0.35429  0.24039  0.92474  1.0000
  S   S86       1.0  0.42875  0.22218  0.93730  1.0000
  Fe  Fe45      1.0  0.34360  0.30374  0.92462  1.0000
  S   S87       1.0  0.33454  0.34144  0.90537  1.0000
  Fe  Fe46      1.0  0.33229  0.23679  0.94375  1.0000
  S   S88       1.0  0.30382  0.18905  0.94693  1.0000
  S   S89       1.0  0.38093  0.31853  0.93787  1.0000
  S   S90       1.0  0.36835  0.24670  0.95834  1.0000
  H   H241      1.0  0.29025  0.28321  0.84401  1.0000
  C   C238      1.0  0.49561  0.21056  0.90653  1.0000
  S   S91       1.0  0.32716  0.06514  0.99578  1.0000
  Fe  Fe47      1.0  0.14607  0.11446  0.78108  1.0000
  H   H242      1.0  0.39616  0.46357  0.00007  1.0000
  S   S92       1.0  0.15676  0.15500  0.79847  1.0000
  H   H243      1.0  0.10001  0.17779  0.76040  1.0000
  H   H244      1.0  0.30260  0.35167  0.84341  1.0000
  N   N20       1.0  0.32255  0.30734  0.85636  1.0000
  N   N21       1.0  0.34024  0.50827  0.97398  1.0000
  C   C239      1.0  0.31919  0.52535  0.96401  1.0000
  S   S93       1.0  0.10331  0.09800  0.77677  1.0000
  Fe  Fe48      1.0  0.23750  0.35147  0.83925  1.0000
  S   S94       1.0  0.19852  0.36514  0.82644  1.0000
  S   S95       1.0  0.24111  0.31394  0.85873  1.0000
  Fe  Fe49      1.0  0.26971  0.39306  0.81906  1.0000
  S   S96       1.0  0.23369  0.41168  0.80473  1.0000
  S   S97       1.0  0.31353  0.39625  0.81640  1.0000
  Fe  Fe50      1.0  0.21431  0.42468  0.82415  1.0000
  S   S98       1.0  0.18790  0.47549  0.82964  1.0000
  Fe  Fe51      1.0  0.22064  0.35098  0.80808  1.0000
  S   S99       1.0  0.20745  0.31665  0.78924  1.0000
  S   S100      1.0  0.25189  0.41162  0.83823  1.0000
  S   S101      1.0  0.25798  0.33178  0.82105  1.0000
  C   C240      1.0  0.32320  0.34131  0.84722  1.0000
  H   H245      1.0  0.34862  0.46102  0.96114  1.0000
  C   C241      1.0  0.32356  0.42626  0.80327  1.0000
  C   C242      1.0  0.34969  0.42187  0.79955  1.0000
  C   C243      1.0  0.35828  0.44502  0.78898  1.0000
  C   C244      1.0  0.34087  0.47305  0.78221  1.0000
  C   C245      1.0  0.31474  0.47764  0.78598  1.0000
  C   C246      1.0  0.30600  0.45405  0.79642  1.0000
  H   H246      1.0  0.36337  0.40053  0.80488  1.0000
  H   H247      1.0  0.29135  0.21779  0.97711  1.0000
  H   H248      1.0  0.28586  0.45776  0.79931  1.0000
  H   H249      1.0  0.46565  0.14035  0.96796  1.0000
  C   C247      1.0  0.17417  0.19736  0.79589  1.0000
  C   C248      1.0  0.18041  0.22102  0.80718  1.0000
  C   C249      1.0  0.19141  0.25718  0.80531  1.0000
  C   C250      1.0  0.19630  0.26986  0.79211  1.0000
  C   C251      1.0  0.19094  0.24566  0.78087  1.0000
  C   C252      1.0  0.17993  0.20944  0.78275  1.0000
  H   H250      1.0  0.17613  0.21176  0.81740  1.0000
  H   H251      1.0  0.19561  0.27554  0.81405  1.0000
  H   H252      1.0  0.19486  0.25523  0.77064  1.0000
  H   H253      1.0  0.17530  0.19137  0.77400  1.0000
  H   H254      1.0  0.30333  0.18258  0.99937  1.0000
  C   C253      1.0  0.52021  0.31741  0.76257  1.0000
  H   H255      1.0  0.44311  0.29896  0.94652  1.0000
  C   C254      1.0  0.30574  0.33643  0.89380  1.0000
  C   C255      1.0  0.28925  0.30506  0.89470  1.0000
  C   C256      1.0  0.26862  0.29938  0.88418  1.0000
  C   C257      1.0  0.26439  0.32497  0.87274  1.0000
  C   C258      1.0  0.28011  0.35725  0.87223  1.0000
  C   C259      1.0  0.30072  0.36291  0.88270  1.0000
  H   H256      1.0  0.29292  0.28455  0.90324  1.0000
  H   H257      1.0  0.25640  0.27446  0.88470  1.0000
  H   H258      1.0  0.27684  0.37743  0.86362  1.0000
  H   H259      1.0  0.31327  0.38740  0.88200  1.0000
  C   C260      1.0  0.31222  0.15269  0.95971  1.0000
  C   C261      1.0  0.29508  0.12202  0.96080  1.0000
  C   C262      1.0  0.29971  0.09464  0.97168  1.0000
  C   C263      1.0  0.32159  0.09765  0.98154  1.0000
  C   C264      1.0  0.33912  0.12777  0.98027  1.0000
  C   C265      1.0  0.33442  0.15527  0.96943  1.0000
  H   H260      1.0  0.27793  0.11972  0.95331  1.0000
  H   H261      1.0  0.28644  0.07109  0.97233  1.0000
  H   H262      1.0  0.35613  0.13018  0.98785  1.0000
  H   H263      1.0  0.34761  0.17881  0.96877  1.0000
  C   C266      1.0  0.29417  0.43831  0.97850  1.0000
  C   C267      1.0  0.31236  0.42780  0.98984  1.0000
  C   C268      1.0  0.33180  0.39830  0.98871  1.0000
  C   C269      1.0  0.33341  0.37950  0.97619  1.0000
  C   C270      1.0  0.31500  0.38962  0.96491  1.0000
  C   C271      1.0  0.29533  0.41879  0.96609  1.0000
  N   N22       1.0  0.44047  0.18854  0.97222  1.0000
  H   H264      1.0  0.34605  0.39062  0.99745  1.0000
  H   H265      1.0  0.31622  0.37555  0.95517  1.0000
  H   H266      1.0  0.28130  0.42669  0.95727  1.0000
  S   S102      1.0  0.48838  0.45957  0.76694  1.0000
  C   C272      1.0  0.30450  0.27962  0.85307  1.0000
  H   H267      1.0  0.27668  0.38991  0.78396  1.0000
  C   C273      1.0  0.50985  0.27434  0.94883  1.0000
  C   C274      1.0  0.12793  0.26508  0.76388  1.0000
  C   C275      1.0  0.50006  0.41881  0.77704  1.0000
  N   N23       1.0  0.26835  0.14946  0.99779  1.0000
  H   H268      1.0  0.27507  0.29646  0.76758  1.0000
  S   S103      1.0  0.23820  0.52406  0.00982  1.0000
  C   C276      1.0  0.35392  0.47538  0.97077  1.0000
  N   N24       1.0  0.47224  0.32135  0.76105  1.0000
  C   C277      1.0  0.46466  0.17011  0.97113  1.0000
  H   H269      1.0  0.40864  0.17232  0.95791  1.0000
  H   H270      1.0  0.41878  0.13654  0.97129  1.0000
  C   C278      1.0  0.31538  0.37173  0.76843  1.0000
  H   H271      1.0  0.44985  0.28937  0.77475  1.0000
  Fe  Fe52      1.0  0.12017  0.03681  0.77691  1.0000
  C   C279      1.0  0.51846  0.23250  0.90803  1.0000
  C   C280      1.0  0.30297  0.24746  0.86181  1.0000
  H   H272      1.0  0.13006  0.26529  0.80497  1.0000
  H   H273      1.0  0.39977  0.17862  0.97529  1.0000
  H   H274      1.0  0.09873  0.18564  0.78557  1.0000
  H   H275      1.0  0.44963  0.28096  0.91233  1.0000
  S   S104      1.0  0.16237  0.05330  0.78280  1.0000
  N   N25       1.0  0.11641  0.24061  0.78572  1.0000
  C   C281      1.0  0.18454  0.51968  0.80545  1.0000
  H   H276      1.0  0.49733  0.17995  0.90459  1.0000
  C   C282      1.0  0.33906  0.27145  0.87698  1.0000
  H   H277      1.0  0.43354  0.33275  0.76737  1.0000
  H   H278      1.0  0.35183  0.26960  0.88663  1.0000
  H   H279      1.0  0.11915  0.21718  0.80621  1.0000
  H   H280      1.0  0.28763  0.22673  0.85951  1.0000
  H   H281      1.0  0.50304  0.45492  0.81222  1.0000
  H   H282      1.0  0.24994  0.20275  0.96274  1.0000
  C   C283      1.0  0.28466  0.17689  0.99338  1.0000
  H   H283      1.0  0.33272  0.36586  0.85266  1.0000
  C   C284      1.0  0.27793  0.19704  0.98087  1.0000
  Fe  Fe53      1.0  0.27353  0.51510  0.99767  1.0000
  C   C285      1.0  0.34000  0.30330  0.86802  1.0000
  C   C286      1.0  0.46884  0.26740  0.91073  1.0000
  N   N26       1.0  0.51644  0.27100  0.91073  1.0000
  C   C287      1.0  0.48246  0.39540  0.78332  1.0000
  C   C288      1.0  0.49600  0.30429  0.76647  1.0000
  H   H284      1.0  0.22249  0.43685  0.99135  1.0000
  C   C289      1.0  0.24500  0.14173  0.99011  1.0000
  C   C290      1.0  0.11488  0.24527  0.80056  1.0000
  H   H285      1.0  0.50758  0.17505  0.97278  1.0000
  C   C291      1.0  0.17548  0.51395  0.81845  1.0000
  H   H286      1.0  0.26031  0.34509  0.78253  1.0000
  H   H287      1.0  0.30856  0.50260  0.95802  1.0000
  C   C292      1.0  0.44690  0.30779  0.76523  1.0000
  H   H288      1.0  0.35388  0.32565  0.87085  1.0000
  C   C293      1.0  0.47066  0.22821  0.90788  1.0000
  C   C294      1.0  0.38071  0.47641  0.99267  1.0000
  H   H289      1.0  0.46122  0.40193  0.78186  1.0000
  H   H290      1.0  0.19818  0.49862  0.80159  1.0000
  H   H291      1.0  0.31861  0.21955  0.88102  1.0000
  H   H292      1.0  0.37856  0.44172  0.78631  1.0000
  C   C295      1.0  0.43920  0.22664  0.97558  1.0000
  C   C296      1.0  0.32031  0.24350  0.87387  1.0000
  S   S105      1.0  0.41218  0.42637  0.76392  1.0000
  C   C297      1.0  0.36706  0.51040  0.99573  1.0000
  H   H293      1.0  0.13496  0.29429  0.78305  1.0000
  C   C298      1.0  0.37428  0.45888  0.98007  1.0000
  C   C299      1.0  0.41574  0.16799  0.96903  1.0000
  H   H294      1.0  0.33419  0.33422  0.83818  1.0000
  H   H295      1.0  0.49068  0.31853  0.91497  1.0000
  C   C300      1.0  0.28025  0.35821  0.78344  1.0000
  C   C301      1.0  0.22629  0.41735  0.00025  1.0000
  C   C302      1.0  0.34689  0.52618  0.98616  1.0000
  H   H296      1.0  0.37192  0.52450  0.00547  1.0000
  H   H297      1.0  0.21983  0.15380  0.97116  1.0000
  H   H298      1.0  0.46147  0.27737  0.98067  1.0000
  S   S106      1.0  0.35130  0.50258  0.76903  1.0000
  S   S107      1.0  0.25263  0.03372  0.98996  1.0000
  H   H299      1.0  0.31179  0.44253  0.99943  1.0000
  C   C303      1.0  0.12673  0.26899  0.77809  1.0000
  C   C304      1.0  0.23791  0.16086  0.97743  1.0000
  C   C305      1.0  0.20703  0.39178  0.00365  1.0000
  C   C306      1.0  0.49243  0.36379  0.79173  1.0000
  H   H300      1.0  0.30123  0.49940  0.78079  1.0000
  H   H301      1.0  0.47877  0.34571  0.79658  1.0000
  C   C307      1.0  0.29059  0.31525  0.76477  1.0000
  C   C308      1.0  0.52100  0.46328  0.80776  1.0000
  C   C309      1.0  0.48304  0.22043  0.94142  1.0000
  C   C310      1.0  0.45954  0.24297  0.94203  1.0000
  C   C311      1.0  0.46116  0.28133  0.94606  1.0000
  C   C312      1.0  0.48631  0.29691  0.94950  1.0000
  H   H302      1.0  0.48189  0.19072  0.93833  1.0000
  H   H303      1.0  0.48753  0.32656  0.95268  1.0000
  C   C313      1.0  0.25459  0.18858  0.97278  1.0000
  C   C314      1.0  0.46257  0.24697  0.97831  1.0000
  C   C315      1.0  0.50808  0.23607  0.94476  1.0000
  H   H304      1.0  0.38435  0.43197  0.97766  1.0000
  H   H305      1.0  0.09469  0.25651  0.80248  1.0000
  C   C316      1.0  0.52001  0.35547  0.79389  1.0000
  H   H306      1.0  0.50558  0.24400  0.97911  1.0000
  H   H307      1.0  0.23190  0.12026  0.99369  1.0000
  H   H308      1.0  0.31949  0.39774  0.77410  1.0000
  C   C317      1.0  0.10661  0.20836  0.77949  1.0000
  C   C318      1.0  0.10739  0.20362  0.76530  1.0000
  H   H309      1.0  0.42006  0.24173  0.97595  1.0000
  H   H310      1.0  0.49649  0.28131  0.77422  1.0000
  N   N27       1.0  0.29545  0.34848  0.77178  1.0000
  C   C319      1.0  0.51955  0.49191  0.79743  1.0000
  H   H311      1.0  0.29150  0.34782  0.79327  1.0000
  C   C320      1.0  0.48844  0.18952  0.97385  1.0000
  C   C321      1.0  0.48732  0.22822  0.97745  1.0000
  C   C322      1.0  0.49211  0.28840  0.91226  1.0000
  C   C323      1.0  0.25060  0.41793  0.00848  1.0000
  H   H312      1.0  0.50045  0.50576  0.79373  1.0000
  H   H313      1.0  0.26532  0.43808  0.00583  1.0000
  Fe  Fe54      1.0  0.41228  0.72322  0.07348  1.0000
  S   S108      1.0  0.39905  0.78155  0.08063  1.0000
  S   S109      1.0  0.38131  0.67758  0.07236  1.0000
  Fe  Fe55      1.0  0.46894  0.74744  0.07038  1.0000
  S   S110      1.0  0.46016  0.80745  0.07706  1.0000
  C   C324      1.0  0.46426  0.78615  0.23619  1.0000
  Fe  Fe56      1.0  0.43859  0.77918  0.09348  1.0000
  S   S111      1.0  0.44525  0.80277  0.11498  1.0000
  Fe  Fe57      1.0  0.42148  0.80448  0.06364  1.0000
  S   S112      1.0  0.40858  0.85394  0.04877  1.0000
  S   S113      1.0  0.45023  0.71888  0.08784  1.0000
  S   S114      1.0  0.43190  0.74651  0.05551  1.0000
  Fe  Fe58      1.0  0.40521  0.72382  0.18500  1.0000
  S   S115      1.0  0.37449  0.73026  0.20018  1.0000
  S   S116      1.0  0.39104  0.71688  0.16246  1.0000
  Fe  Fe59      1.0  0.45010  0.70924  0.20779  1.0000
  S   S117      1.0  0.42268  0.71329  0.22458  1.0000
  S   S118      1.0  0.49477  0.69908  0.21117  1.0000
  Fe  Fe60      1.0  0.39510  0.67792  0.21077  1.0000
  S   S119      1.0  0.37113  0.62907  0.21855  1.0000
  Fe  Fe61      1.0  0.40469  0.76542  0.21250  1.0000
  S   S120      1.0  0.39103  0.81648  0.22481  1.0000
  S   S121      1.0  0.42422  0.66960  0.19504  1.0000
  S   S122      1.0  0.43385  0.76340  0.19633  1.0000
  S   S123      1.0  0.43241  0.98801  0.22920  1.0000
  H   H314      1.0  0.37361  0.73785  0.05089  1.0000
  S   S124      1.0  0.27572  0.58263  0.02890  1.0000
  C   C325      1.0  0.34373  0.01053  0.21121  1.0000
  Fe  Fe62      1.0  0.27835  0.96151  0.01970  1.0000
  C   C326      1.0  0.50628  0.75333  0.24390  1.0000
  S   S125      1.0  0.28827  0.91526  0.03632  1.0000
  C   C327      1.0  0.47999  0.69459  0.17313  1.0000
  C   C328      1.0  0.46332  0.68838  0.16115  1.0000
  H   H315      1.0  0.46801  0.90345  0.08102  1.0000
  C   C329      1.0  0.48948  0.65804  0.23527  1.0000
  H   H316      1.0  0.29285  0.65947  0.01700  1.0000
  H   H317      1.0  0.46817  0.66070  0.23258  1.0000
  H   H318      1.0  0.51784  0.73876  0.13294  1.0000
  H   H319      1.0  0.47575  0.68199  0.18293  1.0000
  C   C330      1.0  0.37296  0.58635  0.19500  1.0000
  C   C331      1.0  0.36256  0.59030  0.20773  1.0000
  S   S126      1.0  0.23523  0.96614  0.01100  1.0000
  C   C332      1.0  0.36544  0.55566  0.18646  1.0000
  C   C333      1.0  0.31834  0.71004  0.04446  1.0000
  H   H320      1.0  0.38655  0.60719  0.19166  1.0000
  H   H321      1.0  0.36130  0.77897  0.04022  1.0000
  C   C334      1.0  0.50736  0.73354  0.15978  1.0000
  C   C335      1.0  0.40283  0.86406  0.22577  1.0000
  C   C336      1.0  0.42371  0.87607  0.21840  1.0000
  C   C337      1.0  0.43273  0.91395  0.21973  1.0000
  C   C338      1.0  0.42087  0.94029  0.22834  1.0000
  C   C339      1.0  0.39977  0.92846  0.23556  1.0000
  C   C340      1.0  0.39089  0.89050  0.23431  1.0000
  H   H322      1.0  0.43291  0.85625  0.21167  1.0000
  H   H323      1.0  0.44898  0.92291  0.21405  1.0000
  H   H324      1.0  0.39041  0.94844  0.24218  1.0000
  H   H325      1.0  0.37472  0.88150  0.24005  1.0000
  C   C341      1.0  0.46927  0.70472  0.14860  1.0000
  C   C342      1.0  0.47132  0.75476  0.25864  1.0000
  C   C343      1.0  0.37489  0.86963  0.04523  1.0000
  C   C344      1.0  0.36829  0.89864  0.03512  1.0000
  C   C345      1.0  0.34178  0.91278  0.03228  1.0000
  C   C346      1.0  0.32168  0.89799  0.03958  1.0000
  C   C347      1.0  0.32827  0.86902  0.04975  1.0000
  C   C348      1.0  0.35483  0.85492  0.05259  1.0000
  H   H326      1.0  0.38376  0.91031  0.02944  1.0000
  H   H327      1.0  0.33694  0.93523  0.02448  1.0000
  H   H328      1.0  0.31279  0.85771  0.05549  1.0000
  H   H329      1.0  0.35985  0.83323  0.06063  1.0000
  C   C349      1.0  0.42926  0.77991  0.12805  1.0000
  C   C350      1.0  0.43453  0.79117  0.14179  1.0000
  C   C351      1.0  0.42281  0.77226  0.15247  1.0000
  C   C352      1.0  0.40550  0.74231  0.14941  1.0000
  C   C353      1.0  0.39998  0.73144  0.13565  1.0000
  C   C354      1.0  0.41196  0.75000  0.12500  1.0000
  H   H330      1.0  0.44786  0.81439  0.14419  1.0000
  H   H331      1.0  0.42711  0.78087  0.16304  1.0000
  H   H332      1.0  0.38660  0.70829  0.13322  1.0000
  H   H333      1.0  0.40779  0.74111  0.11444  1.0000
  C   C355      1.0  0.37405  0.65275  0.05691  1.0000
  C   C356      1.0  0.35276  0.62769  0.05598  1.0000
  C   C357      1.0  0.34512  0.60956  0.04353  1.0000
  C   C358      1.0  0.35871  0.61645  0.03191  1.0000
  C   C359      1.0  0.38053  0.64059  0.03293  1.0000
  C   C360      1.0  0.38819  0.65872  0.04540  1.0000
  H   H334      1.0  0.34193  0.62259  0.06488  1.0000
  H   H335      1.0  0.32868  0.59034  0.04296  1.0000
  H   H336      1.0  0.39131  0.64571  0.02402  1.0000
  H   H337      1.0  0.40495  0.67738  0.04607  1.0000
  H   H338      1.0  0.45172  0.94147  0.07017  1.0000
  H   H339      1.0  0.15150  0.56634  0.25028  1.0000
  H   H340      1.0  0.35924  0.95221  0.20939  1.0000
  H   H341      1.0  0.45597  0.70015  0.13939  1.0000
  C   C361      1.0  0.38657  0.99438  0.20324  1.0000
  C   C362      1.0  0.34191  0.72246  0.02495  1.0000
  N   N28       1.0  0.33776  0.72893  0.03841  1.0000
  H   H342      1.0  0.40203  0.93467  0.06274  1.0000
  C   C363      1.0  0.35534  0.75436  0.04659  1.0000
  C   C364      1.0  0.50695  0.67305  0.22636  1.0000
  H   H343      1.0  0.35776  0.88419  0.09358  1.0000
  H   H344      1.0  0.04682  0.89201  0.25507  1.0000
  H   H345      1.0  0.34098  0.57232  0.15545  1.0000
  C   C365      1.0  0.30526  0.67931  0.02297  1.0000
  H   H346      1.0  0.29806  0.62257  0.19947  1.0000
  N   N29       1.0  0.32015  0.60969  0.16805  1.0000
  C   C366      1.0  0.30693  0.60267  0.17945  1.0000
  C   C367      1.0  0.33373  0.64288  0.16689  1.0000
  C   C368      1.0  0.30758  0.62891  0.19019  1.0000
  C   C369      1.0  0.33451  0.66989  0.17736  1.0000
  C   C370      1.0  0.32162  0.66260  0.18916  1.0000
  H   H347      1.0  0.45176  0.89236  0.06436  1.0000
  H   H348      1.0  0.43382  0.02342  0.20169  1.0000
  C   C371      1.0  0.32570  0.69765  0.01702  1.0000
  H   H349      1.0  0.40143  0.97257  0.20100  1.0000
  H   H350      1.0  0.32533  0.00190  0.21514  1.0000
  S   S127      1.0  0.50864  0.73131  0.06254  1.0000
  H   H351      1.0  0.34543  0.69602  0.17639  1.0000
  H   H352      1.0  0.28642  0.66997  0.04165  1.0000
  H   H353      1.0  0.34440  0.64852  0.15792  1.0000
  H   H354      1.0  0.37338  0.55317  0.17657  1.0000
  N   N30       1.0  0.49108  0.72696  0.14804  1.0000
  H   H355      1.0  0.33670  0.56585  0.22175  1.0000
  C   C372      1.0  0.45471  0.77629  0.24872  1.0000
  C   C373      1.0  0.30159  0.68532  0.03680  1.0000
  H   H356      1.0  0.48372  0.73450  0.12602  1.0000
  N   N31       1.0  0.49675  0.74359  0.25616  1.0000
  C   C374      1.0  0.45044  0.91086  0.07350  1.0000
  H   H357      1.0  0.30962  0.55508  0.15954  1.0000
  H   H358      1.0  0.31612  0.71337  0.05536  1.0000
  H   H359      1.0  0.34542  0.76652  0.05534  1.0000
  C   C375      1.0  0.49676  0.74501  0.13494  1.0000
  H   H360      1.0  0.35819  0.73591  0.02037  1.0000
  C   C376      1.0  0.36267  0.98268  0.20795  1.0000
  H   H361      1.0  0.31019  0.59452  0.14723  1.0000
  N   N32       1.0  0.42515  0.90474  0.07941  1.0000
  C   C377      1.0  0.40182  0.91911  0.07252  1.0000
  C   C378      1.0  0.42477  0.88335  0.09135  1.0000
  C   C379      1.0  0.37727  0.91230  0.07757  1.0000
  C   C380      1.0  0.40058  0.87587  0.09668  1.0000
  C   C381      1.0  0.37669  0.89039  0.08970  1.0000
  C   C382      1.0  0.34485  0.56294  0.21191  1.0000
  C   C383      1.0  0.49014  0.77452  0.23372  1.0000
  H   H362      1.0  0.44318  0.87134  0.09675  1.0000
  Fe  Fe63      1.0  0.30780  0.56968  0.01506  1.0000
  H   H363      1.0  0.40043  0.85828  0.10603  1.0000
  H   H364      1.0  0.32294  0.68263  0.19760  1.0000
  H   H365      1.0  0.29663  0.57600  0.18054  1.0000
  H   H366      1.0  0.44560  0.67164  0.16162  1.0000
  H   H367      1.0  0.51978  0.74186  0.09202  1.0000
  H   H368      1.0  0.49311  0.77676  0.13524  1.0000
  H   H369      1.0  0.45139  0.80224  0.22834  1.0000
  C   C384      1.0  0.49960  0.63951  0.24774  1.0000
  C   C385      1.0  0.33729  0.53215  0.20334  1.0000
  H   H370      1.0  0.35880  0.92293  0.07183  1.0000
  S   S128      1.0  0.34786  0.59686  0.01587  1.0000
  C   C386      1.0  0.50213  0.71733  0.17249  1.0000
  C   C387      1.0  0.32013  0.58159  0.15700  1.0000
  H   H371      1.0  0.25782  0.88099  0.01184  1.0000
  H   H372      1.0  0.49750  0.78106  0.22385  1.0000
  H   H373      1.0  0.41075  0.54044  0.21839  1.0000
  H   H374      1.0  0.11807  0.58496  0.25142  1.0000
  H   H375      1.0  0.48597  0.62827  0.25464  1.0000
  C   C388      1.0  0.13783  0.57945  0.25737  1.0000
  H   H376      1.0  0.43441  0.78491  0.25057  1.0000
  H   H377      1.0  0.51499  0.72242  0.18184  1.0000
  S   S129      1.0  0.28191  0.02548  0.02198  1.0000
  H   H378      1.0  0.52449  0.75149  0.15936  1.0000
  Fe  Fe64      1.0  0.24028  0.03030  0.01149  1.0000
  H   H379      1.0  0.03880  0.88237  0.30170  1.0000
  S   S130      1.0  0.24875  0.61004  0.47893  1.0000
  C   C389      1.0  0.19151  0.91126  0.34893  1.0000
  H   H380      1.0  0.13535  0.55835  0.26580  1.0000
  H   H381      1.0  0.18489  0.86366  0.50675  1.0000
  S   S131      1.0  0.19455  0.97621  0.50025  1.0000
  Fe  Fe65      1.0  0.12286  0.77086  0.42692  1.0000
  S   S132      1.0  0.11330  0.83376  0.42929  1.0000
  S   S133      1.0  0.12508  0.73969  0.40691  1.0000
  Fe  Fe66      1.0  0.13120  0.75524  0.45796  1.0000
  S   S134      1.0  0.12155  0.81680  0.46285  1.0000
  S   S135      1.0  0.14129  0.71208  0.47555  1.0000
  Fe  Fe67      1.0  0.08829  0.81360  0.44580  1.0000
  S   S136      1.0  0.04807  0.84399  0.44678  1.0000
  Fe  Fe68      1.0  0.14724  0.83134  0.44604  1.0000
  S   S137      1.0  0.18106  0.87243  0.44757  1.0000
  S   S138      1.0  0.09560  0.75055  0.44231  1.0000
  S   S139      1.0  0.15908  0.76983  0.44227  1.0000
  Fe  Fe69      1.0  0.08026  0.81472  0.30038  1.0000
  S   S140      1.0  0.12097  0.80305  0.29339  1.0000
  C   C390      1.0  0.16889  0.68016  0.27588  1.0000
  Fe  Fe70      1.0  0.10220  0.81663  0.33054  1.0000
  S   S141      1.0  0.14441  0.80446  0.32581  1.0000
  S   S142      1.0  0.09189  0.83613  0.35147  1.0000
  Fe  Fe71      1.0  0.13488  0.84784  0.30854  1.0000
  S   S143      1.0  0.16347  0.89283  0.30247  1.0000
  Fe  Fe72      1.0  0.12677  0.76046  0.31118  1.0000
  S   S144      1.0  0.15041  0.70408  0.30901  1.0000
  S   S145      1.0  0.09376  0.86297  0.31401  1.0000
  S   S146      1.0  0.08500  0.76914  0.31735  1.0000
  C   C391      1.0  0.19227  0.84825  0.49821  1.0000
  S   S147      1.0  0.04593  0.81784  0.28352  1.0000
  H   H382      1.0  0.19307  0.59076  0.45696  1.0000
  C   C392      1.0  0.17536  0.61619  0.26718  1.0000
  C   C393      1.0  0.18692  0.80087  0.48100  1.0000
  H   H383      1.0  0.51849  0.73982  0.27599  1.0000
  H   H384      1.0  0.35793  0.53817  0.49558  1.0000
  C   C394      1.0  0.18739  0.96142  0.30782  1.0000
  C   C395      1.0  0.16816  0.93592  0.31162  1.0000
  C   C396      1.0  0.15281  0.94558  0.32237  1.0000
  C   C397      1.0  0.15694  0.98030  0.32935  1.0000
  H   H385      1.0  0.26654  0.01698  0.45650  1.0000
  H   H386      1.0  0.19924  0.95423  0.29946  1.0000
  H   H387      1.0  0.13787  0.92623  0.32535  1.0000
  C   C398      1.0  0.05809  0.90730  0.26317  1.0000
  C   C399      1.0  0.13565  0.66039  0.30392  1.0000
  C   C400      1.0  0.10819  0.65851  0.30022  1.0000
  C   C401      1.0  0.09747  0.62399  0.29521  1.0000
  C   C402      1.0  0.11408  0.59120  0.29371  1.0000
  C   C403      1.0  0.14152  0.59299  0.29747  1.0000
  C   C404      1.0  0.15220  0.62737  0.30265  1.0000
  H   H388      1.0  0.09525  0.68371  0.30115  1.0000
  H   H389      1.0  0.07620  0.62278  0.29238  1.0000
  H   H390      1.0  0.15448  0.56787  0.29646  1.0000
  H   H391      1.0  0.17345  0.62859  0.30550  1.0000
  C   C405      1.0  0.11613  0.76658  0.39147  1.0000
  C   C406      1.0  0.12125  0.75101  0.37874  1.0000
  C   C407      1.0  0.11401  0.77199  0.36633  1.0000
  C   C408      1.0  0.10128  0.80842  0.36663  1.0000
  C   C409      1.0  0.09609  0.82384  0.37934  1.0000
  C   C410      1.0  0.10358  0.80311  0.39171  1.0000
  H   H392      1.0  0.13085  0.72268  0.37845  1.0000
  H   H393      1.0  0.11802  0.75984  0.35655  1.0000
  H   H394      1.0  0.08620  0.85198  0.37962  1.0000
  H   H395      1.0  0.09939  0.81534  0.40138  1.0000
  C   C411      1.0  0.18594  0.64893  0.27348  1.0000
  C   C412      1.0  0.16219  0.92604  0.36598  1.0000
  C   C413      1.0  0.19010  0.95004  0.48498  1.0000
  C   C414      1.0  0.16650  0.93024  0.48205  1.0000
  C   C415      1.0  0.16330  0.90686  0.47044  1.0000
  C   C416      1.0  0.18357  0.90360  0.46162  1.0000
  C   C417      1.0  0.20681  0.92443  0.46430  1.0000
  C   C418      1.0  0.21016  0.94743  0.47600  1.0000
  H   H396      1.0  0.15082  0.93254  0.48889  1.0000
  H   H397      1.0  0.14513  0.89153  0.46831  1.0000
  H   H398      1.0  0.22247  0.92213  0.45745  1.0000
  H   H399      1.0  0.22828  0.96294  0.47812  1.0000
  C   C419      1.0  0.22010  0.64064  0.47918  1.0000
  C   C420      1.0  0.21580  0.67103  0.46941  1.0000
  C   C421      1.0  0.19206  0.69389  0.46846  1.0000
  C   C422      1.0  0.17242  0.68648  0.47730  1.0000
  C   C423      1.0  0.17705  0.65682  0.48735  1.0000
  C   C424      1.0  0.20081  0.63388  0.48828  1.0000
  H   H400      1.0  0.23069  0.67638  0.46235  1.0000
  H   H401      1.0  0.18883  0.71660  0.46072  1.0000
  H   H402      1.0  0.16196  0.65094  0.49423  1.0000
  H   H403      1.0  0.20390  0.61042  0.49581  1.0000
  H   H404      1.0  0.16327  0.67095  0.41057  1.0000
  H   H405      1.0  0.11405  0.89722  0.28543  1.0000
  H   H406      1.0  0.21636  0.79883  0.46627  1.0000
  N   N33       1.0  0.14856  0.61477  0.26332  1.0000
  N   N34       1.0  0.08583  0.94475  0.28473  1.0000
  S   S148      1.0  0.27215  0.95949  0.50169  1.0000
  H   H407      1.0  0.15498  0.94571  0.37343  1.0000
  H   H408      1.0  0.20708  0.64967  0.27685  1.0000
  C   C425      1.0  0.21584  0.85988  0.49311  1.0000
  C   C426      1.0  0.14157  0.67830  0.27200  1.0000
  H   H409      1.0  0.24230  0.85167  0.47719  1.0000
  C   C427      1.0  0.15030  0.89043  0.36420  1.0000
  C   C428      1.0  0.19500  0.97315  0.36074  1.0000
  H   H410      1.0  0.17656  0.70508  0.28132  1.0000
  C   C429      1.0  0.13162  0.64496  0.26587  1.0000
  Fe  Fe73      1.0  0.28980  0.01678  0.49759  1.0000
  H   H411      1.0  0.09769  0.94832  0.30611  1.0000
  H   H412      1.0  0.17947  0.99685  0.36054  1.0000
  H   H413      1.0  0.17558  0.77814  0.47606  1.0000
  C   C430      1.0  0.22473  0.84178  0.48163  1.0000
  C   C431      1.0  0.15944  0.86496  0.35465  1.0000
  H   H414      1.0  0.20801  0.98053  0.35252  1.0000
  H   H415      1.0  0.46372  0.74690  0.26833  1.0000
  S   S149      1.0  0.30444  0.56471  0.50475  1.0000
  C   C432      1.0  0.02686  0.74131  0.41185  1.0000
  H   H416      1.0  0.13209  0.68619  0.43050  1.0000
  H   H417      1.0  0.20725  0.97246  0.37084  1.0000
  H   H418      1.0  0.20676  0.01521  0.31198  1.0000
  C   C433      1.0  0.17651  0.00550  0.32572  1.0000
  C   C434      1.0  0.10040  0.96381  0.29628  1.0000
  H   H419      1.0  0.22645  0.88395  0.49766  1.0000
  C   C435      1.0  0.06210  0.96050  0.27870  1.0000
  H   H420      1.0  0.12209  0.96369  0.29492  1.0000
  N   N35       1.0  0.18251  0.93603  0.35838  1.0000
  H   H421      1.0  0.15532  0.80680  0.50898  1.0000
  H   H422      1.0  0.12805  0.70166  0.27451  1.0000
  C   C436      1.0  0.09566  0.91027  0.28040  1.0000
  C   C437      1.0  0.18004  0.87545  0.34688  1.0000
  H   H423      1.0  0.14504  0.98752  0.33768  1.0000
  N   N36       1.0  0.16994  0.65604  0.43192  1.0000
  C   C438      1.0  0.18690  0.62953  0.43918  1.0000
  C   C439      1.0  0.14538  0.66490  0.43619  1.0000
  C   C440      1.0  0.17926  0.61088  0.45098  1.0000
  C   C441      1.0  0.13724  0.64715  0.44802  1.0000
  C   C442      1.0  0.15429  0.61989  0.45542  1.0000
  H   H424      1.0  0.20719  0.91943  0.34265  1.0000
  H   H425      1.0  0.20664  0.62304  0.43605  1.0000
  H   H426      1.0  0.05337  0.82977  0.41191  1.0000
  Fe  Fe74      1.0  0.26093  0.56759  0.49656  1.0000
  H   H427      1.0  0.11817  0.65533  0.45169  1.0000
  H   H428      1.0  0.14855  0.60684  0.46487  1.0000
  C   C443      1.0  0.04805  0.94228  0.26772  1.0000
  S   S150      1.0  0.09974  0.54911  0.28674  1.0000
  C   C444      1.0  0.21017  0.81215  0.47550  1.0000
  C   C445      1.0  0.08192  0.89098  0.26960  1.0000
  H   H429      1.0  0.13393  0.88257  0.37006  1.0000
  H   H430      1.0  0.15031  0.83728  0.35325  1.0000
  C   C446      1.0  0.15321  0.80804  0.49752  1.0000
  N   N37       1.0  0.17832  0.81878  0.49226  1.0000
  C   C447      1.0  0.19160  0.99607  0.31485  1.0000
  H   H431      1.0  0.02892  0.95438  0.26318  1.0000
  H   H432      1.0  0.18684  0.85623  0.33916  1.0000
  H   H433      1.0  0.08924  0.86291  0.26657  1.0000
  H   H434      1.0  0.19797  0.66549  0.41697  1.0000
  H   H435      1.0  0.09352  0.99438  0.29709  1.0000
  H   H436      1.0  0.17853  0.70735  0.42126  1.0000
  S   S151      1.0  0.31095  0.02944  0.47878  1.0000
  H   H437      1.0  0.03837  0.76157  0.44773  1.0000
  C   C448      1.0  0.17798  0.67576  0.41960  1.0000
  H   H438      1.0  0.05362  0.98694  0.28249  1.0000
  H   H439      1.0  0.13707  0.82954  0.49384  1.0000
  H   H440      1.0  0.03259  0.71099  0.41131  1.0000
  C   C449      1.0  0.37897  0.53320  0.50006  1.0000
  C   C450      1.0  0.04598  0.76925  0.41123  1.0000
  H   H441      1.0  0.14707  0.77909  0.49396  1.0000
  C   C451      1.0  0.03834  0.80819  0.41217  1.0000
  H   H442      1.0  0.11020  0.64288  0.26362  1.0000
  H   H443      1.0  0.39202  0.54820  0.49328  1.0000
  Fe  Fe75      1.0  0.23627  0.99513  0.50631  1.0000
  H   H444      1.0  0.18858  0.59157  0.26562  1.0000
  H   H445      1.0  0.06664  0.76081  0.41010  1.0000
  H   H446      1.0  0.50375  0.69545  0.27008  1.0000
  C   C452      1.0  0.51383  0.72170  0.26687  1.0000
  C   C453      1.0  0.41266  0.93021  0.73214  1.0000
  H   H447      1.0  0.32797  0.62424  0.52262  1.0000
  H   H448      1.0  0.34531  0.92458  0.66620  1.0000
  C   C454      1.0  0.46921  0.70143  0.62211  1.0000
  H   H449      1.0  0.35325  0.75222  0.54305  1.0000
  S   S152      1.0  0.30579  0.58597  0.54553  1.0000
  H   H450      1.0  0.41364  0.85197  0.66017  1.0000
  C   C455      1.0  0.36992  0.54276  0.53753  1.0000
  H   H451      1.0  0.34064  0.79301  0.55198  1.0000
  Fe  Fe76      1.0  0.42241  0.76032  0.59131  1.0000
  S   S153      1.0  0.45356  0.80319  0.58787  1.0000
  S   S154      1.0  0.40587  0.74970  0.61182  1.0000
  Fe  Fe77      1.0  0.41895  0.73300  0.56145  1.0000
  S   S155      1.0  0.45050  0.77335  0.55597  1.0000
  S   S156      1.0  0.40056  0.70030  0.54319  1.0000
  Fe  Fe78      1.0  0.47246  0.75570  0.57636  1.0000
  S   S157      1.0  0.30837  0.02239  0.51929  1.0000
  Fe  Fe79      1.0  0.42848  0.81694  0.56784  1.0000
  S   S158      1.0  0.42066  0.87685  0.55836  1.0000
  S   S159      1.0  0.44262  0.71156  0.58098  1.0000
  S   S160      1.0  0.39569  0.77760  0.57214  1.0000
  Fe  Fe80      1.0  0.44704  0.81118  0.68689  1.0000
  S   S161      1.0  0.40541  0.79279  0.68967  1.0000
  S   S162      1.0  0.46644  0.81033  0.66685  1.0000
  Fe  Fe81      1.0  0.45642  0.84204  0.71593  1.0000
  S   S163      1.0  0.41568  0.82561  0.72076  1.0000
  S   S164      1.0  0.47827  0.87348  0.73346  1.0000
  Fe  Fe82      1.0  0.42392  0.76976  0.71039  1.0000
  S   S165      1.0  0.41306  0.71852  0.72339  1.0000
  Fe  Fe83      1.0  0.40122  0.85007  0.69991  1.0000
  S   S166      1.0  0.36369  0.88860  0.69713  1.0000
  S   S167      1.0  0.46606  0.78456  0.70701  1.0000
  S   S168      1.0  0.44140  0.87011  0.69562  1.0000
  C   C456      1.0  0.38482  0.93037  0.73087  1.0000
  H   H452      1.0  0.41628  0.61040  0.53444  1.0000
  C   C457      1.0  0.47040  0.70195  0.63648  1.0000
  H   H453      1.0  0.45541  0.68772  0.64183  1.0000
  H   H454      1.0  0.37458  0.90343  0.72972  1.0000
  C   C458      1.0  0.44836  0.90733  0.65830  1.0000
  H   H455      1.0  0.33055  0.64687  0.70660  1.0000
  C   C459      1.0  0.36686  0.93910  0.69691  1.0000
  C   C460      1.0  0.34382  0.96343  0.69560  1.0000
  C   C461      1.0  0.36052  0.63590  0.74875  1.0000
  H   H456      1.0  0.34864  0.96550  0.72931  1.0000
  C   C462      1.0  0.39400  0.99562  0.69792  1.0000
  C   C463      1.0  0.39195  0.95539  0.69799  1.0000
  H   H457      1.0  0.32431  0.95105  0.69471  1.0000
  H   H458      1.0  0.39567  0.88175  0.51395  1.0000
  H   H459      1.0  0.45683  0.93437  0.65466  1.0000
  H   H460      1.0  0.40982  0.93712  0.69907  1.0000
  C   C464      1.0  0.41905  0.66895  0.72053  1.0000
  C   C465      1.0  0.42030  0.64335  0.73192  1.0000
  C   C466      1.0  0.41957  0.60336  0.73009  1.0000
  C   C467      1.0  0.41745  0.58839  0.71683  1.0000
  C   C468      1.0  0.41773  0.61386  0.70543  1.0000
  C   C469      1.0  0.41862  0.65407  0.70725  1.0000
  H   H461      1.0  0.42074  0.65459  0.74222  1.0000
  H   H462      1.0  0.41953  0.58438  0.73896  1.0000
  H   H463      1.0  0.41628  0.60255  0.69512  1.0000
  H   H464      1.0  0.41754  0.67353  0.69838  1.0000
  C   C470      1.0  0.44825  0.79534  0.65165  1.0000
  C   C471      1.0  0.42581  0.77290  0.65208  1.0000
  C   C472      1.0  0.41253  0.75992  0.63976  1.0000
  C   C473      1.0  0.42154  0.76937  0.62695  1.0000
  C   C474      1.0  0.44357  0.79268  0.62654  1.0000
  C   C475      1.0  0.45689  0.80554  0.63884  1.0000
  H   H465      1.0  0.41908  0.76465  0.66190  1.0000
  H   H466      1.0  0.39552  0.74185  0.64016  1.0000
  H   H467      1.0  0.45066  0.80023  0.61678  1.0000
  H   H468      1.0  0.47421  0.82295  0.63843  1.0000
  C   C476      1.0  0.33337  0.91203  0.54527  1.0000
  C   C477      1.0  0.33974  0.88240  0.55513  1.0000
  C   C478      1.0  0.36646  0.87248  0.55956  1.0000
  C   C479      1.0  0.38703  0.89199  0.55414  1.0000
  C   C480      1.0  0.38064  0.92298  0.54477  1.0000
  C   C481      1.0  0.35381  0.93298  0.54029  1.0000
  S   S169      1.0  0.24967  0.00042  0.52881  1.0000
  H   H469      1.0  0.37108  0.84979  0.56721  1.0000
  H   H470      1.0  0.39651  0.93845  0.54065  1.0000
  H   H471      1.0  0.34906  0.95595  0.53269  1.0000
  C   C482      1.0  0.33010  0.62115  0.54480  1.0000
  C   C483      1.0  0.33787  0.63416  0.53216  1.0000
  C   C484      1.0  0.35899  0.65945  0.53186  1.0000
  C   C485      1.0  0.37241  0.67202  0.54416  1.0000
  C   C486      1.0  0.36401  0.66026  0.55681  1.0000
  C   C487      1.0  0.34292  0.63477  0.55711  1.0000
  H   H472      1.0  0.36586  0.85924  0.66387  1.0000
  H   H473      1.0  0.36531  0.66866  0.52203  1.0000
  H   H474      1.0  0.37420  0.66993  0.56634  1.0000
  H   H475      1.0  0.33691  0.62497  0.56693  1.0000
  H   H476      1.0  0.51552  0.78125  0.60679  1.0000
  H   H477      1.0  0.51890  0.82376  0.75949  1.0000
  C   C488      1.0  0.35357  0.58712  0.72659  1.0000
  H   H478      1.0  0.35455  0.54096  0.74187  1.0000
  C   C489      1.0  0.35818  0.65040  0.73515  1.0000
  S   S170      1.0  0.51555  0.73508  0.58139  1.0000
  H   H479      1.0  0.44734  0.96489  0.73386  1.0000
  C   C490      1.0  0.36611  0.92129  0.66420  1.0000
  N   N38       1.0  0.50717  0.74164  0.62260  1.0000
  H   H480      1.0  0.51852  0.80635  0.56522  1.0000
  H   H481      1.0  0.42107  0.97365  0.66173  1.0000
  H   H482      1.0  0.42420  0.90319  0.73229  1.0000
  N   N39       1.0  0.41990  0.91241  0.66017  1.0000
  C   C491      1.0  0.49032  0.72218  0.64387  1.0000
  S   S171      1.0  0.24566  0.56730  0.51750  1.0000
  C   C492      1.0  0.48794  0.72141  0.61531  1.0000
  H   H483      1.0  0.38973  0.58139  0.55190  1.0000
  H   H484      1.0  0.32230  0.77572  0.53654  1.0000
  H   H485      1.0  0.45969  0.89763  0.66820  1.0000
  C   C493      1.0  0.38798  0.57105  0.54141  1.0000
  H   H486      1.0  0.32802  0.02232  0.69474  1.0000
  C   C494      1.0  0.40474  0.88063  0.66093  1.0000
  H   H487      1.0  0.41352  0.00795  0.69895  1.0000
  H   H488      1.0  0.42028  0.82980  0.52848  1.0000
  H   H489      1.0  0.35747  0.53104  0.54498  1.0000
  N   N40       1.0  0.28856  0.02815  0.56171  1.0000
  C   C495      1.0  0.38430  0.80468  0.53432  1.0000
  H   H490      1.0  0.45148  0.88505  0.65050  1.0000
  C   C496      1.0  0.38180  0.95352  0.66370  1.0000
  H   H491      1.0  0.42072  0.02671  0.73321  1.0000
  H   H492      1.0  0.35988  0.68116  0.73332  1.0000
  H   H493      1.0  0.39523  0.78257  0.54077  1.0000
  C   C497      1.0  0.51100  0.88856  0.73241  1.0000
  H   H494      1.0  0.23618  0.97482  0.56847  1.0000
  C   C498      1.0  0.31475  0.02440  0.55635  1.0000
  H   H495      1.0  0.28070  0.96833  0.55985  1.0000
  Fe  Fe84      1.0  0.28699  0.96875  0.52381  1.0000
  C   C499      1.0  0.40291  0.58733  0.53159  1.0000
  H   H496      1.0  0.45331  0.68681  0.61623  1.0000
  C   C500      1.0  0.35553  0.57176  0.74005  1.0000
  H   H497      1.0  0.36248  0.66926  0.70936  1.0000
  N   N41       1.0  0.35503  0.62599  0.72429  1.0000
  C   C501      1.0  0.27355  0.99640  0.56298  1.0000
  C   C502      1.0  0.34253  0.78080  0.54164  1.0000
  Fe  Fe85      1.0  0.28901  0.56008  0.52554  1.0000
  C   C503      1.0  0.39859  0.83115  0.52724  1.0000
  C   C504      1.0  0.40890  0.94851  0.66178  1.0000
  N   N42       1.0  0.38216  0.54661  0.51429  1.0000
  C   C505      1.0  0.37765  0.88457  0.66291  1.0000
  H   H498      1.0  0.03628  0.65211  0.75778  1.0000
  H   H499      1.0  0.32397  0.86655  0.55918  1.0000
  N   N43       1.0  0.35700  0.80723  0.53339  1.0000
  C   C506      1.0  0.50868  0.74197  0.63672  1.0000
  C   C507      1.0  0.34328  0.83606  0.52560  1.0000
  H   H500      1.0  0.49091  0.72375  0.65502  1.0000
  S   S172      1.0  0.29978  0.91980  0.53880  1.0000
  H   H501      1.0  0.05702  0.76121  0.75098  1.0000
  H   H502      1.0  0.52372  0.75826  0.64254  1.0000
  H   H503      1.0  0.51556  0.86477  0.71247  1.0000
  H   H504      1.0  0.32173  0.83940  0.52542  1.0000
  N   N44       1.0  0.38316  0.99965  0.73136  1.0000
  C   C508      1.0  0.38477  0.86033  0.51913  1.0000
  C   C509      1.0  0.37029  0.96558  0.73055  1.0000
  H   H505      1.0  0.48673  0.72116  0.60415  1.0000
  H   H506      1.0  0.37320  0.98207  0.66527  1.0000
  H   H507      1.0  0.34599  0.88622  0.51240  1.0000
  C   C510      1.0  0.37102  0.01995  0.69685  1.0000
  C   C511      1.0  0.35692  0.86276  0.51823  1.0000
  H   H508      1.0  0.36109  0.62142  0.70301  1.0000
  C   C512      1.0  0.34586  0.00379  0.69559  1.0000
  C   C513      1.0  0.24836  0.99984  0.56791  1.0000
  H   H509      1.0  0.51264  0.91517  0.75227  1.0000
  C   C514      1.0  0.35202  0.64168  0.71011  1.0000
  H   H510      1.0  0.31659  0.99784  0.55025  1.0000
  C   C515      1.0  0.39968  0.57478  0.51797  1.0000
  C   C516      1.0  0.52361  0.90786  0.74359  1.0000
  H   H511      1.0  0.35159  0.56762  0.71800  1.0000
  H   H512      1.0  0.25318  0.55526  0.54790  1.0000
  C   C517      1.0  0.41049  0.99972  0.73265  1.0000
  C   C518      1.0  0.42565  0.96500  0.73302  1.0000
  S   S173      1.0  0.41162  0.53887  0.71415  1.0000
  C   C519      1.0  0.35914  0.59629  0.75118  1.0000
  H   H513      1.0  0.33082  0.02319  0.56501  1.0000
  H   H514      1.0  0.36373  0.65520  0.75732  1.0000
  C   C520      1.0  0.36733  0.53069  0.52386  1.0000
  H   H515      1.0  0.06909  0.56714  0.75981  1.0000
  C   C521      1.0  0.24819  0.53037  0.55392  1.0000
  H   H516      1.0  0.41113  0.58801  0.51039  1.0000
  N   N45       1.0  0.12244  0.62586  0.95807  1.0000
  C   C522      1.0  0.09852  0.91864  0.94020  1.0000
  S   S174      1.0  0.28087  0.57822  0.99543  1.0000
  Fe  Fe86      1.0  0.25179  0.96905  0.99048  1.0000
  S   S175      1.0  0.23931  0.93087  0.97264  1.0000
  Fe  Fe87      1.0  0.29415  0.02562  0.00035  1.0000
  Fe  Fe88      1.0  0.13886  0.73022  0.94305  1.0000
  S   S176      1.0  0.14547  0.79047  0.93564  1.0000
  S   S177      1.0  0.17221  0.68479  0.94572  1.0000
  Fe  Fe89      1.0  0.07904  0.74483  0.94423  1.0000
  S   S178      1.0  0.08084  0.80657  0.93732  1.0000
  C   C523      1.0  0.23706  0.81294  0.98940  1.0000
  Fe  Fe90      1.0  0.10758  0.78390  0.92185  1.0000
  S   S179      1.0  0.10026  0.80932  0.90021  1.0000
  Fe  Fe91      1.0  0.11854  0.80783  0.95170  1.0000
  S   S180      1.0  0.12570  0.85716  0.96626  1.0000
  S   S181      1.0  0.10327  0.72189  0.92777  1.0000
  S   S182      1.0  0.11442  0.74786  0.96008  1.0000
  Fe  Fe92      1.0  0.12442  0.72112  0.82884  1.0000
  S   S183      1.0  0.15393  0.72374  0.81290  1.0000
  S   S184      1.0  0.14170  0.71344  0.85108  1.0000
  Fe  Fe93      1.0  0.07759  0.71379  0.80706  1.0000
  S   S185      1.0  0.10356  0.71536  0.78968  1.0000
  H   H517      1.0  0.16931  0.84687  0.00127  1.0000
  Fe  Fe94      1.0  0.13143  0.67531  0.80303  1.0000
  S   S186      1.0  0.15180  0.62497  0.79326  1.0000
  Fe  Fe95      1.0  0.12342  0.76383  0.80108  1.0000
  S   S187      1.0  0.13595  0.81308  0.78768  1.0000
  S   S188      1.0  0.10386  0.66996  0.81962  1.0000
  S   S189      1.0  0.09548  0.76516  0.81780  1.0000
  S   S190      1.0  0.10182  0.99082  0.78961  1.0000
  C   C524      1.0  0.15569  0.97775  0.81465  1.0000
  C   C525      1.0  0.11072  0.65085  0.98385  1.0000
  C   C526      1.0  0.15980  0.58171  0.80283  1.0000
  C   C527      1.0  0.03525  0.67632  0.77796  1.0000
  H   H518      1.0  0.11703  0.58655  0.94172  1.0000
  H   H519      1.0  0.21066  0.88012  0.00901  1.0000
  H   H520      1.0  0.14431  0.87727  0.76998  1.0000
  C   C528      1.0  0.15009  0.57532  0.81562  1.0000
  H   H521      1.0  0.21368  0.53542  0.84910  1.0000
  H   H522      1.0  0.14447  0.85863  0.90738  1.0000
  C   C529      1.0  0.13409  0.62891  0.98255  1.0000
  H   H523      1.0  0.13708  0.59672  0.81972  1.0000
  C   C530      1.0  0.12428  0.86175  0.78778  1.0000
  C   C531      1.0  0.10871  0.87553  0.79792  1.0000
  C   C532      1.0  0.10138  0.91505  0.79812  1.0000
  C   C533      1.0  0.10984  0.94111  0.78834  1.0000
  C   C534      1.0  0.12518  0.92724  0.77814  1.0000
  C   C535      1.0  0.13221  0.88769  0.77783  1.0000
  H   H524      1.0  0.10280  0.85600  0.80577  1.0000
  H   H525      1.0  0.08950  0.92564  0.80604  1.0000
  H   H526      1.0  0.13173  0.94703  0.77054  1.0000
  H   H527      1.0  0.17418  0.84697  0.81311  1.0000
  C   C536      1.0  0.11105  0.78171  0.88661  1.0000
  C   C537      1.0  0.10259  0.79272  0.87288  1.0000
  C   C538      1.0  0.11139  0.77162  0.86186  1.0000
  C   C539      1.0  0.12907  0.73974  0.86454  1.0000
  C   C540      1.0  0.13756  0.72883  0.87827  1.0000
  C   C541      1.0  0.12844  0.74954  0.88928  1.0000
  H   H528      1.0  0.08914  0.81758  0.87076  1.0000
  H   H529      1.0  0.10478  0.78028  0.85132  1.0000
  H   H530      1.0  0.15128  0.70427  0.88041  1.0000
  H   H531      1.0  0.13515  0.74091  0.89981  1.0000
  C   C542      1.0  0.20785  0.91020  0.97139  1.0000
  C   C543      1.0  0.20349  0.87870  0.96279  1.0000
  C   C544      1.0  0.17849  0.86181  0.96133  1.0000
  C   C545      1.0  0.15757  0.87672  0.96831  1.0000
  C   C546      1.0  0.16192  0.90824  0.97695  1.0000
  C   C547      1.0  0.18708  0.92483  0.97857  1.0000
  H   H532      1.0  0.21954  0.86727  0.95723  1.0000
  H   H533      1.0  0.17546  0.83742  0.95474  1.0000
  H   H534      1.0  0.14577  0.91991  0.98239  1.0000
  H   H535      1.0  0.19027  0.94929  0.98516  1.0000
  C   C548      1.0  0.20737  0.65181  0.98958  1.0000
  C   C549      1.0  0.19019  0.68450  0.98726  1.0000
  C   C550      1.0  0.17987  0.69557  0.97378  1.0000
  C   C551      1.0  0.18673  0.67400  0.96258  1.0000
  C   C552      1.0  0.20441  0.64188  0.96488  1.0000
  C   C553      1.0  0.21460  0.63065  0.97836  1.0000
  H   H536      1.0  0.18457  0.70094  0.99592  1.0000
  H   H537      1.0  0.16645  0.72052  0.97210  1.0000
  H   H538      1.0  0.20982  0.62514  0.95624  1.0000
  H   H539      1.0  0.22773  0.60532  0.98006  1.0000
  H   H540      1.0  0.07475  0.67662  0.97302  1.0000
  H   H541      1.0  0.15011  0.60588  0.94419  1.0000
  H   H542      1.0  0.05082  0.60195  0.80706  1.0000
  H   H543      1.0  0.18764  0.88547  0.91661  1.0000
  C   C554      1.0  0.16948  0.89267  0.92132  1.0000
  H   H544      1.0  0.17660  0.66575  0.83523  1.0000
  H   H545      1.0  0.32949  0.69161  0.00648  1.0000
  C   C555      1.0  0.17725  0.61930  0.85023  1.0000
  C   C556      1.0  0.17017  0.91687  0.93261  1.0000
  C   C557      1.0  0.21401  0.79350  0.98492  1.0000
  C   C558      1.0  0.06894  0.78856  0.77015  1.0000
  S   S191      1.0  0.29475  0.96092  0.99911  1.0000
  H   H546      1.0  0.16823  0.98635  0.82401  1.0000
  C   C559      1.0  0.03975  0.57097  0.77459  1.0000
  H   H547      1.0  0.13528  0.97147  0.81736  1.0000
  N   N46       1.0  0.12311  0.90950  0.93379  1.0000
  C   C560      1.0  0.09924  0.64670  0.95929  1.0000
  C   C561      1.0  0.20597  0.56433  0.84614  1.0000
  C   C562      1.0  0.06096  0.79993  0.78283  1.0000
  C   C563      1.0  0.19089  0.87949  0.79717  1.0000
  H   H548      1.0  0.14745  0.94347  0.94765  1.0000
  C   C564      1.0  0.15776  0.54145  0.82333  1.0000
  H   H549      1.0  0.18890  0.92850  0.93683  1.0000
  C   C565      1.0  0.12838  0.61257  0.94446  1.0000
  C   C566      1.0  0.18199  0.94827  0.79732  1.0000
  H   H550      1.0  0.07501  0.81324  0.79024  1.0000
  H   H551      1.0  0.15308  0.00268  0.80723  1.0000
  C   C567      1.0  0.18487  0.63728  0.83837  1.0000
  C   C568      1.0  0.13952  0.61623  0.96952  1.0000
  H   H552      1.0  0.21498  0.76972  0.97787  1.0000
  C   C569      1.0  0.20293  0.61818  0.83053  1.0000
  H   H553      1.0  0.10346  0.87436  0.91849  1.0000
  C   C570      1.0  0.14661  0.92520  0.93871  1.0000
  C   C571      1.0  0.18840  0.83658  0.99816  1.0000
  H   H554      1.0  0.12310  0.63568  0.93647  1.0000
  H   H555      1.0  0.10293  0.92827  0.95098  1.0000
  C   C572      1.0  0.19356  0.91612  0.79140  1.0000
  H   H556      1.0  0.10587  0.59014  0.77629  1.0000
  C   C573      1.0  0.18782  0.58256  0.85416  1.0000
  C   C574      1.0  0.09303  0.65954  0.97218  1.0000
  C   C575      1.0  0.03492  0.79350  0.78595  1.0000
  H   H557      1.0  0.16305  0.63385  0.85630  1.0000
  H   H558      1.0  0.05603  0.68320  0.77882  1.0000
  H   H559      1.0  0.17138  0.79139  0.98566  1.0000
  H   H560      1.0  0.08925  0.79315  0.76773  1.0000
  H   H561      1.0  0.19879  0.85409  0.79239  1.0000
  C   C576      1.0  0.14530  0.87757  0.91616  1.0000
  H   H562      1.0  0.20829  0.63212  0.82117  1.0000
  C   C577      1.0  0.12215  0.88644  0.92253  1.0000
  H   H563      1.0  0.18177  0.56808  0.86327  1.0000
  C   C578      1.0  0.17662  0.55347  0.79765  1.0000
  H   H564      1.0  0.08551  0.65392  0.95025  1.0000
  H   H565      1.0  0.15784  0.59947  0.96859  1.0000
  H   H566      1.0  0.08650  0.89254  0.94089  1.0000
  C   C579      1.0  0.26024  0.86308  0.00265  1.0000
  H   H567      1.0  0.26558  0.88227  0.99416  1.0000
  H   H568      1.0  0.14819  0.62228  0.99152  1.0000
  N   N47       1.0  0.21309  0.58205  0.83442  1.0000
  C   C580      1.0  0.08063  0.59697  0.79277  1.0000
  N   N48       1.0  0.16791  0.94396  0.80857  1.0000
  H   H569      1.0  0.22796  0.57008  0.81511  1.0000
  H   H570      1.0  0.25591  0.80406  0.98569  1.0000
  N   N49       1.0  0.23582  0.84304  0.99822  1.0000
  H   H571      1.0  0.20389  0.91957  0.78220  1.0000
  C   C581      1.0  0.05478  0.59374  0.79673  1.0000
  H   H572      1.0  0.08648  0.94154  0.93408  1.0000
  S   S192      1.0  0.04281  0.71161  0.94881  1.0000
  H   H573      1.0  0.15427  0.90476  0.82327  1.0000
  H   H574      1.0  0.36103  0.58441  0.76165  1.0000
  C   C582      1.0  0.16566  0.90824  0.81445  1.0000
  C   C583      1.0  0.18956  0.80545  0.98936  1.0000
  C   C584      1.0  0.17706  0.87548  0.80883  1.0000
  H   H575      1.0  0.09656  0.60699  0.79995  1.0000
  H   H576      1.0  0.18405  0.55813  0.78771  1.0000
  H   H577      1.0  0.18381  0.97651  0.79263  1.0000
  S   S193      1.0  0.21878  0.63743  0.00661  1.0000
  H   H578      1.0  0.10635  0.66122  0.99386  1.0000
  C   C585      1.0  0.21184  0.85532  0.00246  1.0000
  H   H579      1.0  0.32791  0.54542  0.95681  1.0000
  C   C586      1.0  0.08588  0.58733  0.77945  1.0000
  C   C587      1.0  0.06532  0.57429  0.77026  1.0000
  H   H580      1.0  0.33653  0.55273  0.98863  1.0000
  Fe  Fe96      1.0  0.24823  0.58666  0.00928  1.0000
  H   H581      1.0  0.25300  0.57206  0.82974  1.0000
  C   C588      1.0  0.23258  0.56296  0.82629  1.0000
  H   H582      1.0  0.30369  0.54116  0.96934  1.0000
  H   H583      1.0  0.27715  0.84220  0.00558  1.0000
  H   H584      1.0  0.15056  0.53706  0.83335  1.0000
  S   S194      1.0  0.03298  0.70702  0.80376  1.0000
  N   N50       1.0  0.03472  0.58101  0.78765  1.0000
  H   H585      1.0  0.02495  0.79189  0.94393  1.0000
  H   H586      1.0  0.02904  0.80180  0.79594  1.0000
  C   C589      1.0  0.05088  0.77069  0.76078  1.0000
  H   H587      1.0  0.23203  0.53100  0.82738  1.0000
  C   C590      1.0  0.02489  0.76490  0.76420  1.0000
  C   C591      1.0  0.87193  0.14720  0.25005  1.0000
  C   C592      1.0  0.87043  0.44358  0.04943  1.0000
  Fe  Fe97      1.0  0.78228  0.03489  0.02745  1.0000
  C   C593      1.0  0.83430  0.42475  0.19762  1.0000
  C   C594      1.0  0.86927  0.52558  0.21388  1.0000
  C   C595      1.0  0.83479  0.47718  0.18103  1.0000
  Fe  Fe98      1.0  0.95652  0.26687  0.06997  1.0000
  S   S195      1.0  0.95729  0.20607  0.07816  1.0000
  S   S196      1.0  0.99235  0.29860  0.06407  1.0000
  Fe  Fe99      1.0  0.89740  0.27958  0.07365  1.0000
  S   S197      1.0  0.89382  0.22008  0.08267  1.0000
  S   S198      1.0  0.86020  0.31819  0.07150  1.0000
  Fe  Fe100     1.0  0.93344  0.23074  0.09446  1.0000
  S   S199      1.0  0.94746  0.21341  0.11651  1.0000
  Fe  Fe101     1.0  0.91775  0.20129  0.06555  1.0000
  S   S200      1.0  0.90877  0.15188  0.05125  1.0000
  S   S201      1.0  0.93479  0.29195  0.08702  1.0000
  S   S202      1.0  0.91909  0.26024  0.05582  1.0000
  Fe  Fe102     1.0  0.97171  0.34130  0.20328  1.0000
  S   S203      1.0  0.95074  0.33659  0.22237  1.0000
  C   C596      1.0  0.84213  0.43930  0.18524  1.0000
  Fe  Fe103     1.0  0.92300  0.31667  0.18505  1.0000
  S   S204      1.0  0.89845  0.30999  0.20311  1.0000
  S   S205      1.0  0.90248  0.31272  0.16345  1.0000
  Fe  Fe104     1.0  0.91589  0.36605  0.20994  1.0000
  S   S206      1.0  0.89362  0.41344  0.22032  1.0000
  Fe  Fe105     1.0  0.93576  0.28093  0.21376  1.0000
  S   S207      1.0  0.93951  0.23204  0.22980  1.0000
  S   S208      1.0  0.93784  0.37467  0.19129  1.0000
  S   S209      1.0  0.95923  0.28369  0.19520  1.0000
  H   H588      1.0  0.96073  0.47716  0.21305  1.0000
  C   C597      1.0  0.88926  0.46062  0.21307  1.0000
  C   C598      1.0  0.87460  0.48844  0.21977  1.0000
  C   C599      1.0  0.81959  0.49997  0.18929  1.0000
  N   N51       1.0  0.81172  0.48533  0.20135  1.0000
  C   C600      1.0  0.79653  0.51028  0.20999  1.0000
  C   C601      1.0  0.89924  0.47055  0.20060  1.0000
  H   H589      1.0  0.86692  0.48108  0.22946  1.0000
  C   C602      1.0  0.79578  0.46173  0.06571  1.0000
  C   C603      1.0  0.85548  0.23410  0.03983  1.0000
  H   H590      1.0  0.91037  0.44940  0.19525  1.0000
  C   C604      1.0  0.93311  0.18347  0.22605  1.0000
  C   C605      1.0  0.93698  0.15547  0.23675  1.0000
  C   C606      1.0  0.93099  0.11673  0.23431  1.0000
  C   C607      1.0  0.92110  0.10576  0.22111  1.0000
  C   C608      1.0  0.91758  0.13368  0.21037  1.0000
  C   C609      1.0  0.92354  0.17242  0.21281  1.0000
  H   H591      1.0  0.94436  0.16383  0.24703  1.0000
  H   H592      1.0  0.93372  0.09548  0.24266  1.0000
  H   H593      1.0  0.90994  0.12535  0.20014  1.0000
  H   H594      1.0  0.92047  0.19375  0.20450  1.0000
  C   C610      1.0  0.93744  0.24441  0.12931  1.0000
  C   C611      1.0  0.91802  0.27379  0.12605  1.0000
  C   C612      1.0  0.90820  0.29556  0.13661  1.0000
  C   C613      1.0  0.91799  0.28848  0.15045  1.0000
  C   C614      1.0  0.93818  0.26007  0.15367  1.0000
  C   C615      1.0  0.94778  0.23795  0.14311  1.0000
  H   H595      1.0  0.90990  0.27895  0.11546  1.0000
  H   H596      1.0  0.89257  0.31749  0.13408  1.0000
  H   H597      1.0  0.94571  0.25429  0.16431  1.0000
  H   H598      1.0  0.96283  0.21523  0.14567  1.0000
  C   C616      1.0  0.82638  0.09848  0.04558  1.0000
  C   C617      1.0  0.83177  0.12601  0.05576  1.0000
  C   C618      1.0  0.85697  0.14241  0.05767  1.0000
  C   C619      1.0  0.87699  0.13144  0.04935  1.0000
  C   C620      1.0  0.87160  0.10401  0.03914  1.0000
  C   C621      1.0  0.84637  0.08757  0.03724  1.0000
  H   H599      1.0  0.81638  0.13442  0.06226  1.0000
  H   H600      1.0  0.86090  0.16328  0.06561  1.0000
  H   H601      1.0  0.88702  0.09529  0.03271  1.0000
  H   H602      1.0  0.88555  0.22734  0.01126  1.0000
  C   C622      1.0  0.85143  0.33958  0.05513  1.0000
  C   C623      1.0  0.82571  0.35615  0.05206  1.0000
  C   C624      1.0  0.81846  0.37457  0.03923  1.0000
  C   C625      1.0  0.83689  0.37659  0.02939  1.0000
  C   C626      1.0  0.86254  0.35968  0.03241  1.0000
  C   C627      1.0  0.86984  0.34136  0.04527  1.0000
  H   H603      1.0  0.81138  0.35481  0.05965  1.0000
  H   H604      1.0  0.79858  0.38696  0.03697  1.0000
  H   H605      1.0  0.87695  0.36131  0.02487  1.0000
  H   H606      1.0  0.88992  0.32959  0.04766  1.0000
  H   H607      1.0  0.94658  0.41995  0.23806  1.0000
  H   H608      1.0  0.90288  0.25536  0.02460  1.0000
  S   S210      1.0  0.79391  0.50257  0.01125  1.0000
  C   C628      1.0  0.00686  0.24175  0.22134  1.0000
  S   S211      1.0  0.82856  0.39993  0.01329  1.0000
  C   C629      1.0  0.96711  0.42863  0.23999  1.0000
  C   C630      1.0  0.84958  0.46430  0.04180  1.0000
  C   C631      1.0  0.82168  0.28516  0.02364  1.0000
  H   H609      1.0  0.87840  0.14610  0.10037  1.0000
  S   S212      1.0  0.01343  0.36365  0.20401  1.0000
  C   C632      1.0  0.86908  0.15011  0.23568  1.0000
  N   N52       1.0  0.88706  0.16955  0.12045  1.0000
  C   C633      1.0  0.89956  0.16311  0.13345  1.0000
  C   C634      1.0  0.86900  0.19986  0.11783  1.0000
  C   C635      1.0  0.89337  0.18647  0.14434  1.0000
  C   C636      1.0  0.86241  0.22388  0.12848  1.0000
  C   C637      1.0  0.87463  0.21699  0.14182  1.0000
  C   C638      1.0  0.89421  0.14496  0.10918  1.0000
  H   H610      1.0  0.91491  0.14039  0.13537  1.0000
  H   H611      1.0  0.85982  0.20594  0.10745  1.0000
  H   H612      1.0  0.90378  0.18193  0.15456  1.0000
  H   H613      1.0  0.84853  0.24839  0.12634  1.0000
  H   H614      1.0  0.87044  0.23625  0.15008  1.0000
  H   H615      1.0  0.89706  0.11434  0.11273  1.0000
  H   H616      1.0  0.91311  0.15451  0.10539  1.0000
  C   C639      1.0  0.84213  0.43548  0.06786  1.0000
  H   H617      1.0  0.82013  0.06655  0.22018  1.0000
  H   H618      1.0  0.00466  0.33594  0.23146  1.0000
  N   N53       1.0  0.98041  0.44260  0.22944  1.0000
  N   N54       1.0  0.85023  0.08747  0.23457  1.0000
  C   C640      1.0  0.01133  0.23799  0.23566  1.0000
  H   H619      1.0  0.77927  0.45480  0.05781  1.0000
  H   H620      1.0  0.78764  0.49385  0.21821  1.0000
  H   H621      1.0  0.98875  0.23099  0.21605  1.0000
  C   C641      1.0  0.81441  0.27249  0.03640  1.0000
  H   H622      1.0  0.77976  0.52593  0.20370  1.0000
  H   H623      1.0  0.86880  0.21475  0.04635  1.0000
  H   H624      1.0  0.99650  0.22476  0.24146  1.0000
  H   H625      1.0  0.85343  0.04605  0.21905  1.0000
  H   H626      1.0  0.84092  0.39591  0.20129  1.0000
  H   H627      1.0  0.84245  0.06629  0.02941  1.0000
  H   H628      1.0  0.84159  0.48935  0.17169  1.0000
  H   H629      1.0  0.80905  0.30621  0.01741  1.0000
  S   S213      1.0  0.91133  0.05821  0.21773  1.0000
  C   C642      1.0  0.85247  0.08466  0.24868  1.0000
  H   H630      1.0  0.85729  0.12134  0.21687  1.0000
  C   C643      1.0  0.81913  0.44836  0.20564  1.0000
  H   H631      1.0  0.81479  0.52980  0.18619  1.0000
  H   H632      1.0  0.87603  0.17523  0.23046  1.0000
  H   H633      1.0  0.79597  0.28334  0.04010  1.0000
  H   H634      1.0  0.81394  0.43722  0.21548  1.0000
  C   C644      1.0  0.84595  0.27186  0.01923  1.0000
  C   C645      1.0  0.88782  0.23307  0.02249  1.0000
  C   C646      1.0  0.00643  0.25500  0.10176  1.0000
  N   N55       1.0  0.82168  0.45544  0.06022  1.0000
  H   H635      1.0  0.83931  0.42323  0.07793  1.0000
  N   N56       1.0  0.86227  0.24611  0.02721  1.0000
  S   S214      1.0  0.79446  0.07859  0.04368  1.0000
  C   C647      1.0  0.96691  0.44652  0.21544  1.0000
  C   C648      1.0  0.89416  0.50785  0.19479  1.0000
  H   H636      1.0  0.88258  0.41200  0.06844  1.0000
  C   C649      1.0  0.82526  0.47024  0.04744  1.0000
  H   H637      1.0  0.01662  0.46515  0.22354  1.0000
  H   H638      1.0  0.85190  0.47463  0.03140  1.0000
  Fe  Fe106     1.0  0.75887  0.50008  0.02378  1.0000
  C   C650      1.0  0.01929  0.45149  0.24524  1.0000
  H   H639      1.0  0.79302  0.49253  0.06840  1.0000
  C   C651      1.0  0.86679  0.42921  0.06258  1.0000
  C   C652      1.0  0.97985  0.42503  0.25341  1.0000
  H   H640      1.0  0.80907  0.48612  0.04143  1.0000
  S   S215      1.0  0.75824  0.43550  0.02448  1.0000
  C   C653      1.0  0.83145  0.24695  0.04460  1.0000
  H   H641      1.0  0.79385  0.44338  0.07501  1.0000
  H   H642      1.0  0.00944  0.21847  0.06997  1.0000
  H   H643      1.0  0.88097  0.17019  0.25605  1.0000
  H   H644      1.0  0.88910  0.43773  0.04501  1.0000
  H   H645      1.0  0.00468  0.22333  0.10071  1.0000
  C   C654      1.0  0.83892  0.05624  0.22624  1.0000
  C   C655      1.0  0.85836  0.11963  0.22805  1.0000
  H   H646      1.0  0.90160  0.51520  0.18504  1.0000
  H   H647      1.0  0.82638  0.23767  0.05470  1.0000
  C   C656      1.0  0.02242  0.35248  0.23216  1.0000
  S   S216      1.0  0.73872  0.03820  0.01936  1.0000
  H   H648      1.0  0.98030  0.43599  0.20774  1.0000
  H   H649      1.0  0.89555  0.20568  0.02784  1.0000
  H   H650      1.0  0.84605  0.05920  0.25390  1.0000
  H   H651      1.0  0.85462  0.42164  0.17916  1.0000
  C   C657      1.0  0.00606  0.45428  0.23193  1.0000
  H   H652      1.0  0.94877  0.42918  0.21426  1.0000
  C   C658      1.0  0.00615  0.43643  0.25601  1.0000
  H   H653      1.0  0.56984  0.14439  0.25737  1.0000
  H   H654      1.0  0.99307  0.26879  0.09317  1.0000
  H   H655      1.0  0.99914  0.26349  0.11173  1.0000
  C   C659      1.0  0.86355  0.11431  0.25663  1.0000
  H   H656      1.0  0.02202  0.32441  0.09466  1.0000
  Fe  Fe107     1.0  0.79108  0.43815  0.01056  1.0000
  H   H657      1.0  0.02170  0.26347  0.20284  1.0000
  C   C660      1.0  0.02391  0.27434  0.06531  1.0000
  H   H658      1.0  0.83433  0.03103  0.23273  1.0000
  Fe  Fe108     1.0  0.75490  0.49859  0.49231  1.0000
  S   S217      1.0  0.73899  0.46541  0.47364  1.0000
  S   S218      1.0  0.79827  0.49539  0.50074  1.0000
  Fe  Fe109     1.0  0.74929  0.12146  0.50058  1.0000
  S   S219      1.0  0.78532  0.09903  0.49104  1.0000
  S   S220      1.0  0.73156  0.17975  0.49329  1.0000
  Fe  Fe110     1.0  0.56094  0.29896  0.44946  1.0000
  S   S221      1.0  0.58055  0.35323  0.44365  1.0000
  C   C661      1.0  0.63188  0.22841  0.49467  1.0000
  Fe  Fe111     1.0  0.61164  0.24971  0.44658  1.0000
  S   S222      1.0  0.63514  0.29976  0.44018  1.0000
  S   S223      1.0  0.62894  0.18922  0.45041  1.0000
  Fe  Fe112     1.0  0.61685  0.33117  0.45719  1.0000
  S   S224      1.0  0.63771  0.36208  0.47537  1.0000
  Fe  Fe113     1.0  0.59693  0.31721  0.42714  1.0000
  S   S225      1.0  0.59259  0.34144  0.40528  1.0000
  S   S226      1.0  0.59579  0.27959  0.46432  1.0000
  S   S227      1.0  0.57489  0.26428  0.43212  1.0000
  Fe  Fe114     1.0  0.56575  0.22864  0.31540  1.0000
  S   S228      1.0  0.58840  0.23827  0.29702  1.0000
  C   C662      1.0  0.69700  0.16455  0.43946  1.0000
  Fe  Fe115     1.0  0.61364  0.24753  0.33547  1.0000
  S   S229      1.0  0.63979  0.25930  0.31841  1.0000
  S   S230      1.0  0.63030  0.23691  0.35766  1.0000
  Fe  Fe116     1.0  0.60325  0.29128  0.30794  1.0000
  S   S231      1.0  0.59953  0.34439  0.29356  1.0000
  Fe  Fe117     1.0  0.62255  0.20577  0.30909  1.0000
  S   S232      1.0  0.64749  0.15989  0.29931  1.0000
  S   S233      1.0  0.57822  0.28330  0.32581  1.0000
  S   S234      1.0  0.59878  0.19238  0.32665  1.0000
  C   C663      1.0  0.65622  0.49380  0.47249  1.0000
  C   C664      1.0  0.65309  0.11357  0.30722  1.0000
  C   C665      1.0  0.64013  0.10295  0.31870  1.0000
  C   C666      1.0  0.70568  0.12801  0.44479  1.0000
  H   H659      1.0  0.66440  0.19729  0.33997  1.0000
  N   N57       1.0  0.54195  0.26872  0.37787  1.0000
  C   C667      1.0  0.67154  0.08730  0.30219  1.0000
  H   H660      1.0  0.62589  0.12259  0.32267  1.0000
  C   C668      1.0  0.56432  0.21789  0.36649  1.0000
  H   H661      1.0  0.53607  0.21979  0.28729  1.0000
  H   H662      1.0  0.68153  0.09516  0.29324  1.0000
  C   C669      1.0  0.61387  0.39019  0.29538  1.0000
  C   C670      1.0  0.62864  0.40073  0.30753  1.0000
  C   C671      1.0  0.63791  0.43848  0.30883  1.0000
  C   C672      1.0  0.63241  0.46608  0.29805  1.0000
  C   C673      1.0  0.61786  0.45540  0.28585  1.0000
  C   C674      1.0  0.60870  0.41764  0.28453  1.0000
  H   H663      1.0  0.63277  0.37994  0.31596  1.0000
  H   H664      1.0  0.64923  0.44646  0.31829  1.0000
  H   H665      1.0  0.61362  0.47627  0.27746  1.0000
  H   H666      1.0  0.59734  0.40972  0.27508  1.0000
  C   C675      1.0  0.60403  0.31292  0.39214  1.0000
  C   C676      1.0  0.59743  0.32435  0.37829  1.0000
  C   C677      1.0  0.60541  0.30135  0.36758  1.0000
  C   C678      1.0  0.62046  0.26713  0.37072  1.0000
  C   C679      1.0  0.62722  0.25585  0.38457  1.0000
  C   C680      1.0  0.61882  0.27849  0.39527  1.0000
  H   H667      1.0  0.58602  0.35104  0.37584  1.0000
  H   H668      1.0  0.60016  0.31025  0.35693  1.0000
  H   H669      1.0  0.63884  0.22936  0.38704  1.0000
  H   H670      1.0  0.62396  0.26953  0.40593  1.0000
  C   C681      1.0  0.70258  0.18168  0.48168  1.0000
  C   C682      1.0  0.68870  0.14849  0.47826  1.0000
  C   C683      1.0  0.66571  0.15104  0.46884  1.0000
  C   C684      1.0  0.65642  0.18682  0.46297  1.0000
  C   C685      1.0  0.66994  0.22009  0.46668  1.0000
  C   C686      1.0  0.69312  0.21744  0.47590  1.0000
  H   H671      1.0  0.69564  0.12090  0.48283  1.0000
  H   H672      1.0  0.65518  0.12528  0.46603  1.0000
  H   H673      1.0  0.66289  0.24778  0.46221  1.0000
  H   H674      1.0  0.70383  0.24319  0.47850  1.0000
  C   C687      1.0  0.71195  0.43462  0.47437  1.0000
  C   C688      1.0  0.70093  0.42724  0.48674  1.0000
  C   C689      1.0  0.67846  0.40440  0.48688  1.0000
  C   C690      1.0  0.66677  0.38876  0.47465  1.0000
  C   C691      1.0  0.67800  0.39556  0.46228  1.0000
  C   C692      1.0  0.70055  0.41843  0.46216  1.0000
  H   H675      1.0  0.70952  0.43946  0.49620  1.0000
  H   H676      1.0  0.66977  0.39959  0.49647  1.0000
  H   H677      1.0  0.66917  0.38361  0.45280  1.0000
  H   H678      1.0  0.70903  0.42394  0.45254  1.0000
  Fe  Fe118     1.0  0.76767  0.04106  0.49287  1.0000
  H   H679      1.0  0.69937  0.30812  0.50717  1.0000
  C   C693      1.0  0.74284  0.15485  0.45757  1.0000
  C   C694      1.0  0.56577  0.13473  0.26760  1.0000
  H   H680      1.0  0.70469  0.22519  0.43955  1.0000
  C   C695      1.0  0.55425  0.11086  0.29364  1.0000
  N   N58       1.0  0.70949  0.10766  0.33419  1.0000
  H   H681      1.0  0.96941  0.41337  0.26171  1.0000
  C   C696      1.0  0.69333  0.17203  0.32755  1.0000
  C   C697      1.0  0.66486  0.04102  0.32052  1.0000
  C   C698      1.0  0.57143  0.47657  0.30831  1.0000
  C   C699      1.0  0.69380  0.10770  0.34493  1.0000
  H   H682      1.0  0.72161  0.13921  0.31696  1.0000
  H   H683      1.0  0.63735  0.16878  0.50124  1.0000
  H   H684      1.0  0.72827  0.08117  0.46957  1.0000
  C   C700      1.0  0.57366  0.51315  0.30234  1.0000
  C   C701      1.0  0.52759  0.27952  0.36567  1.0000
  C   C702      1.0  0.67748  0.05112  0.30884  1.0000
  C   C703      1.0  0.54971  0.22862  0.35402  1.0000
  C   C704      1.0  0.71174  0.19657  0.44326  1.0000
  H   H685      1.0  0.58124  0.47037  0.31857  1.0000
  H   H686      1.0  0.72979  0.07019  0.32116  1.0000
  C   C705      1.0  0.72731  0.07421  0.33227  1.0000
  H   H687      1.0  0.74583  0.21667  0.45584  1.0000
  H   H688      1.0  0.63596  0.05913  0.33425  1.0000
  H   H689      1.0  0.54980  0.10202  0.30389  1.0000
  C   C706      1.0  0.67740  0.13998  0.34719  1.0000
  C   C707      1.0  0.56005  0.23821  0.37841  1.0000
  C   C708      1.0  0.67723  0.17227  0.33843  1.0000
  H   H690      1.0  0.55174  0.28024  0.39935  1.0000
  C   C709      1.0  0.54630  0.45624  0.28802  1.0000
  H   H691      1.0  0.66460  0.13991  0.35555  1.0000
  H   H692      1.0  0.53586  0.43399  0.28228  1.0000
  H   H693      1.0  0.63284  0.28856  0.48913  1.0000
  H   H694      1.0  0.58962  0.14027  0.30128  1.0000
  H   H695      1.0  0.74720  0.07801  0.33795  1.0000
  C   C710      1.0  0.73674  0.08530  0.45955  1.0000
  H   H696      1.0  0.62728  0.45988  0.48181  1.0000
  C   C711      1.0  0.54357  0.11259  0.26933  1.0000
  N   N59       1.0  0.72854  0.12350  0.45358  1.0000
  H   H697      1.0  0.53761  0.41194  0.31392  1.0000
  H   H698      1.0  0.84793  0.19007  0.50538  1.0000
  H   H699      1.0  0.75886  0.08177  0.46134  1.0000
  C   C712      1.0  0.64157  0.48253  0.48330  1.0000
  N   N60       1.0  0.53798  0.10119  0.28225  1.0000
  H   H700      1.0  0.69358  0.10351  0.44216  1.0000
  S   S235      1.0  0.72983  0.06439  0.50068  1.0000
  H   H701      1.0  0.59985  0.16172  0.27801  1.0000
  H   H702      1.0  0.61237  0.22474  0.48917  1.0000
  C   C713      1.0  0.70954  0.13936  0.32560  1.0000
  H   H703      1.0  0.66672  0.32981  0.50253  1.0000
  H   H704      1.0  0.76016  0.15161  0.46511  1.0000
  H   H705      1.0  0.69344  0.08235  0.35160  1.0000
  H   H706      1.0  0.67831  0.16829  0.43291  1.0000
  C   C714      1.0  0.56190  0.52113  0.28898  1.0000
  H   H707      1.0  0.69267  0.19659  0.32042  1.0000
  C   C715      1.0  0.68250  0.23824  0.50775  1.0000
  H   H708      1.0  0.53929  0.49856  0.27128  1.0000
  C   C716      1.0  0.64361  0.26436  0.49460  1.0000
  C   C717      1.0  0.54816  0.49256  0.28174  1.0000
  H   H709      1.0  0.57941  0.19465  0.36685  1.0000
  H   H710      1.0  0.90175  0.47779  0.50532  1.0000
  C   C718      1.0  0.73481  0.19178  0.45238  1.0000
  H   H711      1.0  0.57184  0.23004  0.38801  1.0000
  C   C719      1.0  0.64623  0.49957  0.49613  1.0000
  C   C720      1.0  0.58248  0.14465  0.27915  1.0000
  C   C721      1.0  0.64589  0.06683  0.32526  1.0000
  N   N61       1.0  0.66863  0.26885  0.50104  1.0000
  H   H712      1.0  0.55285  0.21320  0.34468  1.0000
  H   H713      1.0  0.72993  0.06180  0.45263  1.0000
  H   H714      1.0  0.65294  0.47971  0.46265  1.0000
  S   S236      1.0  0.64308  0.51380  0.30057  1.0000
  C   C722      1.0  0.64587  0.19705  0.50146  1.0000
  H   H715      1.0  0.57332  0.40213  0.31459  1.0000
  H   H716      1.0  0.71896  0.04710  0.33602  1.0000
  H   H717      1.0  0.68604  0.31148  0.48928  1.0000
  H   H718      1.0  0.63533  0.49067  0.50467  1.0000
  H   H719      1.0  0.01651  0.43328  0.26631  1.0000
  N   N62       1.0  0.55799  0.44862  0.30112  1.0000
  H   H720      1.0  0.55236  0.38796  0.29998  1.0000
  C   C723      1.0  0.53757  0.29004  0.39037  1.0000
  H   H721      1.0  0.86583  0.11152  0.26781  1.0000
  H   H722      1.0  0.54091  0.32124  0.38872  1.0000
  C   C724      1.0  0.53120  0.25959  0.35357  1.0000
  C   C725      1.0  0.68093  0.30630  0.50002  1.0000
  C   C726      1.0  0.57673  0.13264  0.29226  1.0000
  C   C727      1.0  0.55503  0.41091  0.30775  1.0000
  C   C728      1.0  0.67124  0.20200  0.50817  1.0000
  H   H723      1.0  0.69196  0.03125  0.30502  1.0000
  C   C729      1.0  0.66510  0.52799  0.49794  1.0000
  H   H724      1.0  0.69323  0.50829  0.45605  1.0000
  N   N63       1.0  0.67508  0.52112  0.47444  1.0000
  H   H725      1.0  0.53042  0.10546  0.26031  1.0000
  H   H726      1.0  0.86640  0.53021  0.50226  1.0000
  Fe  Fe119     1.0  0.96203  0.25878  0.57052  1.0000
  S   S237      1.0  0.95497  0.32181  0.57423  1.0000
  S   S238      1.0  0.00244  0.22886  0.56927  1.0000
  Fe  Fe120     1.0  0.90337  0.24083  0.57214  1.0000
  S   S239      1.0  0.89206  0.30214  0.57639  1.0000
  S   S240      1.0  0.86998  0.19953  0.57244  1.0000
  Fe  Fe121     1.0  0.91767  0.31693  0.55963  1.0000
  S   S241      1.0  0.90341  0.35522  0.54105  1.0000
  Fe  Fe122     1.0  0.92994  0.30073  0.59059  1.0000
  S   S242      1.0  0.93076  0.32679  0.61168  1.0000
  S   S243      1.0  0.92692  0.25531  0.55449  1.0000
  S   S244      1.0  0.93907  0.23808  0.58773  1.0000
  Fe  Fe123     1.0  0.95308  0.23551  0.71558  1.0000
  S   S245      1.0  0.91215  0.26136  0.71766  1.0000
  H   H727      1.0  0.96903  0.40854  0.71147  1.0000
  Fe  Fe124     1.0  0.94394  0.23668  0.68417  1.0000
  S   S246      1.0  0.90249  0.26259  0.68389  1.0000
  S   S247      1.0  0.96061  0.21847  0.66452  1.0000
  Fe  Fe125     1.0  0.92038  0.30149  0.70034  1.0000
  S   S248      1.0  0.91608  0.36690  0.69852  1.0000
  Fe  Fe126     1.0  0.89839  0.21980  0.70115  1.0000
  S   S249      1.0  0.86220  0.18348  0.70300  1.0000
  S   S250      1.0  0.96245  0.27816  0.69929  1.0000
  S   S251      1.0  0.93880  0.19128  0.70040  1.0000
  C   C730      1.0  0.86378  0.05731  0.68953  1.0000
  H   H728      1.0  0.98518  0.30600  0.60452  1.0000
  C   C731      1.0  0.84250  0.07221  0.69629  1.0000
  S   S252      1.0  0.79867  0.46255  0.54044  1.0000
  H   H729      1.0  0.81033  0.18764  0.51998  1.0000
  H   H730      1.0  0.00869  0.19906  0.71367  1.0000
  C   C732      1.0  0.01210  0.25608  0.60549  1.0000
  C   C733      1.0  0.86231  0.13566  0.69701  1.0000
  C   C734      1.0  0.88325  0.12087  0.68999  1.0000
  C   C735      1.0  0.97852  0.38122  0.71607  1.0000
  C   C736      1.0  0.92864  0.14585  0.73130  1.0000
  C   C737      1.0  0.96032  0.40048  0.73749  1.0000
  C   C738      1.0  0.84174  0.11133  0.69997  1.0000
  H   H731      1.0  0.89903  0.13932  0.68751  1.0000
  H   H732      1.0  0.01085  0.31123  0.56770  1.0000
  H   H733      1.0  0.82541  0.12259  0.70535  1.0000
  C   C739      1.0  0.90817  0.39870  0.71166  1.0000
  C   C740      1.0  0.89827  0.38558  0.72377  1.0000
  C   C741      1.0  0.89330  0.41176  0.73419  1.0000
  C   C742      1.0  0.89874  0.45104  0.73274  1.0000
  C   C743      1.0  0.90831  0.46422  0.72055  1.0000
  C   C744      1.0  0.91279  0.43818  0.71002  1.0000
  H   H734      1.0  0.89442  0.35533  0.72510  1.0000
  H   H735      1.0  0.88571  0.40139  0.74356  1.0000
  H   H736      1.0  0.91242  0.49440  0.71927  1.0000
  H   H737      1.0  0.92020  0.44862  0.70062  1.0000
  C   C745      1.0  0.87286  0.38188  0.54085  1.0000
  C   C746      1.0  0.86133  0.38965  0.55305  1.0000
  C   C747      1.0  0.83809  0.41348  0.55269  1.0000
  C   C748      1.0  0.82627  0.42984  0.54018  1.0000
  C   C749      1.0  0.83739  0.42122  0.52793  1.0000
  C   C750      1.0  0.86056  0.39717  0.52827  1.0000
  H   H738      1.0  0.87070  0.37822  0.56281  1.0000
  H   H739      1.0  0.82953  0.41996  0.56221  1.0000
  C   C751      1.0  0.90331  0.13100  0.72873  1.0000
  C   C752      1.0  0.68846  0.06370  0.74360  1.0000
  C   C753      1.0  0.95316  0.24954  0.65007  1.0000
  C   C754      1.0  0.94204  0.28667  0.65133  1.0000
  C   C755      1.0  0.93573  0.31047  0.63951  1.0000
  C   C756      1.0  0.94006  0.29702  0.62639  1.0000
  C   C757      1.0  0.95112  0.25985  0.62519  1.0000
  C   C758      1.0  0.95781  0.23630  0.63698  1.0000
  H   H740      1.0  0.93847  0.29719  0.66141  1.0000
  H   H741      1.0  0.92720  0.33922  0.64055  1.0000
  H   H742      1.0  0.95458  0.24915  0.61522  1.0000
  H   H743      1.0  0.96638  0.20757  0.63596  1.0000
  C   C759      1.0  0.86409  0.17132  0.55771  1.0000
  C   C760      1.0  0.84004  0.15216  0.55554  1.0000
  C   C761      1.0  0.83445  0.13077  0.54357  1.0000
  C   C762      1.0  0.85299  0.12822  0.53377  1.0000
  C   C763      1.0  0.87735  0.14649  0.53615  1.0000
  C   C764      1.0  0.88281  0.16823  0.54803  1.0000
  H   H744      1.0  0.82560  0.15410  0.56306  1.0000
  H   H745      1.0  0.81583  0.11623  0.54196  1.0000
  H   H746      1.0  0.97077  0.13577  0.72995  1.0000
  H   H747      1.0  0.90162  0.18219  0.54975  1.0000
  Fe  Fe127     1.0  0.75215  0.05482  0.52161  1.0000
  S   S253      1.0  0.76823  0.11448  0.52230  1.0000
  H   H748      1.0  0.80888  0.23117  0.53977  1.0000
  H   H749      1.0  0.86930  0.39112  0.51878  1.0000
  H   H750      1.0  0.88095  0.08320  0.72110  1.0000
  N   N64       1.0  0.96790  0.37158  0.72917  1.0000
  N   N65       1.0  0.89189  0.20812  0.63633  1.0000
  C   C765      1.0  0.89282  0.18384  0.62546  1.0000
  C   C766      1.0  0.88532  0.24649  0.63404  1.0000
  C   C767      1.0  0.88738  0.19790  0.61186  1.0000
  C   C768      1.0  0.87993  0.26154  0.62058  1.0000
  C   C769      1.0  0.88093  0.23701  0.60945  1.0000
  C   C770      1.0  0.89712  0.19242  0.65046  1.0000
  H   H751      1.0  0.89788  0.15341  0.62728  1.0000
  H   H752      1.0  0.88482  0.26590  0.64263  1.0000
  H   H753      1.0  0.88817  0.17875  0.60320  1.0000
  H   H754      1.0  0.87568  0.29223  0.61879  1.0000
  H   H755      1.0  0.87682  0.24823  0.59896  1.0000
  H   H756      1.0  0.91533  0.17305  0.65144  1.0000
  H   H757      1.0  0.90103  0.21557  0.65804  1.0000
  N   N66       1.0  0.92282  0.07311  0.72015  1.0000
  H   H758      1.0  0.01290  0.18705  0.75784  1.0000
  S   S254      1.0  0.89520  0.48173  0.74682  1.0000
  H   H759      1.0  0.89184  0.14438  0.52865  1.0000
  H   H760      1.0  0.84212  0.26742  0.55724  1.0000
  H   H761      1.0  0.00048  0.38396  0.71769  1.0000
  H   H762      1.0  0.96105  0.43047  0.73422  1.0000
  H   H763      1.0  0.82517  0.30456  0.54585  1.0000
  N   N67       1.0  0.86461  0.51028  0.53632  1.0000
  C   C771      1.0  0.82487  0.23342  0.53311  1.0000
  H   H764      1.0  0.82836  0.43342  0.51822  1.0000
  H   H765      1.0  0.86084  0.30279  0.54907  1.0000
  H   H766      1.0  0.91322  0.44674  0.52855  1.0000
  C   C772      1.0  0.82550  0.20887  0.52192  1.0000
  C   C773      1.0  0.88392  0.08195  0.68625  1.0000
  H   H767      1.0  0.88927  0.46800  0.54821  1.0000
  H   H768      1.0  0.87978  0.17624  0.65338  1.0000
  C   C774      1.0  0.94798  0.35336  0.75406  1.0000
  H   H769      1.0  0.90033  0.07074  0.68092  1.0000
  H   H770      1.0  0.68273  0.17753  0.51308  1.0000
  C   C775      1.0  0.91995  0.03508  0.71398  1.0000
  C   C776      1.0  0.85846  0.52785  0.52365  1.0000
  H   H771      1.0  0.94296  0.41495  0.75625  1.0000
  C   C777      1.0  0.64665  0.07700  0.72976  1.0000
  N   N68       1.0  0.84451  0.25920  0.53586  1.0000
  C   C778      1.0  0.01887  0.18827  0.72335  1.0000
  C   C779      1.0  0.95104  0.12408  0.72820  1.0000
  C   C780      1.0  0.87170  0.51646  0.51233  1.0000
  C   C781      1.0  0.63605  0.09232  0.74130  1.0000
  C   C782      1.0  0.65204  0.09286  0.75386  1.0000
  C   C783      1.0  0.02138  0.18157  0.74823  1.0000
  H   H772      1.0  0.93087  0.17453  0.73541  1.0000
  C   C784      1.0  0.89158  0.48723  0.51407  1.0000
  C   C785      1.0  0.00587  0.29559  0.60518  1.0000
  C   C786      1.0  0.95642  0.32408  0.74568  1.0000
  C   C787      1.0  0.86516  0.26124  0.52771  1.0000
  C   C788      1.0  0.94773  0.08767  0.72249  1.0000
  C   C789      1.0  0.88446  0.48215  0.53819  1.0000
  C   C790      1.0  0.96659  0.33378  0.73325  1.0000
  Fe  Fe128     1.0  0.78215  0.49728  0.52141  1.0000
  S   S255      1.0  0.73118  0.03179  0.53937  1.0000
  C   C791      1.0  0.89817  0.47007  0.52710  1.0000
  C   C792      1.0  0.84306  0.28476  0.54758  1.0000
  C   C793      1.0  0.67304  0.06262  0.73088  1.0000
  H   H773      1.0  0.96520  0.07126  0.71985  1.0000
  H   H774      1.0  0.97314  0.31078  0.72684  1.0000
  Fe  Fe129     1.0  0.80306  0.08768  0.51285  1.0000
  C   C794      1.0  0.00802  0.19586  0.73574  1.0000
  H   H775      1.0  0.53861  0.35931  0.75027  1.0000
  H   H776      1.0  0.88566  0.14826  0.73062  1.0000
  H   H777      1.0  0.99632  0.23553  0.60479  1.0000
  H   H778      1.0  0.61536  0.10272  0.74069  1.0000
  S   S256      1.0  0.97774  0.22290  0.73592  1.0000
  H   H779      1.0  0.82685  0.05353  0.69886  1.0000
  H   H780      1.0  0.97379  0.35881  0.70831  1.0000
  H   H781      1.0  0.95491  0.29397  0.74867  1.0000
  C   C795      1.0  0.90077  0.09425  0.72321  1.0000
  C   C796      1.0  0.95017  0.39184  0.75004  1.0000
  S   S257      1.0  0.84555  0.10501  0.51802  1.0000
  C   C797      1.0  0.84666  0.21029  0.51369  1.0000
  H   H782      1.0  0.88078  0.28167  0.52989  1.0000
  H   H783      1.0  0.63429  0.07563  0.72003  1.0000
  H   H784      1.0  0.92496  0.03633  0.70311  1.0000
  N   N69       1.0  0.67791  0.07872  0.75488  1.0000
  H   H785      1.0  0.68140  0.04992  0.72206  1.0000
  H   H786      1.0  0.70879  0.05176  0.74446  1.0000
  H   H787      1.0  0.84894  0.49852  0.55551  1.0000
  H   H788      1.0  0.02147  0.35229  0.60522  1.0000
  C   C798      1.0  0.85075  0.52293  0.54812  1.0000
  C   C799      1.0  0.86663  0.23665  0.51657  1.0000
  S   S258      1.0  0.73884  0.49623  0.51302  1.0000
  H   H789      1.0  0.70278  0.24123  0.51238  1.0000
  H   H790      1.0  0.88336  0.23763  0.51035  1.0000
  S   S259      1.0  0.69260  0.40942  0.00191  1.0000
  S   S260      1.0  0.76359  0.43960  0.99090  1.0000
  H   H791      1.0  0.75122  0.19293  0.97206  1.0000
  C   C800      1.0  0.70521  0.16782  0.99365  1.0000
  C   C801      1.0  0.66767  0.51332  0.80564  1.0000
  H   H792      1.0  0.54131  0.42834  0.77428  1.0000
  Fe  Fe130     1.0  0.63883  0.26847  0.94708  1.0000
  S   S261      1.0  0.64339  0.20946  0.93830  1.0000
  S   S262      1.0  0.67694  0.30060  0.95074  1.0000
  Fe  Fe131     1.0  0.57880  0.26169  0.94866  1.0000
  S   S263      1.0  0.57921  0.20176  0.94062  1.0000
  S   S264      1.0  0.54105  0.29441  0.95336  1.0000
  Fe  Fe132     1.0  0.61722  0.19179  0.95452  1.0000
  S   S265      1.0  0.62479  0.14070  0.96931  1.0000
  Fe  Fe133     1.0  0.60520  0.22540  0.92522  1.0000
  S   S266      1.0  0.59365  0.21086  0.90298  1.0000
  S   S267      1.0  0.61461  0.25004  0.96402  1.0000
  S   S268      1.0  0.60296  0.28617  0.93251  1.0000
  Fe  Fe134     1.0  0.62753  0.35339  0.80747  1.0000
  S   S269      1.0  0.59519  0.36145  0.82151  1.0000
  S   S270      1.0  0.64674  0.40362  0.79746  1.0000
  Fe  Fe135     1.0  0.62788  0.26446  0.81043  1.0000
  S   S271      1.0  0.59562  0.26629  0.82487  1.0000
  S   S272      1.0  0.65145  0.20892  0.80672  1.0000
  Fe  Fe136     1.0  0.57624  0.31232  0.81015  1.0000
  H   H793      1.0  0.67424  0.13345  0.80281  1.0000
  Fe  Fe137     1.0  0.61755  0.31520  0.83484  1.0000
  S   S273      1.0  0.62911  0.32529  0.85741  1.0000
  S   S274      1.0  0.60695  0.30715  0.79492  1.0000
  S   S275      1.0  0.65141  0.31050  0.82153  1.0000
  H   H794      1.0  0.65206  0.44876  0.98022  1.0000
  C   C802      1.0  0.65053  0.44831  0.80566  1.0000
  C   C803      1.0  0.66435  0.47733  0.79942  1.0000
  C   C804      1.0  0.68823  0.21984  0.97874  1.0000
  Fe  Fe138     1.0  0.73081  0.44163  0.00495  1.0000
  C   C805      1.0  0.64246  0.49202  0.82412  1.0000
  C   C806      1.0  0.64002  0.45555  0.81818  1.0000
  H   H795      1.0  0.67263  0.47190  0.78976  1.0000
  C   C807      1.0  0.69421  0.41663  0.94931  1.0000
  C   C808      1.0  0.71203  0.48369  0.84141  1.0000
  H   H796      1.0  0.62984  0.43322  0.82325  1.0000
  C   C809      1.0  0.63739  0.16733  0.79915  1.0000
  C   C810      1.0  0.65360  0.13363  0.79852  1.0000
  C   C811      1.0  0.64325  0.10012  0.79243  1.0000
  C   C812      1.0  0.61663  0.10017  0.78677  1.0000
  C   C813      1.0  0.60041  0.13377  0.78749  1.0000
  C   C814      1.0  0.61068  0.16717  0.79369  1.0000
  H   H797      1.0  0.66262  0.23322  0.83462  1.0000
  H   H798      1.0  0.73760  0.42496  0.79401  1.0000
  H   H799      1.0  0.57979  0.13405  0.78315  1.0000
  H   H800      1.0  0.59800  0.19287  0.79412  1.0000
  C   C815      1.0  0.60177  0.24473  0.89052  1.0000
  C   C816      1.0  0.59172  0.24098  0.87669  1.0000
  C   C817      1.0  0.59940  0.26618  0.86643  1.0000
  C   C818      1.0  0.61714  0.29527  0.87001  1.0000
  C   C819      1.0  0.62673  0.29944  0.88389  1.0000
  C   C820      1.0  0.61910  0.27421  0.89413  1.0000
  H   H801      1.0  0.57821  0.21827  0.87385  1.0000
  H   H802      1.0  0.59187  0.26284  0.85577  1.0000
  H   H803      1.0  0.64048  0.32188  0.88669  1.0000
  H   H804      1.0  0.62712  0.27714  0.90475  1.0000
  C   C821      1.0  0.70863  0.08331  0.97592  1.0000
  C   C822      1.0  0.70187  0.10875  0.96465  1.0000
  C   C823      1.0  0.67620  0.12637  0.96249  1.0000
  C   C824      1.0  0.65692  0.11805  0.97144  1.0000
  C   C825      1.0  0.66352  0.09195  0.98254  1.0000
  C   C826      1.0  0.68937  0.07483  0.98486  1.0000
  H   H805      1.0  0.71668  0.11540  0.95769  1.0000
  H   H806      1.0  0.67133  0.14618  0.95387  1.0000
  H   H807      1.0  0.64866  0.08519  0.98947  1.0000
  H   H808      1.0  0.70076  0.46352  0.84745  1.0000
  C   C827      1.0  0.68917  0.37605  0.98855  1.0000
  C   C828      1.0  0.66407  0.36093  0.98487  1.0000
  C   C829      1.0  0.66022  0.33677  0.97350  1.0000
  C   C830      1.0  0.68154  0.32756  0.96580  1.0000
  C   C831      1.0  0.70683  0.34159  0.96975  1.0000
  C   C832      1.0  0.71064  0.36582  0.98109  1.0000
  H   H809      1.0  0.64741  0.36863  0.99065  1.0000
  H   H810      1.0  0.64061  0.32623  0.97048  1.0000
  H   H811      1.0  0.72341  0.33441  0.96386  1.0000
  H   H812      1.0  0.73012  0.37682  0.98395  1.0000
  H   H813      1.0  0.64220  0.17923  0.88979  1.0000
  C   C833      1.0  0.65696  0.21626  0.86869  1.0000
  C   C834      1.0  0.67654  0.42971  0.95860  1.0000
  C   C835      1.0  0.56819  0.45448  0.80567  1.0000
  C   C836      1.0  0.72510  0.46440  0.95763  1.0000
  H   H814      1.0  0.55891  0.37245  0.78916  1.0000
  H   H815      1.0  0.67236  0.24067  0.97521  1.0000
  H   H816      1.0  0.63375  0.49775  0.83365  1.0000
  H   H817      1.0  0.63820  0.17251  0.83309  1.0000
  C   C837      1.0  0.70695  0.47671  0.96680  1.0000
  C   C838      1.0  0.73277  0.19356  0.97698  1.0000
  H   H818      1.0  0.71444  0.24072  0.96420  1.0000
  C   C839      1.0  0.69366  0.07702  0.76835  1.0000
  C   C840      1.0  0.63683  0.16689  0.85522  1.0000
  C   C841      1.0  0.59076  0.49189  0.78904  1.0000
  H   H819      1.0  0.62604  0.14040  0.85449  1.0000
  H   H820      1.0  0.61445  0.15986  0.87979  1.0000
  H   H821      1.0  0.66173  0.22941  0.87860  1.0000
  C   C842      1.0  0.73277  0.43645  0.80379  1.0000
  H   H822      1.0  0.67367  0.26244  0.85746  1.0000
  H   H823      1.0  0.65107  0.49617  0.97193  1.0000
  N   N70       1.0  0.64361  0.18259  0.86780  1.0000
  C   C843      1.0  0.63644  0.16286  0.88032  1.0000
  C   C844      1.0  0.66389  0.23506  0.85678  1.0000
  C   C845      1.0  0.65731  0.21902  0.84394  1.0000
  H   H824      1.0  0.74407  0.47831  0.95741  1.0000
  C   C846      1.0  0.73708  0.48522  0.82109  1.0000
  N   N71       1.0  0.56653  0.48215  0.79540  1.0000
  H   H825      1.0  0.68906  0.05049  0.77411  1.0000
  S   S276      1.0  0.74167  0.06428  0.97888  1.0000
  H   H826      1.0  0.67510  0.48330  0.98652  1.0000
  H   H827      1.0  0.58609  0.50860  0.77920  1.0000
  C   C847      1.0  0.70845  0.43335  0.82395  1.0000
  H   H828      1.0  0.66116  0.21219  0.00463  1.0000
  C   C848      1.0  0.71496  0.41766  0.81152  1.0000
  N   N72       1.0  0.68486  0.19340  0.98900  1.0000
  H   H829      1.0  0.65581  0.07428  0.79211  1.0000
  H   H830      1.0  0.54462  0.30096  0.92357  1.0000
  H   H831      1.0  0.69436  0.05509  0.99354  1.0000
  H   H832      1.0  0.64653  0.13385  0.88150  1.0000
  C   C849      1.0  0.66434  0.47264  0.97690  1.0000
  C   C850      1.0  0.53762  0.37891  0.78764  1.0000
  H   H833      1.0  0.68916  0.39249  0.94274  1.0000
  H   H834      1.0  0.75781  0.48551  0.80269  1.0000
  C   C851      1.0  0.71872  0.43399  0.94891  1.0000
  H   H835      1.0  0.74580  0.51174  0.82468  1.0000
  H   H836      1.0  0.70550  0.39181  0.80769  1.0000
  H   H837      1.0  0.64269  0.20409  0.98811  1.0000
  H   H838      1.0  0.65775  0.41554  0.95903  1.0000
  H   H839      1.0  0.53901  0.30476  0.76731  1.0000
  H   H840      1.0  0.73278  0.42381  0.94189  1.0000
  C   C852      1.0  0.64362  0.18481  0.84311  1.0000
  H   H841      1.0  0.70256  0.14673  0.00174  1.0000
  Fe  Fe139     1.0  0.76321  0.50386  0.99298  1.0000
  N   N73       1.0  0.68323  0.45896  0.96735  1.0000
  H   H842      1.0  0.69392  0.41915  0.82964  1.0000
  C   C853      1.0  0.74398  0.47041  0.80860  1.0000
  C   C854      1.0  0.71213  0.22014  0.97251  1.0000
  C   C855      1.0  0.72943  0.16742  0.98769  1.0000
  C   C856      1.0  0.54548  0.44454  0.81199  1.0000
  H   H843      1.0  0.69915  0.51010  0.83897  1.0000
  S   S277      1.0  0.53190  0.31456  0.80382  1.0000
  N   N74       1.0  0.71955  0.46670  0.82859  1.0000
  H   H844      1.0  0.68910  0.10266  0.77451  1.0000
  H   H845      1.0  0.73011  0.49172  0.84804  1.0000
  H   H846      1.0  0.71208  0.50038  0.97354  1.0000
  C   C857      1.0  0.65975  0.19355  0.99548  1.0000
  H   H847      1.0  0.74511  0.14602  0.99106  1.0000
  S   S278      1.0  0.72816  0.50628  0.00559  1.0000
  H   H848      1.0  0.65494  0.16381  0.99864  1.0000
  S   S279      1.0  0.60304  0.05971  0.77818  1.0000
  H   H849      1.0  0.55824  0.27789  0.90920  1.0000
  H   H850      1.0  0.53782  0.21845  0.90715  1.0000
  H   H851      1.0  0.54672  0.42165  0.81981  1.0000
  H   H852      1.0  0.58706  0.43934  0.80878  1.0000
  H   H853      1.0  0.93948  0.34628  0.76358  1.0000
  C   C858      1.0  0.65634  0.52100  0.81791  1.0000
  H   H854      1.0  0.53765  0.32090  0.90623  1.0000
  C   C859      1.0  0.54043  0.29376  0.91252  1.0000
  H   H855      1.0  0.60216  0.46517  0.78662  1.0000
  H   H856      1.0  0.71545  0.07616  0.76724  1.0000
  C   C860      1.0  0.54265  0.50108  0.79132  1.0000
  H   H857      1.0  0.85183  0.28275  0.00950  1.0000
  C   C861      1.0  0.52764  0.41045  0.77920  1.0000
  H   H858      1.0  0.60377  0.50916  0.79625  1.0000
  H   H859      1.0  0.54111  0.52266  0.78304  1.0000
  H   H860      1.0  0.64340  0.10386  0.76285  1.0000
  H   H861      1.0  0.52593  0.21824  0.94439  1.0000
  S   S280      1.0  0.79704  0.03073  0.00649  1.0000
  H   H862      1.0  0.62460  0.64896  0.04923  1.0000
  H   H863      1.0  0.52627  0.74406  0.24179  1.0000
  H   H864      1.0  0.78244  0.85611  0.01933  1.0000
  Fe  Fe140     1.0  0.65726  0.73689  0.09166  1.0000
  S   S281      1.0  0.69403  0.75693  0.10416  1.0000
  S   S282      1.0  0.61722  0.74195  0.10042  1.0000
  Fe  Fe141     1.0  0.68882  0.70586  0.06913  1.0000
  S   S283      1.0  0.72797  0.72262  0.07966  1.0000
  S   S284      1.0  0.68537  0.67976  0.04810  1.0000
  Fe  Fe142     1.0  0.71280  0.70012  0.09910  1.0000
  S   S285      1.0  0.74156  0.66246  0.11326  1.0000
  Fe  Fe143     1.0  0.70630  0.77799  0.08381  1.0000
  S   S286      1.0  0.73076  0.83088  0.08226  1.0000
  S   S287      1.0  0.67528  0.67814  0.08812  1.0000
  S   S288      1.0  0.66790  0.76315  0.07172  1.0000
  H   H865      1.0  0.70718  0.75902  0.04373  1.0000
  S   S289      1.0  0.70884  0.93552  0.02795  1.0000
  S   S290      1.0  0.78359  0.97050  0.03112  1.0000
  C   C862      1.0  0.53819  0.74075  0.07297  1.0000
  H   H866      1.0  0.72841  0.75097  0.24210  1.0000
  S   S291      1.0  0.94337  0.96215  0.23807  1.0000
  H   H867      1.0  0.75017  0.77330  0.05706  1.0000
  C   C863      1.0  0.92889  0.74265  0.22508  1.0000
  S   S292      1.0  0.87896  0.96948  0.23063  1.0000
  Fe  Fe144     1.0  0.90912  0.92201  0.23660  1.0000
  S   S293      1.0  0.90963  0.86812  0.22400  1.0000
  H   H868      1.0  0.53389  0.64814  0.08270  1.0000
  H   H869      1.0  0.80974  0.53185  0.21506  1.0000
  H   H870      1.0  0.54825  0.68026  0.22306  1.0000
  Fe  Fe145     1.0  0.78994  0.61731  0.21666  1.0000
  S   S294      1.0  0.83320  0.62453  0.22341  1.0000
  S   S295      1.0  0.76941  0.57664  0.23011  1.0000
  Fe  Fe146     1.0  0.79063  0.67242  0.19184  1.0000
  S   S296      1.0  0.83427  0.68375  0.19669  1.0000
  S   S297      1.0  0.76345  0.70714  0.17592  1.0000
  Fe  Fe147     1.0  0.83869  0.61940  0.20097  1.0000
  S   S298      1.0  0.87093  0.58076  0.19313  1.0000
  Fe  Fe148     1.0  0.82463  0.68758  0.21873  1.0000
  S   S299      1.0  0.83529  0.73074  0.23536  1.0000
  S   S300      1.0  0.79571  0.60795  0.19439  1.0000
  S   S301      1.0  0.78081  0.68054  0.21366  1.0000
  C   C864      1.0  0.88526  0.83401  0.22634  1.0000
  C   C865      1.0  0.87968  0.80664  0.21616  1.0000
  C   C866      1.0  0.86315  0.77588  0.21852  1.0000
  C   C867      1.0  0.85251  0.77202  0.23119  1.0000
  C   C868      1.0  0.85732  0.80013  0.24121  1.0000
  C   C869      1.0  0.87347  0.83127  0.23875  1.0000
  H   H871      1.0  0.88869  0.80870  0.20653  1.0000
  H   H872      1.0  0.85949  0.75443  0.21073  1.0000
  H   H873      1.0  0.53431  0.64960  0.05728  1.0000
  H   H874      1.0  0.87773  0.85213  0.24666  1.0000
  C   C870      1.0  0.68545  0.61741  0.23850  1.0000
  C   C871      1.0  0.75931  0.65344  0.25653  1.0000
  C   C872      1.0  0.72404  0.57374  0.24346  1.0000
  C   C873      1.0  0.73669  0.59143  0.23289  1.0000
  C   C874      1.0  0.72353  0.62168  0.22501  1.0000
  C   C875      1.0  0.69789  0.63447  0.22776  1.0000
  H   H875      1.0  0.84916  0.79717  0.25104  1.0000
  H   H876      1.0  0.73297  0.63506  0.21672  1.0000
  H   H877      1.0  0.68776  0.65789  0.22161  1.0000
  C   C876      1.0  0.74550  0.67196  0.13105  1.0000
  C   C877      1.0  0.72958  0.70013  0.13671  1.0000
  C   C878      1.0  0.73463  0.70944  0.15067  1.0000
  C   C879      1.0  0.75566  0.69078  0.15905  1.0000
  C   C880      1.0  0.77112  0.66177  0.15352  1.0000
  C   C881      1.0  0.76601  0.65238  0.13954  1.0000
  H   H878      1.0  0.71357  0.71510  0.13032  1.0000
  H   H879      1.0  0.72252  0.73175  0.15493  1.0000
  H   H880      1.0  0.78736  0.64724  0.15991  1.0000
  H   H881      1.0  0.77830  0.63039  0.13523  1.0000
  C   C882      1.0  0.72347  0.86172  0.06767  1.0000
  C   C883      1.0  0.70038  0.85788  0.05869  1.0000
  C   C884      1.0  0.69568  0.88162  0.04678  1.0000
  C   C885      1.0  0.71416  0.90905  0.04369  1.0000
  C   C886      1.0  0.73701  0.91339  0.05280  1.0000
  C   C887      1.0  0.74161  0.88986  0.06478  1.0000
  H   H882      1.0  0.68611  0.83667  0.06090  1.0000
  H   H883      1.0  0.67784  0.87834  0.03983  1.0000
  H   H884      1.0  0.75110  0.93495  0.05068  1.0000
  H   H885      1.0  0.75938  0.89328  0.07176  1.0000
  C   C888      1.0  0.74007  0.57288  0.04476  1.0000
  C   C889      1.0  0.72385  0.58733  0.03319  1.0000
  C   C890      1.0  0.70711  0.62021  0.03428  1.0000
  C   C891      1.0  0.70655  0.63876  0.04691  1.0000
  C   C892      1.0  0.72284  0.62442  0.05846  1.0000
  C   C893      1.0  0.73959  0.59160  0.05736  1.0000
  S   S302      1.0  0.90625  0.01825  0.25645  1.0000
  H   H886      1.0  0.69452  0.63122  0.02533  1.0000
  H   H887      1.0  0.72248  0.63845  0.06826  1.0000
  H   H888      1.0  0.75208  0.58059  0.06635  1.0000
  H   H889      1.0  0.77926  0.88321  0.03483  1.0000
  C   C894      1.0  0.69846  0.58688  0.24633  1.0000
  C   C895      1.0  0.54471  0.65049  0.24242  1.0000
  H   H890      1.0  0.63245  0.68646  0.06126  1.0000
  H   H891      1.0  0.56607  0.64769  0.24511  1.0000
  H   H892      1.0  0.77570  0.73343  0.23906  1.0000
  C   C896      1.0  0.56273  0.74476  0.09558  1.0000
  C   C897      1.0  0.58703  0.74468  0.08959  1.0000
  C   C898      1.0  0.58677  0.74427  0.07522  1.0000
  C   C899      1.0  0.56241  0.74214  0.06694  1.0000
  H   H893      1.0  0.56234  0.74072  0.05585  1.0000
  H   H894      1.0  0.56285  0.74529  0.10669  1.0000
  H   H895      1.0  0.60536  0.74470  0.07051  1.0000
  Fe  Fe149     1.0  0.91229  0.01046  0.23412  1.0000
  C   C900      1.0  0.94547  0.81647  0.25189  1.0000
  H   H896      1.0  0.69213  0.79760  0.02242  1.0000
  H   H897      1.0  0.93195  0.73756  0.21438  1.0000
  H   H898      1.0  0.72415  0.57321  0.02343  1.0000
  C   C901      1.0  0.87878  0.53530  0.20128  1.0000
  C   C902      1.0  0.60078  0.65127  0.08049  1.0000
  H   H899      1.0  0.95069  0.79473  0.22597  1.0000
  C   C903      1.0  0.76804  0.86898  0.02606  1.0000
  C   C904      1.0  0.55277  0.64786  0.07817  1.0000
  C   C905      1.0  0.91953  0.75826  0.25205  1.0000
  H   H900      1.0  0.57727  0.65286  0.04699  1.0000
  H   H901      1.0  0.72031  0.84924  0.01456  1.0000
  C   C906      1.0  0.57678  0.64916  0.08657  1.0000
  H   H902      1.0  0.69198  0.73880  0.25896  1.0000
  N   N75       1.0  0.75104  0.83928  0.03104  1.0000
  C   C907      1.0  0.91311  0.71821  0.23211  1.0000
  C   C908      1.0  0.75946  0.81820  0.04278  1.0000
  C   C909      1.0  0.71964  0.78125  0.04007  1.0000
  C   C910      1.0  0.90835  0.72602  0.24567  1.0000
  H   H903      1.0  0.78297  0.71319  0.10378  1.0000
  H   H904      1.0  0.83430  0.89425  0.25226  1.0000
  Fe  Fe150     1.0  0.74127  0.97343  0.02144  1.0000
  S   S303      1.0  0.90277  0.92281  0.25907  1.0000
  N   N76       1.0  0.93490  0.78215  0.24507  1.0000
  C   C911      1.0  0.62614  0.65618  0.06034  1.0000
  H   H905      1.0  0.77801  0.82453  0.04877  1.0000
  C   C912      1.0  0.55302  0.64860  0.06386  1.0000
  H   H906      1.0  0.68885  0.57350  0.25458  1.0000
  H   H907      1.0  0.73417  0.55022  0.24955  1.0000
  H   H908      1.0  0.75586  0.89216  0.02012  1.0000
  C   C913      1.0  0.74386  0.78904  0.04750  1.0000
  S   S304      1.0  0.65430  0.63647  0.24222  1.0000
  H   H909      1.0  0.61920  0.65398  0.08710  1.0000
  C   C914      1.0  0.53834  0.74296  0.08730  1.0000
  C   C915      1.0  0.72730  0.83186  0.02367  1.0000
  N   N77       1.0  0.60087  0.65180  0.06643  1.0000
  H   H910      1.0  0.81024  0.85706  0.25009  1.0000
  C   C916      1.0  0.53459  0.66888  0.22991  1.0000
  H   H911      1.0  0.92879  0.83698  0.25370  1.0000
  H   H912      1.0  0.79791  0.69448  0.11990  1.0000
  C   C917      1.0  0.76379  0.71407  0.24462  1.0000
  C   C918      1.0  0.57738  0.65079  0.05812  1.0000
  C   C919      1.0  0.71124  0.80280  0.02808  1.0000
  S   S305      1.0  0.83220  0.98089  0.25778  1.0000
  C   C920      1.0  0.81457  0.88495  0.25508  1.0000
  C   C921      1.0  0.69397  0.70971  0.25455  1.0000
  C   C922      1.0  0.93954  0.77485  0.23173  1.0000
  N   N78       1.0  0.77985  0.75087  0.12062  1.0000
  C   C923      1.0  0.76369  0.77774  0.11310  1.0000
  C   C924      1.0  0.78318  0.75234  0.13472  1.0000
  C   C925      1.0  0.74964  0.80628  0.11969  1.0000
  C   C926      1.0  0.76937  0.78041  0.14167  1.0000
  C   C927      1.0  0.75235  0.80735  0.13408  1.0000
  C   C928      1.0  0.79461  0.72145  0.11350  1.0000
  H   H913      1.0  0.76128  0.77696  0.10192  1.0000
  H   H914      1.0  0.79584  0.73092  0.14073  1.0000
  H   H915      1.0  0.73648  0.82706  0.11363  1.0000
  H   H916      1.0  0.77124  0.78031  0.15288  1.0000
  H   H917      1.0  0.74111  0.82880  0.13934  1.0000
  H   H918      1.0  0.81413  0.73238  0.11112  1.0000
  C   C929      1.0  0.73285  0.66438  0.25834  1.0000
  C   C930      1.0  0.73713  0.72381  0.24640  1.0000
  H   H919      1.0  0.90381  0.69402  0.22691  1.0000
  N   N79       1.0  0.72207  0.69914  0.25324  1.0000
  H   H920      1.0  0.85777  0.54663  0.21909  1.0000
  H   H921      1.0  0.64214  0.63675  0.06563  1.0000
  H   H922      1.0  0.68237  0.70944  0.24423  1.0000
  C   C931      1.0  0.77483  0.67850  0.24963  1.0000
  H   H923      1.0  0.89526  0.70798  0.25101  1.0000
  H   H924      1.0  0.57679  0.65044  0.09769  1.0000
  H   H925      1.0  0.79521  0.67008  0.24787  1.0000
  Fe  Fe151     1.0  0.87508  0.97388  0.25323  1.0000
  C   C932      1.0  0.52723  0.63600  0.25142  1.0000
  S   S306      1.0  0.76123  0.53169  0.04380  1.0000
  H   H926      1.0  0.95889  0.83211  0.24546  1.0000
  H   H927      1.0  0.79965  0.90757  0.25082  1.0000
  H   H928      1.0  0.76740  0.62511  0.26001  1.0000
  C   C933      1.0  0.00038  0.75255  0.41328  1.0000
  S   S307      1.0  0.75325  0.56338  0.49070  1.0000
  S   S308      1.0  0.82892  0.59815  0.49678  1.0000
  Fe  Fe152     1.0  0.90081  0.78409  0.44300  1.0000
  S   S309      1.0  0.86613  0.76030  0.42983  1.0000
  S   S310      1.0  0.94114  0.75218  0.44459  1.0000
  Fe  Fe153     1.0  0.86711  0.85288  0.45150  1.0000
  S   S311      1.0  0.83031  0.83501  0.43890  1.0000
  S   S312      1.0  0.86905  0.90675  0.46411  1.0000
  Fe  Fe154     1.0  0.84217  0.77545  0.44751  1.0000
  S   S313      1.0  0.80825  0.74317  0.45561  1.0000
  Fe  Fe155     1.0  0.85746  0.82175  0.42253  1.0000
  S   S314      1.0  0.85217  0.84452  0.40045  1.0000
  S   S315      1.0  0.87746  0.79442  0.46124  1.0000
  S   S316      1.0  0.89375  0.84434  0.43455  1.0000
  H   H929      1.0  0.81128  0.87371  0.30959  1.0000
  S   S317      1.0  0.76323  0.00006  0.47519  1.0000
  H   H930      1.0  0.00796  0.94007  0.29914  1.0000
  Fe  Fe156     1.0  0.58402  0.61517  0.27276  1.0000
  S   S318      1.0  0.60180  0.60853  0.29475  1.0000
  C   C934      1.0  0.72140  0.72855  0.32238  1.0000
  Fe  Fe157     1.0  0.93479  0.96656  0.26022  1.0000
  S   S319      1.0  0.66074  0.61264  0.28312  1.0000
  C   C935      1.0  0.69950  0.71567  0.32869  1.0000
  Fe  Fe158     1.0  0.62967  0.65464  0.28965  1.0000
  S   S320      1.0  0.63667  0.70275  0.30485  1.0000
  C   C936      1.0  0.78093  0.92261  0.40769  1.0000
  H   H931      1.0  0.76981  0.86822  0.29376  1.0000
  Fe  Fe159     1.0  0.73815  0.89110  0.34400  1.0000
  S   S321      1.0  0.69913  0.89129  0.33074  1.0000
  S   S322      1.0  0.74013  0.85979  0.36469  1.0000
  Fe  Fe160     1.0  0.76453  0.93796  0.32266  1.0000
  S   S323      1.0  0.72760  0.94238  0.30771  1.0000
  S   S324      1.0  0.80479  0.96137  0.31950  1.0000
  Fe  Fe161     1.0  0.70612  0.95404  0.32654  1.0000
  C   C937      1.0  0.00346  0.86147  0.27141  1.0000
  Fe  Fe162     1.0  0.72383  0.87948  0.31319  1.0000
  S   S325      1.0  0.71915  0.83338  0.29707  1.0000
  S   S326      1.0  0.74350  0.95446  0.34115  1.0000
  S   S327      1.0  0.76241  0.87440  0.32682  1.0000
  S   S328      1.0  0.67303  0.99780  0.33010  1.0000
  C   C938      1.0  0.81213  0.96947  0.30240  1.0000
  C   C939      1.0  0.83872  0.97388  0.29962  1.0000
  C   C940      1.0  0.84520  0.97781  0.28594  1.0000
  C   C941      1.0  0.82496  0.97808  0.27504  1.0000
  C   C942      1.0  0.79835  0.97477  0.27784  1.0000
  C   C943      1.0  0.79196  0.97019  0.29147  1.0000
  H   H932      1.0  0.85440  0.97344  0.30805  1.0000
  H   H933      1.0  0.86580  0.98045  0.28385  1.0000
  C   C944      1.0  0.78884  0.87188  0.28961  1.0000
  H   H934      1.0  0.77144  0.96722  0.29350  1.0000
  H   H935      1.0  0.73272  0.80909  0.34090  1.0000
  C   C945      1.0  0.65783  0.74048  0.30145  1.0000
  C   C946      1.0  0.65745  0.77352  0.30952  1.0000
  C   C947      1.0  0.67580  0.80254  0.30806  1.0000
  C   C948      1.0  0.69465  0.79877  0.29848  1.0000
  C   C949      1.0  0.69468  0.76611  0.29018  1.0000
  C   C950      1.0  0.67632  0.73699  0.29166  1.0000
  H   H936      1.0  0.64314  0.77639  0.31709  1.0000
  H   H937      1.0  0.67542  0.82769  0.31440  1.0000
  H   H938      1.0  0.70932  0.76300  0.28280  1.0000
  H   H939      1.0  0.67684  0.71142  0.28551  1.0000
  C   C951      1.0  0.82115  0.84516  0.39035  1.0000
  C   C952      1.0  0.81960  0.85988  0.37674  1.0000
  C   C953      1.0  0.79488  0.86401  0.36872  1.0000
  C   C954      1.0  0.77159  0.85294  0.37421  1.0000
  C   C955      1.0  0.77319  0.83728  0.38770  1.0000
  C   C956      1.0  0.79791  0.83351  0.39578  1.0000
  H   H940      1.0  0.83755  0.86882  0.37248  1.0000
  H   H941      1.0  0.79386  0.87603  0.35834  1.0000
  H   H942      1.0  0.75522  0.82854  0.39198  1.0000
  H   H943      1.0  0.79896  0.82199  0.40623  1.0000
  C   C957      1.0  0.83963  0.93400  0.46628  1.0000
  C   C958      1.0  0.84095  0.96529  0.47518  1.0000
  C   C959      1.0  0.81760  0.98588  0.47793  1.0000
  C   C960      1.0  0.79286  0.97576  0.47154  1.0000
  C   C961      1.0  0.79157  0.94515  0.46235  1.0000
  C   C962      1.0  0.81489  0.92409  0.45981  1.0000
  H   H944      1.0  0.86007  0.97324  0.48016  1.0000
  H   H945      1.0  0.83344  0.78460  0.47881  1.0000
  H   H946      1.0  0.77243  0.93714  0.45743  1.0000
  H   H947      1.0  0.81357  0.89977  0.45313  1.0000
  C   C963      1.0  0.82298  0.63812  0.48517  1.0000
  C   C964      1.0  0.84458  0.65952  0.48161  1.0000
  C   C965      1.0  0.84042  0.69157  0.47244  1.0000
  C   C966      1.0  0.81455  0.70264  0.46689  1.0000
  C   C967      1.0  0.79293  0.68155  0.47060  1.0000
  C   C968      1.0  0.79712  0.64930  0.47963  1.0000
  H   H948      1.0  0.86466  0.65106  0.48582  1.0000
  H   H949      1.0  0.85725  0.70752  0.46963  1.0000
  H   H950      1.0  0.77289  0.68987  0.46629  1.0000
  H   H951      1.0  0.78034  0.63306  0.48224  1.0000
  C   C969      1.0  0.98764  0.92261  0.27990  1.0000
  N   N80       1.0  0.83569  0.87249  0.49329  1.0000
  Fe  Fe163     1.0  0.79489  0.56022  0.50105  1.0000
  H   H952      1.0  0.77075  0.87117  0.48058  1.0000
  C   C970      1.0  0.99415  0.83802  0.44745  1.0000
  C   C971      1.0  0.97019  0.81822  0.44682  1.0000
  C   C972      1.0  0.97080  0.77795  0.44648  1.0000
  C   C973      1.0  0.99553  0.75764  0.44705  1.0000
  H   H953      1.0  0.80879  0.94991  0.37878  1.0000
  H   H954      1.0  0.99353  0.86920  0.44762  1.0000
  H   H955      1.0  0.95129  0.83412  0.44656  1.0000
  H   H956      1.0  0.99612  0.72646  0.44688  1.0000
  H   H957      1.0  0.67898  0.55688  0.45687  1.0000
  N   N81       1.0  0.82809  0.93091  0.41258  1.0000
  H   H958      1.0  0.81877  0.00959  0.48500  1.0000
  C   C974      1.0  0.85226  0.92997  0.42229  1.0000
  H   H959      1.0  0.78636  0.80656  0.47295  1.0000
  H   H960      1.0  0.85929  0.95961  0.42397  1.0000
  H   H961      1.0  0.84888  0.91714  0.43251  1.0000
  H   H962      1.0  0.86830  0.91210  0.41813  1.0000
  S   S329      1.0  0.61130  0.56977  0.26494  1.0000
  H   H963      1.0  0.70545  0.78956  0.36404  1.0000
  H   H964      1.0  0.76205  0.91404  0.41107  1.0000
  C   C975      1.0  0.67927  0.53869  0.48688  1.0000
  C   C976      1.0  0.78258  0.93326  0.39391  1.0000
  C   C977      1.0  0.72328  0.78286  0.33749  1.0000
  H   H965      1.0  0.68945  0.69009  0.32503  1.0000
  C   C978      1.0  0.80400  0.92179  0.41696  1.0000
  H   H966      1.0  0.00260  0.83991  0.26353  1.0000
  H   H967      1.0  0.84911  0.94735  0.39553  1.0000
  H   H968      1.0  0.00307  0.87331  0.40370  1.0000
  H   H969      1.0  0.69373  0.56101  0.48838  1.0000
  C   C979      1.0  0.73343  0.76234  0.32680  1.0000
  C   C980      1.0  0.80715  0.94297  0.38958  1.0000
  H   H970      1.0  0.80259  0.91314  0.42761  1.0000
  H   H971      1.0  0.85574  0.88882  0.27459  1.0000
  C   C981      1.0  0.02416  0.88550  0.29285  1.0000
  C   C982      1.0  0.00478  0.86004  0.41423  1.0000
  C   C983      1.0  0.80945  0.88440  0.49054  1.0000
  H   H972      1.0  0.86521  0.82790  0.49119  1.0000
  C   C984      1.0  0.99339  0.79177  0.41406  1.0000
  C   C985      1.0  0.68968  0.73715  0.33924  1.0000
  C   C986      1.0  0.98590  0.89404  0.26996  1.0000
  C   C987      1.0  0.00664  0.91811  0.29140  1.0000
  H   H973      1.0  0.71024  0.54219  0.46672  1.0000
  C   C988      1.0  0.82987  0.94139  0.39909  1.0000
  H   H974      1.0  0.75005  0.77317  0.32174  1.0000
  H   H975      1.0  0.67130  0.78360  0.35696  1.0000
  C   C989      1.0  0.83637  0.88009  0.29302  1.0000
  C   C990      1.0  0.01883  0.81777  0.44758  1.0000
  H   H976      1.0  0.76916  0.68686  0.50260  1.0000
  H   H977      1.0  0.98537  0.73112  0.41408  1.0000
  H   H978      1.0  0.87215  0.90163  0.49467  1.0000
  H   H979      1.0  0.78262  0.97516  0.26944  1.0000
  C   C991      1.0  0.80000  0.82495  0.47887  1.0000
  Fe  Fe164     1.0  0.63123  0.56654  0.28668  1.0000
  H   H980      1.0  0.68931  0.82393  0.35157  1.0000
  Fe  Fe165     1.0  0.63804  0.61940  0.26210  1.0000
  H   H981      1.0  0.84589  0.92640  0.50248  1.0000
  H   H982      1.0  0.85441  0.88345  0.29987  1.0000
  C   C992      1.0  0.68996  0.53291  0.46292  1.0000
  C   C993      1.0  0.84434  0.83713  0.48918  1.0000
  C   C994      1.0  0.82657  0.81268  0.48207  1.0000
  H   H983      1.0  0.67222  0.72736  0.34380  1.0000
  C   C995      1.0  0.69128  0.79278  0.35456  1.0000
  S   S330      1.0  0.96753  0.96525  0.27775  1.0000
  H   H984      1.0  0.72853  0.71294  0.31384  1.0000
  H   H985      1.0  0.98548  0.86447  0.41875  1.0000
  N   N82       1.0  0.81395  0.88104  0.27007  1.0000
  N   N83       1.0  0.70147  0.77045  0.34343  1.0000
  H   H986      1.0  0.76504  0.93264  0.38649  1.0000
  C   C996      1.0  0.81213  0.87460  0.29849  1.0000
  S   S331      1.0  0.60911  0.66499  0.26842  1.0000
  H   H987      1.0  0.68464  0.68896  0.26131  1.0000
  S   S332      1.0  0.53922  0.61563  0.26767  1.0000
  C   C997      1.0  0.85483  0.89732  0.50077  1.0000
  C   C998      1.0  0.79128  0.86100  0.48317  1.0000
  H   H988      1.0  0.80257  0.91263  0.49364  1.0000
  H   H989      1.0  0.77185  0.87361  0.26854  1.0000
  C   C999      1.0  0.02277  0.85728  0.28278  1.0000
  N   N84       1.0  0.01236  0.81896  0.41364  1.0000
  C   C1000     1.0  0.01949  0.77747  0.44754  1.0000
  C   C1001     1.0  0.83694  0.88324  0.27870  1.0000
  C   C1002     1.0  0.79013  0.87510  0.27534  1.0000
  H   H990      1.0  0.97283  0.80012  0.41542  1.0000
  H   H991      1.0  0.58520  0.53473  0.30790  1.0000
  H   H992      1.0  0.95697  0.80837  0.26192  1.0000
  H   H993      1.0  0.72076  0.64435  0.26347  1.0000
  H   H994      1.0  0.97145  0.89752  0.26102  1.0000
  H   H995      1.0  0.01998  0.87519  0.42097  1.0000
  H   H996      1.0  0.56368  0.54924  0.28416  1.0000
  H   H997      1.0  0.91527  0.76463  0.26249  1.0000
  H   H998      1.0  0.53308  0.71160  0.26316  1.0000
  H   H999      1.0  0.66888  0.54165  0.50785  1.0000
  H   H1000     1.0  0.75154  0.64770  0.50960  1.0000
  Fe  Fe166     1.0  0.94068  0.61018  0.74982  1.0000
  S   S333      1.0  0.91799  0.58482  0.73124  1.0000
  C   C1003     1.0  0.76916  0.95102  0.63488  1.0000
  C   C1004     1.0  0.81911  0.76433  0.66373  1.0000
  S   S334      1.0  0.86578  0.58817  0.74911  1.0000
  H   H1001     1.0  0.82994  0.53331  0.54474  1.0000
  Fe  Fe167     1.0  0.88530  0.62854  0.73514  1.0000
  S   S335      1.0  0.85831  0.66372  0.71904  1.0000
  C   C1005     1.0  0.76832  0.69672  0.54868  1.0000
  C   C1006     1.0  0.87622  0.79156  0.68863  1.0000
  Fe  Fe168     1.0  0.83670  0.96207  0.68836  1.0000
  S   S336      1.0  0.79891  0.95543  0.67435  1.0000
  C   C1007     1.0  0.74693  0.86304  0.71873  1.0000
  Fe  Fe169     1.0  0.83070  0.88426  0.70331  1.0000
  S   S337      1.0  0.79277  0.87166  0.69056  1.0000
  S   S338      1.0  0.85016  0.84658  0.72094  1.0000
  Fe  Fe170     1.0  0.81282  0.89373  0.67254  1.0000
  S   S339      1.0  0.81385  0.86167  0.65253  1.0000
  Fe  Fe171     1.0  0.78196  0.93417  0.69361  1.0000
  S   S340      1.0  0.73944  0.94837  0.69786  1.0000
  S   S341      1.0  0.85198  0.90150  0.68511  1.0000
  S   S342      1.0  0.81866  0.94543  0.70777  1.0000
  H   H1002     1.0  0.83127  0.66400  0.74525  1.0000
  Fe  Fe172     1.0  0.71293  0.82637  0.56453  1.0000
  S   S343      1.0  0.73252  0.79012  0.58220  1.0000
  S   S344      1.0  0.73710  0.85086  0.54839  1.0000
  Fe  Fe173     1.0  0.65653  0.80764  0.57109  1.0000
  S   S345      1.0  0.67164  0.76881  0.58911  1.0000
  S   S346      1.0  0.61414  0.82675  0.56333  1.0000
  Fe  Fe174     1.0  0.70076  0.81532  0.59441  1.0000
  S   S347      1.0  0.70472  0.84007  0.61586  1.0000
  Fe  Fe175     1.0  0.70205  0.74693  0.57523  1.0000
  S   S348      1.0  0.71812  0.68560  0.57366  1.0000
  S   S349      1.0  0.68369  0.85569  0.57717  1.0000
  S   S350      1.0  0.68448  0.78193  0.55679  1.0000
  C   C1008     1.0  0.85261  0.72539  0.67865  1.0000
  H   H1003     1.0  0.75195  0.94585  0.64095  1.0000
  H   H1004     1.0  0.88223  0.69400  0.69256  1.0000
  N   N85       1.0  0.76541  0.93341  0.62129  1.0000
  H   H1005     1.0  0.84331  0.69929  0.67503  1.0000
  H   H1006     1.0  0.69066  0.95410  0.71072  1.0000
  C   C1009     1.0  0.73720  0.90129  0.54665  1.0000
  C   C1010     1.0  0.72648  0.92514  0.55631  1.0000
  C   C1011     1.0  0.72557  0.96536  0.55424  1.0000
  C   C1012     1.0  0.73499  0.98176  0.54244  1.0000
  C   C1013     1.0  0.74593  0.95786  0.53288  1.0000
  C   C1014     1.0  0.74721  0.91773  0.53504  1.0000
  H   H1007     1.0  0.71868  0.91268  0.56527  1.0000
  H   H1008     1.0  0.71708  0.98380  0.56166  1.0000
  H   H1009     1.0  0.70394  0.86452  0.71729  1.0000
  C   C1015     1.0  0.83214  0.68180  0.75465  1.0000
  C   C1016     1.0  0.70973  0.62500  0.53215  1.0000
  C   C1017     1.0  0.72675  0.60939  0.54322  1.0000
  C   C1018     1.0  0.72848  0.62760  0.55603  1.0000
  C   C1019     1.0  0.71365  0.66190  0.55777  1.0000
  C   C1020     1.0  0.69660  0.67740  0.54669  1.0000
  C   C1021     1.0  0.69455  0.65888  0.53394  1.0000
  H   H1010     1.0  0.73823  0.58295  0.54200  1.0000
  H   H1011     1.0  0.74156  0.61530  0.56459  1.0000
  H   H1012     1.0  0.68470  0.70331  0.54798  1.0000
  H   H1013     1.0  0.68114  0.67086  0.52546  1.0000
  C   C1022     1.0  0.78332  0.85221  0.64299  1.0000
  C   C1023     1.0  0.75896  0.86344  0.64775  1.0000
  C   C1024     1.0  0.73497  0.85835  0.63946  1.0000
  C   C1025     1.0  0.73512  0.84181  0.62643  1.0000
  C   C1026     1.0  0.75945  0.82952  0.62183  1.0000
  C   C1027     1.0  0.78349  0.83468  0.63012  1.0000
  H   H1014     1.0  0.75860  0.87680  0.65768  1.0000
  H   H1015     1.0  0.71618  0.86780  0.64308  1.0000
  H   H1016     1.0  0.75974  0.81670  0.61181  1.0000
  H   H1017     1.0  0.80230  0.82581  0.62640  1.0000
  C   C1028     1.0  0.73324  0.95885  0.71490  1.0000
  C   C1029     1.0  0.75412  0.96546  0.72501  1.0000
  C   C1030     1.0  0.74877  0.97191  0.73868  1.0000
  C   C1031     1.0  0.72256  0.97117  0.74233  1.0000
  C   C1032     1.0  0.70158  0.96496  0.73223  1.0000
  C   C1033     1.0  0.70691  0.95921  0.71851  1.0000
  H   H1018     1.0  0.77438  0.96579  0.72231  1.0000
  H   H1019     1.0  0.55137  0.76865  0.74126  1.0000
  H   H1020     1.0  0.68127  0.96434  0.73496  1.0000
  Fe  Fe176     1.0  0.62025  0.93873  0.75281  1.0000
  H   H1021     1.0  0.77146  0.98256  0.63367  1.0000
  C   C1034     1.0  0.85472  0.71435  0.72043  1.0000
  C   C1035     1.0  0.83461  0.73490  0.71196  1.0000
  C   C1036     1.0  0.83281  0.77552  0.71200  1.0000
  C   C1037     1.0  0.85091  0.79573  0.72068  1.0000
  C   C1038     1.0  0.87033  0.77511  0.72948  1.0000
  C   C1039     1.0  0.87239  0.73467  0.72927  1.0000
  H   H1022     1.0  0.82075  0.71937  0.70514  1.0000
  H   H1023     1.0  0.81758  0.79113  0.70528  1.0000
  H   H1024     1.0  0.88432  0.79056  0.73626  1.0000
  H   H1025     1.0  0.88811  0.71943  0.73571  1.0000
  H   H1026     1.0  0.76503  0.97704  0.74644  1.0000
  C   C1040     1.0  0.56518  0.90643  0.73286  1.0000
  S   S351      1.0  0.70720  0.60294  0.51595  1.0000
  C   C1041     1.0  0.73635  0.91460  0.60172  1.0000
  H   H1027     1.0  0.70195  0.87562  0.74217  1.0000
  C   C1042     1.0  0.56071  0.81530  0.56454  1.0000
  C   C1043     1.0  0.58690  0.80134  0.56861  1.0000
  C   C1044     1.0  0.59085  0.76743  0.57665  1.0000
  C   C1045     1.0  0.56876  0.74748  0.58048  1.0000
  H   H1028     1.0  0.66964  0.99504  0.53927  1.0000
  H   H1029     1.0  0.55750  0.84151  0.55832  1.0000
  H   H1030     1.0  0.61090  0.75632  0.57980  1.0000
  H   H1031     1.0  0.57201  0.72102  0.58657  1.0000
  H   H1032     1.0  0.80913  0.73650  0.66218  1.0000
  C   C1046     1.0  0.64075  0.91599  0.55161  1.0000
  H   H1033     1.0  0.78338  0.64814  0.53809  1.0000
  H   H1034     1.0  0.53963  0.74185  0.61022  1.0000
  S   S352      1.0  0.59977  0.91336  0.73358  1.0000
  C   C1047     1.0  0.76865  0.87296  0.74149  1.0000
  H   H1035     1.0  0.75562  0.88880  0.58513  1.0000
  C   C1048     1.0  0.75364  0.73165  0.54731  1.0000
  S   S353      1.0  0.90964  0.65658  0.75232  1.0000
  H   H1036     1.0  0.56343  0.88072  0.71284  1.0000
  C   C1049     1.0  0.54259  0.76133  0.57637  1.0000
  H   H1037     1.0  0.77502  0.68500  0.55891  1.0000
  H   H1038     1.0  0.74931  0.74734  0.55642  1.0000
  H   H1039     1.0  0.78969  0.86457  0.72337  1.0000
  C   C1050     1.0  0.74363  0.74546  0.53422  1.0000
  C   C1051     1.0  0.74856  0.72403  0.52263  1.0000
  C   C1052     1.0  0.78406  0.90540  0.60178  1.0000
  N   N86       1.0  0.76343  0.69012  0.52405  1.0000
  C   C1053     1.0  0.58403  0.82793  0.75477  1.0000
  S   S354      1.0  0.78875  0.02709  0.51385  1.0000
  H   H1040     1.0  0.84612  0.82177  0.67496  1.0000
  N   N87       1.0  0.66882  0.89903  0.53387  1.0000
  C   C1054     1.0  0.65174  0.88848  0.54327  1.0000
  C   C1055     1.0  0.67464  0.93694  0.53214  1.0000
  H   H1041     1.0  0.84310  0.55066  0.52218  1.0000
  H   H1042     1.0  0.82891  0.71232  0.75105  1.0000
  H   H1043     1.0  0.68814  0.94544  0.52468  1.0000
  C   C1056     1.0  0.67990  0.86968  0.52519  1.0000
  H   H1044     1.0  0.64668  0.85854  0.54444  1.0000
  H   H1045     1.0  0.63904  0.97608  0.55673  1.0000
  H   H1046     1.0  0.59792  0.82143  0.74719  1.0000
  H   H1047     1.0  0.78693  0.87614  0.74816  1.0000
  C   C1057     1.0  0.53860  0.79545  0.56844  1.0000
  C   C1058     1.0  0.87485  0.72215  0.68846  1.0000
  C   C1059     1.0  0.75842  0.90187  0.59519  1.0000
  H   H1048     1.0  0.71627  0.91093  0.59691  1.0000
  C   C1060     1.0  0.66409  0.96523  0.54034  1.0000
  H   H1049     1.0  0.55922  0.80965  0.73079  1.0000
  N   N88       1.0  0.74432  0.87623  0.74664  1.0000
  H   H1050     1.0  0.74778  0.85935  0.70774  1.0000
  H   H1051     1.0  0.75554  0.89937  0.52755  1.0000
  C   C1061     1.0  0.77283  0.67599  0.53689  1.0000
  H   H1052     1.0  0.73182  0.77232  0.53315  1.0000
  C   C1062     1.0  0.72128  0.87244  0.73818  1.0000
  C   C1063     1.0  0.72224  0.86592  0.72410  1.0000
  H   H1053     1.0  0.80134  0.89526  0.59685  1.0000
  C   C1064     1.0  0.77035  0.86634  0.72747  1.0000
  H   H1054     1.0  0.74026  0.73451  0.51250  1.0000
  S   S355      1.0  0.98451  0.62288  0.75052  1.0000
  H   H1055     1.0  0.68399  0.84197  0.53108  1.0000
  C   C1065     1.0  0.64714  0.95456  0.55019  1.0000
  C   C1066     1.0  0.55229  0.88847  0.72141  1.0000
  S   S356      1.0  0.86734  0.00777  0.68585  1.0000
  C   C1067     1.0  0.74022  0.93050  0.61482  1.0000
  H   H1056     1.0  0.82525  0.77468  0.65366  1.0000
  C   C1068     1.0  0.85412  0.79370  0.67872  1.0000
  H   H1057     1.0  0.78718  0.93823  0.64109  1.0000
  C   C1069     1.0  0.88656  0.75550  0.69354  1.0000
  C   C1070     1.0  0.54828  0.80028  0.73959  1.0000
  C   C1071     1.0  0.55062  0.91671  0.74383  1.0000
  H   H1058     1.0  0.88475  0.81771  0.69276  1.0000
  N   N89       1.0  0.84242  0.76091  0.67400  1.0000
  H   H1059     1.0  0.86168  0.54634  0.55349  1.0000
  H   H1060     1.0  0.90310  0.75338  0.70157  1.0000
  H   H1061     1.0  0.66562  0.86496  0.51602  1.0000
  H   H1062     1.0  0.80407  0.78558  0.66706  1.0000
  H   H1063     1.0  0.80718  0.92350  0.62007  1.0000
  H   H1064     1.0  0.56023  0.93100  0.75261  1.0000
  H   H1065     1.0  0.72285  0.93923  0.61996  1.0000
  C   C1072     1.0  0.78722  0.92145  0.61490  1.0000
  H   H1066     1.0  0.75297  0.97024  0.52369  1.0000
  S   S357      1.0  0.78217  0.56198  0.52247  1.0000
  S   S358      1.0  0.63890  0.99643  0.75286  1.0000
  H   H1067     1.0  0.81109  0.61260  0.75699  1.0000
  Fe  Fe177     1.0  0.74058  0.56075  0.51215  1.0000
  H   H1068     1.0  0.62749  0.90719  0.55918  1.0000
  Fe  Fe178     1.0  0.90056  0.54674  0.74681  1.0000
  H   H1069     1.0  0.93329  0.01317  0.71989  1.0000
  H   H1070     1.0  0.01100  0.75077  0.75689  1.0000
  H   H1071     1.0  0.53884  0.78143  0.62193  1.0000
  H   H1072     1.0  0.86207  0.88394  0.51096  1.0000
  H   H1073     1.0  0.69934  0.87834  0.52179  1.0000
  N   N90       1.0  0.55755  0.82029  0.75218  1.0000
  H   H1074     1.0  0.89914  0.02511  0.71378  1.0000
  H   H1075     1.0  0.78727  0.65065  0.51330  1.0000
  C   C1073     1.0  0.76803  0.66776  0.51181  1.0000
  S   S359      1.0  0.71655  0.97765  0.75962  1.0000
  C   C1074     1.0  0.52520  0.87953  0.72116  1.0000
  H   H1076     1.0  0.52668  0.80688  0.73654  1.0000
  C   C1075     1.0  0.52629  0.76261  0.61512  1.0000
  H   H1077     1.0  0.85245  0.67806  0.76017  1.0000
  H   H1078     1.0  0.80535  0.73691  0.97982  1.0000
  H   H1079     1.0  0.82669  0.61839  0.00901  1.0000
  H   H1080     1.0  0.81742  0.53344  0.79112  1.0000
  Fe  Fe179     1.0  0.88984  0.76035  0.94260  1.0000
  S   S360      1.0  0.85395  0.78695  0.92987  1.0000
  S   S361      1.0  0.92748  0.79414  0.94248  1.0000
  Fe  Fe180     1.0  0.85869  0.69127  0.95102  1.0000
  S   S362      1.0  0.82092  0.71198  0.93852  1.0000
  S   S363      1.0  0.86271  0.63833  0.96506  1.0000
  Fe  Fe181     1.0  0.84754  0.72713  0.92211  1.0000
  S   S364      1.0  0.84410  0.71717  0.89903  1.0000
  Fe  Fe182     1.0  0.83092  0.76960  0.94750  1.0000
  S   S365      1.0  0.79772  0.80441  0.95617  1.0000
  S   S366      1.0  0.88484  0.70152  0.93394  1.0000
  S   S367      1.0  0.86725  0.74807  0.96091  1.0000
  C   C1076     1.0  0.53998  0.82929  0.76163  1.0000
  H   H1081     1.0  0.90826  0.80326  0.91331  1.0000
  S   S368      1.0  0.76021  0.54462  0.97456  1.0000
  S   S369      1.0  0.87705  0.64014  0.78488  1.0000
  C   C1077     1.0  0.78835  0.98602  0.96964  1.0000
  S   S370      1.0  0.60319  0.94748  0.77297  1.0000
  C   C1078     1.0  0.78938  0.56816  0.97121  1.0000
  H   H1082     1.0  0.69356  0.71906  0.85691  1.0000
  S   S371      1.0  0.66204  0.97602  0.78536  1.0000
  Fe  Fe183     1.0  0.64184  0.91943  0.78239  1.0000
  S   S372      1.0  0.63939  0.87105  0.79810  1.0000
  C   C1079     1.0  0.90645  0.78102  0.90524  1.0000
  H   H1083     1.0  0.83039  0.91844  0.95868  1.0000
  C   C1080     1.0  0.80331  0.69665  0.77292  1.0000
  Fe  Fe184     1.0  0.73376  0.64607  0.84369  1.0000
  S   S373      1.0  0.69521  0.66477  0.83135  1.0000
  S   S374      1.0  0.73717  0.66412  0.86600  1.0000
  Fe  Fe185     1.0  0.75301  0.60113  0.81966  1.0000
  S   S375      1.0  0.71602  0.61630  0.80565  1.0000
  S   S376      1.0  0.78196  0.55986  0.81072  1.0000
  Fe  Fe186     1.0  0.72063  0.67589  0.81406  1.0000
  S   S377      1.0  0.72277  0.72851  0.80009  1.0000
  Fe  Fe187     1.0  0.69431  0.60336  0.82418  1.0000
  H   H1084     1.0  0.78897  0.71309  0.96522  1.0000
  S   S378      1.0  0.75936  0.66144  0.82690  1.0000
  S   S379      1.0  0.73106  0.58414  0.83772  1.0000
  C   C1081     1.0  0.66240  0.83129  0.79838  1.0000
  C   C1082     1.0  0.68449  0.83192  0.79070  1.0000
  C   C1083     1.0  0.70267  0.80006  0.79124  1.0000
  C   C1084     1.0  0.69889  0.76729  0.79942  1.0000
  C   C1085     1.0  0.67668  0.76647  0.80701  1.0000
  C   C1086     1.0  0.65859  0.79848  0.80655  1.0000
  H   H1085     1.0  0.68778  0.85717  0.78451  1.0000
  H   H1086     1.0  0.71983  0.80089  0.78537  1.0000
  H   H1087     1.0  0.67335  0.74119  0.81320  1.0000
  H   H1088     1.0  0.64148  0.79777  0.81247  1.0000
  C   C1087     1.0  0.85142  0.61661  0.79228  1.0000
  C   C1088     1.0  0.83790  0.63563  0.80225  1.0000
  C   C1089     1.0  0.81677  0.61816  0.80805  1.0000
  C   C1090     1.0  0.80921  0.58140  0.80401  1.0000
  C   C1091     1.0  0.82308  0.56200  0.79422  1.0000
  C   C1092     1.0  0.84402  0.57973  0.78826  1.0000
  H   H1089     1.0  0.84373  0.66401  0.80546  1.0000
  H   H1090     1.0  0.80659  0.63298  0.81577  1.0000
  H   H1091     1.0  0.76299  0.75855  0.82489  1.0000
  C   C1093     1.0  0.81461  0.70025  0.89023  1.0000
  C   C1094     1.0  0.79086  0.69887  0.89654  1.0000
  C   C1095     1.0  0.76743  0.68689  0.88905  1.0000
  C   C1096     1.0  0.76759  0.67590  0.87525  1.0000
  C   C1097     1.0  0.79142  0.67680  0.86897  1.0000
  C   C1098     1.0  0.81481  0.68918  0.87643  1.0000
  H   H1092     1.0  0.79048  0.70739  0.90715  1.0000
  H   H1093     1.0  0.74905  0.68626  0.89397  1.0000
  H   H1094     1.0  0.79175  0.66845  0.85834  1.0000
  H   H1095     1.0  0.83315  0.69011  0.87149  1.0000
  C   C1099     1.0  0.80597  0.83483  0.97012  1.0000
  C   C1100     1.0  0.83254  0.84199  0.97458  1.0000
  C   C1101     1.0  0.83842  0.86861  0.98505  1.0000
  C   C1102     1.0  0.81781  0.88852  0.99102  1.0000
  C   C1103     1.0  0.79126  0.88057  0.98680  1.0000
  C   C1104     1.0  0.78538  0.85372  0.97642  1.0000
  H   H1096     1.0  0.84858  0.82766  0.96978  1.0000
  H   H1097     1.0  0.85903  0.87437  0.98833  1.0000
  H   H1098     1.0  0.77523  0.89523  0.99142  1.0000
  H   H1099     1.0  0.76478  0.84822  0.97304  1.0000
  C   C1105     1.0  0.02399  0.65884  0.76601  1.0000
  C   C1106     1.0  0.00771  0.77485  0.94504  1.0000
  C   C1107     1.0  0.83641  0.58015  0.97659  1.0000
  C   C1108     1.0  0.83468  0.61020  0.96666  1.0000
  C   C1109     1.0  0.81039  0.61843  0.95875  1.0000
  C   C1110     1.0  0.78781  0.59743  0.96101  1.0000
  H   H1100     1.0  0.02375  0.56144  0.76730  1.0000
  H   H1101     1.0  0.85522  0.57343  0.98266  1.0000
  H   H1102     1.0  0.80891  0.64099  0.95091  1.0000
  H   H1103     1.0  0.76902  0.60422  0.95494  1.0000
  H   H1104     1.0  0.68934  0.76872  0.86177  1.0000
  C   C1111     1.0  0.76398  0.94126  0.95507  1.0000
  C   C1112     1.0  0.98132  0.65779  0.77548  1.0000
  H   H1105     1.0  0.99068  0.68273  0.95133  1.0000
  H   H1106     1.0  0.96056  0.65018  0.77468  1.0000
  H   H1107     1.0  0.79753  0.76579  0.84477  1.0000
  Fe  Fe188     1.0  0.75360  0.02995  0.99862  1.0000
  C   C1113     1.0  0.83695  0.97907  0.97493  1.0000
  C   C1114     1.0  0.98202  0.79265  0.94381  1.0000
  C   C1115     1.0  0.95938  0.77092  0.94516  1.0000
  C   C1116     1.0  0.96259  0.73123  0.94790  1.0000
  C   C1117     1.0  0.98833  0.71345  0.94922  1.0000
  H   H1108     1.0  0.68166  0.75566  0.84413  1.0000
  H   H1109     1.0  0.97967  0.82338  0.94171  1.0000
  H   H1110     1.0  0.94526  0.71422  0.94895  1.0000
  N   N91       1.0  0.72338  0.75579  0.85104  1.0000
  C   C1118     1.0  0.74215  0.75976  0.86199  1.0000
  C   C1119     1.0  0.73072  0.75542  0.83787  1.0000
  C   C1120     1.0  0.76901  0.76401  0.85990  1.0000
  C   C1121     1.0  0.75738  0.75953  0.83538  1.0000
  C   C1122     1.0  0.77665  0.76367  0.84649  1.0000
  C   C1123     1.0  0.69558  0.74957  0.85356  1.0000
  H   H1111     1.0  0.73659  0.75799  0.87248  1.0000
  H   H1112     1.0  0.71604  0.75130  0.82919  1.0000
  H   H1113     1.0  0.78393  0.76586  0.86867  1.0000
  C   C1124     1.0  0.78434  0.62267  0.77253  1.0000
  H   H1114     1.0  0.90134  0.70465  0.90346  1.0000
  Fe  Fe189     1.0  0.62491  0.00326  0.77395  1.0000
  S   S380      1.0  0.75198  0.96558  0.99976  1.0000
  C   C1125     1.0  0.77472  0.64934  0.78156  1.0000
  N   N92       1.0  0.81213  0.67061  0.76384  1.0000
  C   C1126     1.0  0.76412  0.97388  0.96322  1.0000
  C   C1127     1.0  0.81187  0.93448  0.95987  1.0000
  H   H1115     1.0  0.85110  0.95422  0.97784  1.0000
  C   C1128     1.0  0.78802  0.92157  0.95327  1.0000
  S   S381      1.0  0.82601  0.92433  0.00317  1.0000
  H   H1116     1.0  0.74528  0.93110  0.95025  1.0000
  N   N93       1.0  0.92749  0.75080  0.90803  1.0000
  Fe  Fe190     1.0  0.67460  0.96586  0.76414  1.0000
  C   C1129     1.0  0.54879  0.84671  0.77401  1.0000
  H   H1117     1.0  0.82345  0.70230  0.97027  1.0000
  H   H1118     1.0  0.98341  0.67189  0.91568  1.0000
  C   C1130     1.0  0.81096  0.63217  0.00201  1.0000
  H   H1119     1.0  0.98025  0.68208  0.79565  1.0000
  Fe  Fe191     1.0  0.89217  0.61377  0.76607  1.0000
  C   C1131     1.0  0.99254  0.67562  0.78739  1.0000
  C   C1132     1.0  0.94160  0.68382  0.90929  1.0000
  H   H1120     1.0  0.95772  0.79110  0.91304  1.0000
  H   H1121     1.0  0.99390  0.74102  0.91753  1.0000
  C   C1133     1.0  0.77160  0.66631  0.98335  1.0000
  C   C1134     1.0  0.01961  0.68458  0.78872  1.0000
  H   H1122     1.0  0.58302  0.86769  0.78634  1.0000
  H   H1123     1.0  0.93668  0.65372  0.90851  1.0000
  H   H1124     1.0  0.83737  0.67040  0.99288  1.0000
  H   H1125     1.0  0.84618  0.99935  0.96801  1.0000
  H   H1126     1.0  0.75015  0.85703  0.76760  1.0000
  C   C1135     1.0  0.78426  0.68656  0.78181  1.0000
  C   C1136     1.0  0.01095  0.73515  0.94771  1.0000
  H   H1127     1.0  0.99235  0.57811  0.78327  1.0000
  H   H1128     1.0  0.83370  0.99355  0.98476  1.0000
  C   C1137     1.0  0.81382  0.55919  0.97888  1.0000
  C   C1138     1.0  0.96777  0.69399  0.91325  1.0000
  C   C1139     1.0  0.78488  0.61964  0.00166  1.0000
  H   H1129     1.0  0.81115  0.72532  0.77339  1.0000
  S   S382      1.0  0.65814  0.56677  0.82547  1.0000
  H   H1130     1.0  0.78012  0.59615  0.00843  1.0000
  C   C1140     1.0  0.57580  0.85429  0.77677  1.0000
  C   C1141     1.0  0.97369  0.73282  0.91427  1.0000
  C   C1142     1.0  0.92165  0.71281  0.90653  1.0000
  S   S383      1.0  0.92551  0.56954  0.76518  1.0000
  H   H1131     1.0  0.78823  0.01141  0.97596  1.0000
  H   H1132     1.0  0.75615  0.67905  0.97595  1.0000
  C   C1143     1.0  0.76504  0.63674  0.99227  1.0000
  C   C1144     1.0  0.99715  0.64885  0.76486  1.0000
  H   H1133     1.0  0.97803  0.79917  0.77807  1.0000
  H   H1134     1.0  0.85455  0.56476  0.78064  1.0000
  H   H1135     1.0  0.78815  0.89567  0.94717  1.0000
  C   C1145     1.0  0.95316  0.76102  0.91167  1.0000
  N   N94       1.0  0.79730  0.67813  0.98367  1.0000
  H   H1136     1.0  0.76047  0.64085  0.78864  1.0000
  H   H1137     1.0  0.97973  0.74888  0.77359  1.0000
  C   C1146     1.0  0.81686  0.66165  0.99289  1.0000
  H   H1138     1.0  0.98935  0.76219  0.79092  1.0000
  C   C1147     1.0  0.80400  0.70918  0.97433  1.0000
  N   N95       1.0  0.01726  0.77620  0.77667  1.0000
  H   H1139     1.0  0.90787  0.79472  0.89496  1.0000
  H   H1140     1.0  0.88625  0.76924  0.90541  1.0000
  H   H1141     1.0  0.77715  0.70716  0.78900  1.0000
  N   N96       1.0  0.81173  0.96591  0.96814  1.0000
  H   H1142     1.0  0.74489  0.62635  0.99166  1.0000
  C   C1148     1.0  0.74318  0.88326  0.76138  1.0000
  H   H1143     1.0  0.67832  0.53550  0.80075  1.0000
  H   H1144     1.0  0.74558  0.98961  0.96470  1.0000
  C   C1149     1.0  0.98970  0.77150  0.77993  1.0000
  C   C1150     1.0  0.00803  0.57632  0.79217  1.0000
  H   H1145     1.0  0.77778  0.59323  0.77267  1.0000
  H   H1146     1.0  0.00301  0.59959  0.79929  1.0000
  Fe  Fe192     1.0  0.79413  0.96653  0.00927  1.0000
  H   H1147     1.0  0.81533  0.53627  0.98661  1.0000
  C   C1151     1.0  0.59355  0.84486  0.76711  1.0000
  H   H1148     1.0  0.61455  0.85087  0.76918  1.0000
  S   S384      1.0  0.65761  0.90731  0.76212  1.0000
  H   H1149     1.0  0.53477  0.85442  0.78138  1.0000
  H   H1150     1.0  0.00715  0.54795  0.79754  1.0000
  C   C1152     1.0  0.80327  0.63379  0.76374  1.0000
  H   H1151     1.0  0.75578  0.90783  0.76458  1.0000
  H   H1152     1.0  0.72259  0.89145  0.76378  1.0000
