data_image0
_chemical_formula_structural       FeS2FeS2FeCHCFeSHFeS2C2H2CFeS2FeS2FeS2FeS2FeSCFeSFeCS2HNFeC3HC4HC3H2C6H4C5HSH2C2H2CHC5S2H3C6H4C6H5C2NCH2FeC2S2CHC2SH5C2HNHSHC2SHCSH2CHC2HC3H6C2NCH2CNC2FeSCNC6H8CHCHFeH2CHC2HC2HSC2H4CH4SCHCH2CH2CSFe2SFeS2H2FeS3CHSHCSFeSH2SC5H2C6H4C6H4SCHNC6H4CH2CH2C2H2C2HFeCHNC6H6SHSH2NCSH2FeH2SH2SFeCH2FeHSFeHSC2FeCS2FeS2CHSFeSH2S2H2C7H4C6H4C2HC6H2C6H5SH2FeH2N2SCH2NSHC3HCHSH2C3H2C3H2CNCHFeCH3CHCHC2HC2HC2NCFeC2H3SHCH2NH2CSHCH3CH4CHFeSHFeS2FeS2HSHSHNFeSCFeS2FeSFeHS3HSC4S2FeSFeSFe3SCNC2H3SHC6H4C6H4C3HC2H3FeHCHSC3NC2HCHC6H3C6H5CH2FeHCHCH2CS2HCHCHSHC3H2CH2SC2H2NCH2FeHCSH2C2H5SCHCH2C3HC4NH2C3HC2HCHCHFeCH2CHCH2SCHC4NHCH2SCNCH2CSHCH4CH3CFeSFeS2FeSFeS3FeS2FeHFeS3CFeHSFeS6CFeS2Fe2SC2S2C2H2SHCH4C6H2C8H4CH2C2HC9SH2C4H3C6H4CHSC3NCH3CH3C2H2SHCH4NC2HCNC3HC2H3CH4NC6H8NC2HCHCH3SCHCH4CHCH2CHC2SH2FeCNSHCH2Fe3CHCH3C2HCHNHCS2CFeSFeSHCSC2SHSC2FeS2C2Fe2SCSC6H4C6H5SHC7H4C4H3CNSHCH5CHSH3C3NC3HC2HNC2HCH6CH4SHNCH6CHCSHFeH2CSFeHSHS2FeH2SH2SH2SHFeSFeSHSFeCHC7H4C4H4SH2CNFeH2NC6H4C6HCH2CHCNH2C3HSFeH2C2NCHCHCHC3H2CHCNC3HC2H4CNSHFeSH2C2H2CHCHSHC2HCH2SCHC2H2CH2NSHSCFeCH2CSHS2H2SCFeSFeC2FeS2FeSCFeSFeS2FeS2FeSHFeS2CHSHS2C6H4C6H4C6H4SCHC4H3CFeCSHCH4SC6FeH4C3H2SC7HNC3HCH5CHNCHNC2H2CHCHCFeHCHC2FeHFeCH4CSFeHSCSHCNC5H4C2HC2HC2HCHSCSFeSHCHCHSHC2H3SNHCH5CH4CHNH2C2H4NC2H3S3CFeCH2FeS2FeS2HCH3SCFeS2FeSCFeS2FeSFeS3CNC2HCHC2HC3HC7H4NC3H8C6H4C7H3C6H3C2HCSFe2HNCH2CSNH3CHSC2HC3H3NC6H10CHFeHCHCHCHC2HCH2SHSHC4HCNFeHCH3SCH2CH2CHC2H3NSH2C2HSHSH3CHC3FeS2HSHFeSCSHFeS3HFeSHSH2C2H2FeS4CHSFeSC6H4C2HNHC8H4C6H4C6H5SHCNFeH2S2NC2H4FeCH5CHFeH2CHFeC4H2C4NC6SHNFeH2CHNC6H4SC2NH2FeH2CH2CH3S2HCH2CH4C2H3FeSFe2SH2SHFeSFeSCSFeH2NCFeHSHC2S2C2SC2SHC6HCSC6HCH8C2SHNC6H4C3H3SH2SHCSHC5H2FeH2FeCHFeCH2S2H2FeH2C2HNCSCH4CSHC2HC2HC2H4C2NSNH2CFeS2HS3CFeS2FeS2FeHFeS3FeC3SFeSFeCSCS2H2SHC7H3C6H2CSC7H3CHC2H3NC6H3C6H6C4H5C2HSCFeSHNC5H3SHCH5SC2HC2HC2SHCHNSCH3NHS2H5NFeH2CHCH2CH3C2HCFe2C2HC4FeCNC2HCHCH4CH2CH2CH2C2SH5C2HCNHFeSFeSHFeSFeS3FeS2H3SFeS2FeS4C3H2SHCH2C6H4C6H3C2HC2H2C6H4C5HC2FeNSFeCHS2CHC4HCHC3H2C2H5CH2CH2CH4NFeC3S2H2SCNHNC2H3C2NC2HC3H6C2H3C3HCH3C2H7SHCH2C3H2FeC2HC2H2C2HCHNSHFeNCFeHCSCHNCFeSC3SHCH2S3FeSCSFeS2C2HCSHSHFeS2HFeSHS3FeSH2CFeHFeSNHCHCH3C6H4C6HCH3FeC2HFeSHCHC7H5CH2C2H2NCH2C2SHNC4H5SC2H2C2H4CHFeC3SCFeHSHC2HSHSHSCFeSFeSHSFeSHFeSFeH2SCHSCFeSFeSFeS3HCHFeS2C6H4C2HCHFeSHC7H2CH3FeH3SNHC6H5CH2CHC2H2FeHC2HCHCSC3SHNCHC2HNHCHNC6H6NC6H5SHC4HNCH5SCFeNHCSH2C3HCHSHCH2SC2NFeS2FeSFeSFeS3HFeS2HCS2C7H3SC6H4CHFeHCHCHC6H3SCHC4HNHFeCH3SC6H4C6H3FeH5CH2CFeCNC6H5C3HC2NH2SHC2HC2FeH4C2HNSHCH2CSHCH3SHCH2C3SHC2HCH2SFeH2CHC2H2CH3C2H
_chemical_formula_sum              "Fe192 S384 C1152 H1152 N96"
_cell_length_a       56.4013
_cell_length_b       105.21
_cell_length_c       36.4752
_cell_angle_alpha    90.4558
_cell_angle_beta     90.0527
_cell_angle_gamma    89.18

_space_group_name_H-M_alt    "P 1"
_space_group_IT_number       1

loop_
  _space_group_symop_operation_xyz
  'x, y, z'

loop_
  _atom_site_type_symbol
  _atom_site_label
  _atom_site_symmetry_multiplicity
  _atom_site_fract_x
  _atom_site_fract_y
  _atom_site_fract_z
  _atom_site_occupancy
  Fe  Fe1       1.0  0.33503  0.22299  0.21255  1.0000
  S   S1        1.0  0.37142  0.21459  0.20526  1.0000
  S   S2        1.0  0.30234  0.21758  0.17916  1.0000
  Fe  Fe2       1.0  0.37335  0.21396  0.26692  1.0000
  S   S3        1.0  0.38197  0.19614  0.30019  1.0000
  S   S4        1.0  0.33563  0.22087  0.27391  1.0000
  Fe  Fe3       1.0  0.02219  0.15771  0.02381  1.0000
  C   C1        1.0  0.41825  0.20547  0.41588  1.0000
  H   H1        1.0  0.00591  0.04897  0.13822  1.0000
  C   C2        1.0  0.32337  0.07847  0.04356  1.0000
  Fe  Fe4       1.0  0.25796  0.16148  0.04435  1.0000
  S   S5        1.0  0.28626  0.16675  0.08674  1.0000
  H   H2        1.0  0.01463  0.08730  0.10036  1.0000
  Fe  Fe5       1.0  0.20608  0.15660  0.02046  1.0000
  S   S6        1.0  0.16867  0.15565  0.04605  1.0000
  S   S7        1.0  0.23382  0.14466  0.05003  1.0000
  C   C3        1.0  0.46425  0.99577  0.41636  1.0000
  C   C4        1.0  0.26705  0.09296  0.97893  1.0000
  H   H3        1.0  0.37806  0.00156  0.15658  1.0000
  H   H4        1.0  0.43848  0.12060  0.42748  1.0000
  C   C5        1.0  0.33690  0.06351  0.14946  1.0000
  Fe  Fe6       1.0  0.28205  0.04555  0.04541  1.0000
  S   S8        1.0  0.32048  0.04228  0.03081  1.0000
  S   S9        1.0  0.99490  0.14651  0.99211  1.0000
  Fe  Fe7       1.0  0.27460  0.01741  0.06231  1.0000
  S   S10       1.0  0.31267  0.01246  0.04871  1.0000
  S   S11       1.0  0.25295  0.00026  0.08037  1.0000
  Fe  Fe8       1.0  0.32218  0.02994  0.08108  1.0000
  S   S12       1.0  0.35509  0.03028  0.11830  1.0000
  S   S13       1.0  0.28462  0.03409  0.09765  1.0000
  Fe  Fe9       1.0  0.42157  0.05542  0.38424  1.0000
  S   S14       1.0  0.39059  0.04209  0.38905  1.0000
  S   S15       1.0  0.41671  0.07681  0.39535  1.0000
  Fe  Fe10      1.0  0.45417  0.03417  0.35529  1.0000
  S   S16       1.0  0.42565  0.01949  0.35716  1.0000
  C   C6        1.0  0.00318  0.01434  0.18795  1.0000
  Fe  Fe11      1.0  0.40147  0.03464  0.33300  1.0000
  S   S17       1.0  0.37071  0.03120  0.29233  1.0000
  Fe  Fe12      1.0  0.41664  0.02793  0.41277  1.0000
  C   C7        1.0  0.46331  0.07900  0.33139  1.0000
  S   S18       1.0  0.43086  0.04875  0.32710  1.0000
  S   S19       1.0  0.44671  0.04183  0.41191  1.0000
  H   H5        1.0  0.29899  0.99658  0.12011  1.0000
  N   N1        1.0  0.32827  0.07356  0.08034  1.0000
  Fe  Fe13      1.0  0.24644  0.13870  0.99413  1.0000
  C   C8        1.0  0.47444  0.00748  0.42465  1.0000
  C   C9        1.0  0.02889  0.99109  0.19512  1.0000
  C   C10       1.0  0.00408  0.99122  0.19081  1.0000
  H   H6        1.0  0.47605  0.00652  0.32462  1.0000
  C   C11       1.0  0.44626  0.10052  0.32862  1.0000
  C   C12       1.0  0.02800  0.01421  0.19219  1.0000
  C   C13       1.0  0.04083  0.00265  0.19547  1.0000
  C   C14       1.0  0.36059  0.00145  0.20914  1.0000
  H   H7        1.0  0.05987  0.00271  0.19900  1.0000
  C   C15       1.0  0.22818  0.99936  0.11033  1.0000
  C   C16       1.0  0.19530  0.00896  0.14433  1.0000
  C   C17       1.0  0.21621  0.01020  0.12348  1.0000
  H   H8        1.0  0.18592  0.01741  0.15378  1.0000
  H   H9        1.0  0.22271  0.01953  0.11689  1.0000
  C   C18       1.0  0.35886  0.03181  0.16673  1.0000
  C   C19       1.0  0.38200  0.03209  0.18124  1.0000
  C   C20       1.0  0.38602  0.03243  0.21949  1.0000
  C   C21       1.0  0.36687  0.03243  0.24387  1.0000
  C   C22       1.0  0.34369  0.03250  0.22930  1.0000
  C   C23       1.0  0.33967  0.03222  0.19103  1.0000
  H   H10       1.0  0.39701  0.03178  0.16278  1.0000
  H   H11       1.0  0.40393  0.03233  0.23013  1.0000
  H   H12       1.0  0.32873  0.03250  0.24785  1.0000
  H   H13       1.0  0.32176  0.03203  0.18044  1.0000
  C   C24       1.0  0.46802  0.10777  0.43559  1.0000
  C   C25       1.0  0.44444  0.11078  0.42695  1.0000
  C   C26       1.0  0.42870  0.10108  0.41644  1.0000
  C   C27       1.0  0.43631  0.08828  0.41422  1.0000
  C   C28       1.0  0.45962  0.08522  0.42430  1.0000
  H   H14       1.0  0.44645  0.07533  0.32207  1.0000
  S   S20       1.0  0.27270  0.15460  0.99020  1.0000
  H   H15       1.0  0.36855  0.19085  0.44206  1.0000
  H   H16       1.0  0.46570  0.07543  0.42304  1.0000
  C   C29       1.0  0.34882  0.06688  0.08681  1.0000
  C   C30       1.0  0.26268  0.07982  0.03314  1.0000
  H   H17       1.0  0.27502  0.07276  0.98093  1.0000
  H   H18       1.0  0.29004  0.01078  0.14463  1.0000
  C   C31       1.0  0.30806  0.18434  0.00276  1.0000
  H   H19       1.0  0.20955  0.11556  0.00958  1.0000
  C   C32       1.0  0.42689  0.19071  0.46457  1.0000
  C   C33       1.0  0.08939  0.15859  0.01129  1.0000
  C   C34       1.0  0.09595  0.15611  0.04761  1.0000
  C   C35       1.0  0.12020  0.15547  0.05766  1.0000
  C   C36       1.0  0.13835  0.15730  0.03174  1.0000
  S   S21       1.0  0.05902  0.15948  0.99661  1.0000
  S   S22       1.0  0.48961  0.11967  0.44362  1.0000
  H   H20       1.0  0.08234  0.15474  0.06801  1.0000
  H   H21       1.0  0.12490  0.15356  0.08586  1.0000
  H   H22       1.0  0.36987  0.05658  0.12655  1.0000
  C   C37       1.0  0.40915  0.19257  0.32279  1.0000
  C   C38       1.0  0.41041  0.18199  0.34612  1.0000
  C   C39       1.0  0.43149  0.17890  0.36508  1.0000
  C   C40       1.0  0.45169  0.18630  0.36056  1.0000
  C   C41       1.0  0.45044  0.19688  0.33722  1.0000
  C   C42       1.0  0.42924  0.20006  0.31864  1.0000
  H   H23       1.0  0.39497  0.17613  0.34957  1.0000
  H   H24       1.0  0.43216  0.17075  0.38297  1.0000
  H   H25       1.0  0.46593  0.20267  0.33350  1.0000
  H   H26       1.0  0.42855  0.20822  0.30076  1.0000
  C   C43       1.0  0.29926  0.20406  0.15017  1.0000
  C   C44       1.0  0.27759  0.20219  0.13187  1.0000
  C   C45       1.0  0.27356  0.19104  0.11123  1.0000
  C   C46       1.0  0.29122  0.18160  0.10874  1.0000
  C   C47       1.0  0.31313  0.18362  0.12618  1.0000
  C   C48       1.0  0.31718  0.19480  0.14671  1.0000
  H   H27       1.0  0.26360  0.20930  0.13444  1.0000
  H   H28       1.0  0.25653  0.18958  0.09829  1.0000
  H   H29       1.0  0.32692  0.17639  0.12437  1.0000
  H   H30       1.0  0.33397  0.19614  0.16044  1.0000
  H   H31       1.0  0.17352  0.11281  0.06517  1.0000
  C   C49       1.0  0.18606  0.99692  0.15216  1.0000
  C   C50       1.0  0.40300  0.18751  0.46553  1.0000
  N   N2        1.0  0.31867  0.00064  0.16899  1.0000
  C   C51       1.0  0.36125  0.00102  0.17091  1.0000
  H   H32       1.0  0.24981  0.08992  0.08100  1.0000
  H   H33       1.0  0.29507  0.08003  0.10206  1.0000
  Fe  Fe14      1.0  0.48581  0.14095  0.45784  1.0000
  C   C52       1.0  0.29653  0.00084  0.14789  1.0000
  C   C53       1.0  0.31572  0.07005  0.14238  1.0000
  S   S23       1.0  0.26928  0.02896  0.01078  1.0000
  S   S24       1.0  0.45540  0.15488  0.45063  1.0000
  C   C54       1.0  0.47883  0.98549  0.40632  1.0000
  H   H34       1.0  0.30093  0.00159  0.22061  1.0000
  C   C55       1.0  0.31170  0.07508  0.10748  1.0000
  C   C56       1.0  0.10756  0.16035  0.98531  1.0000
  S   S25       1.0  0.26475  0.06509  0.05682  1.0000
  H   H35       1.0  0.27558  0.18615  0.03326  1.0000
  H   H36       1.0  0.16194  0.12890  0.06970  1.0000
  H   H37       1.0  0.99466  0.98234  0.19058  1.0000
  H   H38       1.0  0.31567  0.17727  0.02106  1.0000
  H   H39       1.0  0.41065  0.10356  0.40901  1.0000
  C   C57       1.0  0.27543  0.19813  0.98560  1.0000
  C   C58       1.0  0.19246  0.99141  0.04029  1.0000
  H   H40       1.0  0.36660  0.21530  0.40708  1.0000
  N   N3        1.0  0.46597  0.09177  0.33700  1.0000
  H   H41       1.0  0.44638  0.10292  0.29907  1.0000
  S   S26       1.0  0.47859  0.18292  0.38417  1.0000
  H   H42       1.0  0.03737  0.02310  0.19320  1.0000
  C   C59       1.0  0.47533  0.09491  0.43493  1.0000
  C   C60       1.0  0.01224  0.06761  0.11607  1.0000
  S   S27       1.0  0.01278  0.14885  0.07784  1.0000
  H   H43       1.0  0.28250  0.99529  0.16160  1.0000
  C   C61       1.0  0.19386  0.11939  0.99620  1.0000
  S   S28       1.0  0.15833  0.99600  0.17512  1.0000
  H   H44       1.0  0.47967  0.06030  0.33506  1.0000
  H   H45       1.0  0.42371  0.22964  0.03589  1.0000
  C   C62       1.0  0.15506  0.12837  0.99949  1.0000
  H   H46       1.0  0.18965  0.01180  0.04485  1.0000
  C   C63       1.0  0.25473  0.09072  0.05246  1.0000
  C   C64       1.0  0.25909  0.10386  0.99822  1.0000
  H   H47       1.0  0.46296  0.01539  0.43249  1.0000
  C   C65       1.0  0.31784  0.00117  0.20648  1.0000
  C   C66       1.0  0.16036  0.00252  0.07096  1.0000
  C   C67       1.0  0.35362  0.06196  0.12158  1.0000
  H   H48       1.0  0.36152  0.06517  0.06494  1.0000
  H   H49       1.0  0.38675  0.21329  0.36902  1.0000
  H   H50       1.0  0.19312  0.12633  0.06688  1.0000
  H   H51       1.0  0.31382  0.07120  0.02722  1.0000
  H   H52       1.0  0.13505  0.99069  0.09752  1.0000
  H   H53       1.0  0.02457  0.06417  0.09531  1.0000
  C   C68       1.0  0.48194  0.07047  0.33887  1.0000
  C   C69       1.0  0.43461  0.19974  0.43965  1.0000
  N   N4        1.0  0.17493  0.12366  0.01647  1.0000
  C   C70       1.0  0.38711  0.19339  0.44124  1.0000
  H   H54       1.0  0.37689  0.00227  0.22481  1.0000
  H   H55       1.0  0.36628  0.20105  0.37869  1.0000
  C   C71       1.0  0.26897  0.08103  0.99626  1.0000
  N   N5        1.0  0.39487  0.20217  0.41664  1.0000
  C   C72       1.0  0.33877  0.00153  0.22712  1.0000
  C   C73       1.0  0.00678  0.08056  0.11901  1.0000
  Fe  Fe15      1.0  0.48259  0.16845  0.43012  1.0000
  S   S29       1.0  0.41516  0.01328  0.45923  1.0000
  C   C74       1.0  0.21943  0.98731  0.11931  1.0000
  N   N6        1.0  0.30906  0.18416  0.23436  1.0000
  C   C75       1.0  0.30535  0.17344  0.21372  1.0000
  C   C76       1.0  0.29163  0.19327  0.23765  1.0000
  C   C77       1.0  0.28356  0.17154  0.19626  1.0000
  C   C78       1.0  0.26962  0.19167  0.22062  1.0000
  C   C79       1.0  0.26562  0.18073  0.19980  1.0000
  C   C80       1.0  0.33239  0.18638  0.25074  1.0000
  H   H56       1.0  0.31949  0.16648  0.20973  1.0000
  H   H57       1.0  0.29497  0.20209  0.25229  1.0000
  H   H58       1.0  0.28096  0.16329  0.17870  1.0000
  H   H59       1.0  0.25624  0.19916  0.22216  1.0000
  H   H60       1.0  0.24899  0.17960  0.18520  1.0000
  H   H61       1.0  0.34218  0.17735  0.25618  1.0000
  H   H62       1.0  0.34322  0.19222  0.23206  1.0000
  H   H63       1.0  0.33074  0.19148  0.27745  1.0000
  C   C81       1.0  0.48710  0.09643  0.34927  1.0000
  H   H64       1.0  0.20945  0.99158  0.02628  1.0000
  C   C82       1.0  0.17586  0.12280  0.05655  1.0000
  H   H65       1.0  0.42898  0.09615  0.33564  1.0000
  Fe  Fe16      1.0  0.30819  0.02491  0.99896  1.0000
  H   H66       1.0  0.24709  0.11096  0.05058  1.0000
  H   H67       1.0  0.31209  0.08723  0.04483  1.0000
  C   C83       1.0  0.33999  0.00074  0.15113  1.0000
  H   H68       1.0  0.34022  0.05945  0.17628  1.0000
  C   C84       1.0  0.00174  0.05908  0.13999  1.0000
  C   C85       1.0  0.18137  0.00280  0.05084  1.0000
  H   H69       1.0  0.33996  0.08093  0.02902  1.0000
  C   C86       1.0  0.28545  0.18929  0.00967  1.0000
  C   C87       1.0  0.13181  0.15971  0.99537  1.0000
  H   H70       1.0  0.15220  0.01129  0.08089  1.0000
  S   S30       1.0  0.22959  0.17387  0.01914  1.0000
  C   C88       1.0  0.19847  0.98608  0.14000  1.0000
  C   C89       1.0  0.25310  0.10268  0.03525  1.0000
  H   H71       1.0  0.30234  0.07108  0.16359  1.0000
  H   H72       1.0  0.33814  0.00239  0.25681  1.0000
  H   H73       1.0  0.44511  0.99477  0.41754  1.0000
  H   H74       1.0  0.34068  0.00103  0.12140  1.0000
  C   C90       1.0  0.15073  0.99080  0.08033  1.0000
  H   H75       1.0  0.45327  0.20203  0.43811  1.0000
  H   H76       1.0  0.13993  0.13164  0.01550  1.0000
  H   H77       1.0  0.42450  0.21232  0.39617  1.0000
  H   H78       1.0  0.25752  0.20162  0.99062  1.0000
  S   S31       1.0  0.99657  0.17431  0.03127  1.0000
  C   C91       1.0  0.37778  0.20828  0.39182  1.0000
  H   H79       1.0  0.44738  0.10940  0.34522  1.0000
  C   C92       1.0  0.99130  0.00277  0.18692  1.0000
  H   H80       1.0  0.48909  0.10654  0.35449  1.0000
  H   H81       1.0  0.99613  0.23175  0.40766  1.0000
  C   C93       1.0  0.37903  0.02945  0.70440  1.0000
  H   H82       1.0  0.38962  0.02719  0.76087  1.0000
  H   H83       1.0  0.41400  0.99466  0.51619  1.0000
  C   C94       1.0  0.17368  0.12539  0.94047  1.0000
  S   S32       1.0  0.24837  0.17992  0.91737  1.0000
  Fe  Fe17      1.0  0.33257  0.22230  0.71238  1.0000
  Fe  Fe18      1.0  0.46496  0.16247  0.50695  1.0000
  S   S33       1.0  0.43205  0.16811  0.54084  1.0000
  Fe  Fe19      1.0  0.34753  0.20542  0.77684  1.0000
  S   S34       1.0  0.38510  0.21254  0.77452  1.0000
  S   S35       1.0  0.34051  0.19009  0.81986  1.0000
  H   H84       1.0  0.31439  0.01521  0.65922  1.0000
  H   H85       1.0  0.30181  0.03002  0.67663  1.0000
  Fe  Fe20      1.0  0.38228  0.21043  0.71296  1.0000
  S   S36       1.0  0.41568  0.20263  0.68423  1.0000
  S   S37       1.0  0.33157  0.22506  0.77375  1.0000
  S   S38       1.0  0.34589  0.20196  0.71568  1.0000
  C   C95       1.0  0.15426  0.12949  0.96133  1.0000
  H   H86       1.0  0.43634  0.18075  0.72685  1.0000
  S   S39       1.0  0.32816  0.01866  0.94577  1.0000
  H   H87       1.0  0.17349  0.12638  0.91089  1.0000
  C   C96       1.0  0.19351  0.12016  0.95793  1.0000
  S   S40       1.0  0.32024  0.99708  0.77948  1.0000
  Fe  Fe21      1.0  0.35407  0.99302  0.64853  1.0000
  S   S41       1.0  0.35284  0.00880  0.60566  1.0000
  H   H88       1.0  0.36344  0.03054  0.65077  1.0000
  H   H89       1.0  0.32235  0.03001  0.63900  1.0000
  S   S42       1.0  0.37406  0.99576  0.70139  1.0000
  C   C97       1.0  0.38045  0.02157  0.50921  1.0000
  C   C98       1.0  0.36697  0.02033  0.54163  1.0000
  C   C99       1.0  0.37032  0.00986  0.56501  1.0000
  C   C100      1.0  0.38743  0.00063  0.55559  1.0000
  C   C101      1.0  0.31805  0.02535  0.66543  1.0000
  H   H90       1.0  0.35380  0.02752  0.54848  1.0000
  H   H91       1.0  0.39023  0.99253  0.57320  1.0000
  C   C102      1.0  0.32297  0.00270  0.82610  1.0000
  C   C103      1.0  0.34486  0.00388  0.84394  1.0000
  C   C104      1.0  0.34600  0.00874  0.88029  1.0000
  C   C105      1.0  0.32535  0.01240  0.89981  1.0000
  C   C106      1.0  0.30345  0.01112  0.88202  1.0000
  C   C107      1.0  0.30233  0.00639  0.84552  1.0000
  H   H92       1.0  0.36098  0.00110  0.82977  1.0000
  H   H93       1.0  0.36308  0.00964  0.89352  1.0000
  H   H94       1.0  0.28737  0.01390  0.89629  1.0000
  H   H95       1.0  0.28525  0.00562  0.83228  1.0000
  C   C108      1.0  0.42802  0.17834  0.57960  1.0000
  C   C109      1.0  0.40479  0.18149  0.59101  1.0000
  C   C110      1.0  0.40063  0.18926  0.62216  1.0000
  C   C111      1.0  0.41971  0.19385  0.64265  1.0000
  C   C112      1.0  0.44293  0.19073  0.63120  1.0000
  C   C113      1.0  0.44710  0.18310  0.59976  1.0000
  H   H96       1.0  0.38989  0.17786  0.57566  1.0000
  H   H97       1.0  0.38267  0.19156  0.63059  1.0000
  H   H98       1.0  0.45784  0.19418  0.64688  1.0000
  H   H99       1.0  0.46505  0.18073  0.59150  1.0000
  S   S43       1.0  0.29970  0.22766  0.67935  1.0000
  C   C114      1.0  0.32052  0.18839  0.97205  1.0000
  H   H100      1.0  0.37758  0.02965  0.49152  1.0000
  N   N7        1.0  0.33772  0.02619  0.69160  1.0000
  C   C115      1.0  0.27363  0.18183  0.88864  1.0000
  C   C116      1.0  0.29466  0.17483  0.89361  1.0000
  C   C117      1.0  0.31481  0.17740  0.87205  1.0000
  C   C118      1.0  0.31427  0.18699  0.84530  1.0000
  C   C119      1.0  0.29314  0.19386  0.83997  1.0000
  C   C120      1.0  0.27294  0.19121  0.86131  1.0000
  H   H101      1.0  0.29549  0.16754  0.91436  1.0000
  H   H102      1.0  0.33099  0.17196  0.87629  1.0000
  H   H103      1.0  0.29231  0.20118  0.81932  1.0000
  H   H104      1.0  0.25671  0.19659  0.85688  1.0000
  C   C121      1.0  0.40090  0.00187  0.52320  1.0000
  H   H105      1.0  0.39676  0.03144  0.69468  1.0000
  H   H106      1.0  0.34900  0.02193  0.78186  1.0000
  C   C122      1.0  0.33374  0.02364  0.72778  1.0000
  H   H107      1.0  0.28721  0.21266  0.90561  1.0000
  H   H108      1.0  0.31976  0.20032  0.92456  1.0000
  C   C123      1.0  0.37504  0.02703  0.74144  1.0000
  C   C124      1.0  0.39751  0.01233  0.49973  1.0000
  H   H109      1.0  0.25882  0.20835  0.92300  1.0000
  H   H110      1.0  0.42911  0.17331  0.76990  1.0000
  C   C125      1.0  0.36007  0.02894  0.67967  1.0000
  C   C126      1.0  0.35226  0.02411  0.75326  1.0000
  H   H111      1.0  0.33795  0.18443  0.96597  1.0000
  Fe  Fe22      1.0  0.34198  0.98838  0.73104  1.0000
  C   C127      1.0  0.31012  0.19741  0.94876  1.0000
  H   H112      1.0  0.31621  0.02103  0.73713  1.0000
  N   N8        1.0  0.40006  0.17539  0.73330  1.0000
  C   C128      1.0  0.39893  0.17089  0.69803  1.0000
  C   C129      1.0  0.38029  0.17558  0.75499  1.0000
  C   C130      1.0  0.37741  0.16681  0.68327  1.0000
  C   C131      1.0  0.35854  0.17140  0.74130  1.0000
  C   C132      1.0  0.35709  0.16711  0.70509  1.0000
  C   C133      1.0  0.42254  0.17989  0.74845  1.0000
  H   H113      1.0  0.41458  0.17073  0.68074  1.0000
  H   H114      1.0  0.38116  0.17917  0.78294  1.0000
  H   H115      1.0  0.37652  0.16364  0.65491  1.0000
  H   H116      1.0  0.34281  0.17183  0.75848  1.0000
  H   H117      1.0  0.34019  0.16416  0.69388  1.0000
  H   H118      1.0  0.42001  0.18958  0.76038  1.0000
  S   S44       1.0  0.36876  0.23054  0.70569  1.0000
  H   H119      1.0  0.20887  0.11703  0.94211  1.0000
  S   S45       1.0  0.32085  0.98712  0.67829  1.0000
  H   H120      1.0  0.27169  0.09374  0.95025  1.0000
  H   H121      1.0  0.13879  0.13373  0.94823  1.0000
  N   N9        1.0  0.28776  0.20207  0.95561  1.0000
  C   C134      1.0  0.27684  0.21150  0.93125  1.0000
  S   S46       1.0  0.21765  0.14974  0.96449  1.0000
  H   H122      1.0  0.10281  0.16230  0.95715  1.0000
  H   H123      1.0  0.27538  0.22084  0.94546  1.0000
  Fe  Fe23      1.0  0.24331  0.16608  0.96496  1.0000
  H   H124      1.0  0.43937  0.18614  0.48305  1.0000
  H   H125      1.0  0.39700  0.18048  0.48497  1.0000
  S   S47       1.0  0.25625  0.11853  0.97442  1.0000
  H   H126      1.0  0.27511  0.98368  0.76807  1.0000
  H   H127      1.0  0.14541  0.16113  0.97498  1.0000
  S   S48       1.0  0.49087  0.17664  0.48578  1.0000
  Fe  Fe24      1.0  0.36898  0.23197  0.76739  1.0000
  C   C135      1.0  0.41731  0.23940  0.03505  1.0000
  H   H128      1.0  0.39109  0.28161  0.06241  1.0000
  H   H129      1.0  0.41798  0.45392  0.09907  1.0000
  Fe  Fe25      1.0  0.33514  0.45392  0.23615  1.0000
  H   H130      1.0  0.45164  0.45658  0.22693  1.0000
  S   S49       1.0  0.31894  0.44229  0.28384  1.0000
  Fe  Fe26      1.0  0.36016  0.45054  0.15935  1.0000
  H   H131      1.0  0.36711  0.42024  0.41521  1.0000
  S   S50       1.0  0.37919  0.43608  0.12215  1.0000
  C   C136      1.0  0.33461  0.39011  0.46007  1.0000
  C   C137      1.0  0.36235  0.41276  0.39486  1.0000
  Fe  Fe27      1.0  0.31896  0.46960  0.16776  1.0000
  C   C138      1.0  0.02536  0.26338  0.45715  1.0000
  S   S51       1.0  0.37317  0.45402  0.21702  1.0000
  S   S52       1.0  0.32273  0.44862  0.17908  1.0000
  Fe  Fe28      1.0  0.24145  0.28020  0.46177  1.0000
  S   S53       1.0  0.21172  0.29464  0.47000  1.0000
  S   S54       1.0  0.34238  0.25418  0.32384  1.0000
  C   C139      1.0  0.44082  0.46467  0.21657  1.0000
  H   H132      1.0  0.14246  0.32366  0.45726  1.0000
  S   S55       1.0  0.34733  0.24335  0.21463  1.0000
  Fe  Fe29      1.0  0.46806  0.28821  0.02457  1.0000
  S   S56       1.0  0.44546  0.28792  0.07671  1.0000
  H   H133      1.0  0.24265  0.29870  0.40309  1.0000
  H   H134      1.0  0.32190  0.40447  0.36497  1.0000
  S   S57       1.0  0.24667  0.27146  0.40449  1.0000
  S   S58       1.0  0.38877  0.23344  0.27190  1.0000
  H   H135      1.0  0.40717  0.28416  0.02143  1.0000
  H   H136      1.0  0.41447  0.45275  0.16629  1.0000
  C   C140      1.0  0.42808  0.45866  0.15454  1.0000
  C   C141      1.0  0.31528  0.25685  0.34807  1.0000
  C   C142      1.0  0.29315  0.25538  0.33131  1.0000
  C   C143      1.0  0.27227  0.25946  0.34957  1.0000
  C   C144      1.0  0.27317  0.26494  0.38490  1.0000
  C   C145      1.0  0.29521  0.26592  0.40226  1.0000
  C   C146      1.0  0.31611  0.26195  0.38388  1.0000
  H   H137      1.0  0.29218  0.25155  0.30374  1.0000
  H   H138      1.0  0.25533  0.25861  0.33588  1.0000
  H   H139      1.0  0.29624  0.27007  0.42945  1.0000
  H   H140      1.0  0.33310  0.26314  0.39715  1.0000
  C   C147      1.0  0.42271  0.25325  0.14494  1.0000
  C   C148      1.0  0.41178  0.26516  0.14996  1.0000
  C   C149      1.0  0.41932  0.27571  0.12945  1.0000
  C   C150      1.0  0.43754  0.27445  0.10320  1.0000
  C   C151      1.0  0.44849  0.26255  0.09824  1.0000
  C   C152      1.0  0.44130  0.25208  0.11929  1.0000
  H   H141      1.0  0.39758  0.26625  0.16971  1.0000
  H   H142      1.0  0.41084  0.28488  0.13378  1.0000
  H   H143      1.0  0.46262  0.26142  0.07841  1.0000
  H   H144      1.0  0.44998  0.24294  0.11529  1.0000
  C   C153      1.0  0.47241  0.36951  0.99333  1.0000
  C   C154      1.0  0.31630  0.44574  0.01317  1.0000
  H   H145      1.0  0.30070  0.30552  0.42549  1.0000
  C   C155      1.0  0.43004  0.45924  0.11638  1.0000
  C   C156      1.0  0.37669  0.44684  0.01447  1.0000
  C   C157      1.0  0.37485  0.44711  0.05309  1.0000
  C   C158      1.0  0.38212  0.43655  0.07358  1.0000
  C   C159      1.0  0.39182  0.42591  0.05504  1.0000
  C   C160      1.0  0.29523  0.28869  0.33158  1.0000
  H   H146      1.0  0.36746  0.45539  0.06691  1.0000
  H   H147      1.0  0.39764  0.41772  0.07059  1.0000
  C   C161      1.0  0.32218  0.43564  0.40999  1.0000
  C   C162      1.0  0.30470  0.43003  0.38818  1.0000
  C   C163      1.0  0.30394  0.43227  0.34992  1.0000
  C   C164      1.0  0.32038  0.44029  0.33272  1.0000
  C   C165      1.0  0.33756  0.44609  0.35474  1.0000
  C   C166      1.0  0.33844  0.44377  0.39294  1.0000
  H   H148      1.0  0.29197  0.42379  0.40056  1.0000
  H   H149      1.0  0.29048  0.42776  0.33337  1.0000
  H   H150      1.0  0.35034  0.45228  0.34223  1.0000
  H   H151      1.0  0.35206  0.44821  0.40930  1.0000
  H   H152      1.0  0.47639  0.47949  0.11179  1.0000
  S   S59       1.0  0.35606  0.47110  0.14501  1.0000
  H   H153      1.0  0.37863  0.40750  0.38624  1.0000
  H   H154      1.0  0.33631  0.41806  0.05037  1.0000
  Fe  Fe30      1.0  0.35065  0.24046  0.27596  1.0000
  H   H155      1.0  0.37063  0.45496  0.99884  1.0000
  H   H156      1.0  0.01085  0.27903  0.37906  1.0000
  N   N10       1.0  0.40206  0.26465  0.03450  1.0000
  N   N11       1.0  0.30916  0.45192  0.04453  1.0000
  S   S60       1.0  0.48764  0.27130  0.00167  1.0000
  C   C167      1.0  0.01124  0.27160  0.39950  1.0000
  H   H157      1.0  0.33273  0.28483  0.33598  1.0000
  H   H158      1.0  0.24524  0.47836  0.08753  1.0000
  N   N12       1.0  0.34535  0.40398  0.41095  1.0000
  S   S61       1.0  0.28611  0.47365  0.13246  1.0000
  H   H159      1.0  0.30555  0.45101  0.10258  1.0000
  C   C168      1.0  0.41726  0.26025  0.00790  1.0000
  C   C169      1.0  0.29907  0.30096  0.39885  1.0000
  C   C170      1.0  0.46050  0.47263  0.16159  1.0000
  H   H160      1.0  0.32311  0.42940  0.10699  1.0000
  C   C171      1.0  0.01137  0.25264  0.45185  1.0000
  H   H161      1.0  0.40058  0.41726  0.00258  1.0000
  S   S62       1.0  0.32546  0.43239  0.45805  1.0000
  H   H162      1.0  0.47227  0.47808  0.17901  1.0000
  H   H163      1.0  0.28134  0.46531  0.05447  1.0000
  C   C172      1.0  0.31423  0.38664  0.44104  1.0000
  C   C173      1.0  0.40137  0.24389  0.06154  1.0000
  C   C174      1.0  0.29963  0.46495  0.04307  1.0000
  H   H164      1.0  0.09966  0.28941  0.46336  1.0000
  H   H165      1.0  0.29900  0.46872  0.01473  1.0000
  C   C175      1.0  0.34996  0.39893  0.44471  1.0000
  C   C176      1.0  0.46299  0.47342  0.12351  1.0000
  C   C177      1.0  0.44752  0.46673  0.10082  1.0000
  H   H166      1.0  0.37689  0.27871  0.01847  1.0000
  H   H167      1.0  0.35483  0.41775  0.37060  1.0000
  C   C178      1.0  0.32807  0.42742  0.04858  1.0000
  N   N13       1.0  0.99782  0.25138  0.42094  1.0000
  C   C179      1.0  0.31933  0.29559  0.38240  1.0000
  H   H168      1.0  0.29338  0.28340  0.30609  1.0000
  Fe  Fe31      1.0  0.38419  0.23484  0.21030  1.0000
  C   C180      1.0  0.31113  0.44608  0.07777  1.0000
  H   H169      1.0  0.43754  0.24424  0.98696  1.0000
  H   H170      1.0  0.01126  0.24538  0.47278  1.0000
  H   H171      1.0  0.38194  0.26009  0.08208  1.0000
  C   C181      1.0  0.31736  0.28949  0.34844  1.0000
  H   H172      1.0  0.24884  0.31355  0.38077  1.0000
  C   C182      1.0  0.26237  0.44412  0.47283  1.0000
  H   H173      1.0  0.33633  0.29586  0.39629  1.0000
  C   C183      1.0  0.39374  0.27791  0.03403  1.0000
  C   C184      1.0  0.27533  0.29408  0.34889  1.0000
  H   H174      1.0  0.29905  0.45759  0.45047  1.0000
  C   C185      1.0  0.42520  0.24759  0.00786  1.0000
  C   C186      1.0  0.25631  0.30605  0.39879  1.0000
  H   H175      1.0  0.39561  0.23772  0.08349  1.0000
  C   C187      1.0  0.32557  0.40049  0.39178  1.0000
  C   C188      1.0  0.39359  0.42563  0.01644  1.0000
  N   N14       1.0  0.27746  0.30023  0.38191  1.0000
  C   C189      1.0  0.32072  0.43379  0.08036  1.0000
  Fe  Fe32      1.0  0.36681  0.47467  0.20361  1.0000
  C   C190      1.0  0.02513  0.27294  0.43092  1.0000
  C   C191      1.0  0.39381  0.25661  0.06075  1.0000
  H   H176      1.0  0.26017  0.31048  0.42591  1.0000
  H   H177      1.0  0.45841  0.36950  0.01373  1.0000
  H   H178      1.0  0.33224  0.42868  0.98995  1.0000
  S   S63       1.0  0.32919  0.47491  0.22581  1.0000
  H   H179      1.0  0.25802  0.29296  0.33638  1.0000
  C   C192      1.0  0.30959  0.39187  0.40669  1.0000
  H   H180      1.0  0.29373  0.38926  0.39175  1.0000
  H   H181      1.0  0.42204  0.46343  0.22483  1.0000
  N   N15       1.0  0.44295  0.46549  0.17661  1.0000
  H   H182      1.0  0.31525  0.45041  0.98682  1.0000
  H   H183      1.0  0.44900  0.46739  0.07124  1.0000
  C   C193      1.0  0.38576  0.43605  0.99585  1.0000
  S   S64       1.0  0.41331  0.23937  0.16831  1.0000
  H   H184      1.0  0.36553  0.40177  0.46005  1.0000
  C   C194      1.0  0.32574  0.43337  0.01469  1.0000
  H   H185      1.0  0.42356  0.26654  0.98670  1.0000
  H   H186      1.0  0.30205  0.37992  0.45305  1.0000
  H   H187      1.0  0.27478  0.43812  0.45770  1.0000
  C   C195      1.0  0.99780  0.26062  0.39472  1.0000
  H   H188      1.0  0.31078  0.47138  0.05998  1.0000
  H   H189      1.0  0.44655  0.47363  0.23012  1.0000
  H   H190      1.0  0.23440  0.43028  0.47048  1.0000
  H   H191      1.0  0.03564  0.28140  0.43514  1.0000
  C   C196      1.0  0.48653  0.35867  0.98770  1.0000
  H   H192      1.0  0.48367  0.35018  0.00378  1.0000
  Fe  Fe33      1.0  0.29627  0.39545  0.53892  1.0000
  S   S65       1.0  0.32876  0.40791  0.54096  1.0000
  H   H193      1.0  0.16273  0.45114  0.61593  1.0000
  Fe  Fe34      1.0  0.26335  0.41820  0.55282  1.0000
  S   S66       1.0  0.29322  0.43196  0.55492  1.0000
  S   S67       1.0  0.22457  0.42364  0.56148  1.0000
  Fe  Fe35      1.0  0.31186  0.41733  0.59045  1.0000
  S   S68       1.0  0.32720  0.42527  0.64460  1.0000
  S   S69       1.0  0.28085  0.40408  0.59048  1.0000
  H   H194      1.0  0.48045  0.34522  0.87949  1.0000
  S   S70       1.0  0.18723  0.47303  0.64720  1.0000
  H   H195      1.0  0.29031  0.24660  0.74779  1.0000
  S   S71       1.0  0.07866  0.44842  0.65698  1.0000
  H   H196      1.0  0.48243  0.39004  0.89633  1.0000
  N   N16       1.0  0.38538  0.37319  0.81450  1.0000
  Fe  Fe36      1.0  0.40513  0.42135  0.91005  1.0000
  S   S72       1.0  0.43757  0.41091  0.92930  1.0000
  C   C197      1.0  0.16642  0.31041  0.59324  1.0000
  Fe  Fe37      1.0  0.40817  0.40929  0.83233  1.0000
  S   S73       1.0  0.44142  0.39806  0.84739  1.0000
  S   S74       1.0  0.39296  0.40384  0.77558  1.0000
  Fe  Fe38      1.0  0.42310  0.39378  0.90032  1.0000
  S   S75       1.0  0.42054  0.37505  0.93144  1.0000
  Fe  Fe39      1.0  0.45356  0.41612  0.87491  1.0000
  H   H197      1.0  0.21292  0.46093  0.70793  1.0000
  S   S76       1.0  0.38916  0.40387  0.88428  1.0000
  S   S77       1.0  0.42180  0.42769  0.85674  1.0000
  S   S78       1.0  0.27621  0.40850  0.50071  1.0000
  H   H198      1.0  0.32340  0.28226  0.67803  1.0000
  S   S79       1.0  0.45534  0.25808  0.92093  1.0000
  C   C198      1.0  0.27717  0.33826  0.51744  1.0000
  C   C199      1.0  0.99935  0.46981  0.64439  1.0000
  C   C200      1.0  0.00183  0.43814  0.68428  1.0000
  C   C201      1.0  0.24541  0.35292  0.50216  1.0000
  S   S80       1.0  0.37912  0.25102  0.79297  1.0000
  S   S81       1.0  0.16693  0.28197  0.54911  1.0000
  Fe  Fe40      1.0  0.01928  0.28689  0.53149  1.0000
  S   S82       1.0  0.05662  0.28807  0.50542  1.0000
  Fe  Fe41      1.0  0.20378  0.28464  0.52261  1.0000
  S   S83       1.0  0.22905  0.29680  0.55535  1.0000
  Fe  Fe42      1.0  0.09935  0.46597  0.67441  1.0000
  Fe  Fe43      1.0  0.23831  0.30608  0.50208  1.0000
  Fe  Fe44      1.0  0.25726  0.28218  0.54112  1.0000
  S   S84       1.0  0.28756  0.27681  0.57999  1.0000
  C   C202      1.0  0.13637  0.28309  0.53572  1.0000
  N   N17       1.0  0.22751  0.44273  0.69372  1.0000
  C   C203      1.0  0.09429  0.28311  0.55402  1.0000
  C   C204      1.0  0.08715  0.28592  0.51818  1.0000
  H   H199      1.0  0.36177  0.27710  0.69885  1.0000
  H   H200      1.0  0.21854  0.46486  0.52927  1.0000
  H   H201      1.0  0.41761  0.35202  0.97248  1.0000
  S   S85       1.0  0.30317  0.37407  0.53115  1.0000
  H   H202      1.0  0.33280  0.25191  0.75343  1.0000
  C   C205      1.0  0.29739  0.24047  0.64808  1.0000
  C   C206      1.0  0.27515  0.24348  0.63268  1.0000
  C   C207      1.0  0.27206  0.25423  0.61025  1.0000
  C   C208      1.0  0.29123  0.26210  0.60299  1.0000
  C   C209      1.0  0.31366  0.25886  0.61739  1.0000
  C   C210      1.0  0.31675  0.24810  0.63983  1.0000
  H   H203      1.0  0.22745  0.35465  0.49288  1.0000
  H   H204      1.0  0.25471  0.25661  0.59939  1.0000
  H   H205      1.0  0.32862  0.26486  0.61177  1.0000
  H   H206      1.0  0.33399  0.24585  0.65122  1.0000
  C   C211      1.0  0.43411  0.25647  0.88526  1.0000
  C   C212      1.0  0.42887  0.24421  0.87225  1.0000
  C   C213      1.0  0.41217  0.24239  0.84399  1.0000
  C   C214      1.0  0.40047  0.25285  0.82842  1.0000
  C   C215      1.0  0.40574  0.26513  0.84141  1.0000
  C   C216      1.0  0.42251  0.26695  0.86966  1.0000
  H   H207      1.0  0.43772  0.23603  0.88413  1.0000
  H   H208      1.0  0.15429  0.30304  0.60383  1.0000
  H   H209      1.0  0.39679  0.27328  0.82957  1.0000
  H   H210      1.0  0.42636  0.27644  0.87936  1.0000
  C   C217      1.0  0.43615  0.36032  0.92704  1.0000
  C   C218      1.0  0.12997  0.31710  0.50954  1.0000
  C   C219      1.0  0.25999  0.36335  0.51072  1.0000
  H   H211      1.0  0.36123  0.38294  0.77896  1.0000
  C   C220      1.0  0.44417  0.33897  0.95114  1.0000
  C   C221      1.0  0.43123  0.35054  0.95193  1.0000
  H   H212      1.0  0.18443  0.30598  0.59366  1.0000
  H   H213      1.0  0.00586  0.41727  0.74606  1.0000
  H   H214      1.0  0.28745  0.44108  0.68638  1.0000
  Fe  Fe45      1.0  0.47946  0.30460  0.95784  1.0000
  H   H215      1.0  0.45772  0.36566  0.88120  1.0000
  C   C222      1.0  0.25386  0.34031  0.50549  1.0000
  H   H216      1.0  0.27734  0.42137  0.65302  1.0000
  S   S86       1.0  0.26840  0.29244  0.48974  1.0000
  C   C223      1.0  0.04860  0.44534  0.66689  1.0000
  C   C224      1.0  0.03737  0.45042  0.69795  1.0000
  C   C225      1.0  0.01415  0.44674  0.70673  1.0000
  N   N18       1.0  0.01437  0.40477  0.70146  1.0000
  C   C226      1.0  0.04849  0.40725  0.66285  1.0000
  C   C227      1.0  0.03614  0.43690  0.64410  1.0000
  H   H217      1.0  0.04682  0.45687  0.71580  1.0000
  C   C228      1.0  0.12923  0.28586  0.49984  1.0000
  H   H218      1.0  0.04471  0.43296  0.61996  1.0000
  C   C229      1.0  0.21458  0.43753  0.58495  1.0000
  C   C230      1.0  0.19021  0.43917  0.59185  1.0000
  C   C231      1.0  0.18152  0.45005  0.61052  1.0000
  C   C232      1.0  0.19714  0.45947  0.62214  1.0000
  C   C233      1.0  0.22151  0.45788  0.61493  1.0000
  C   C234      1.0  0.23023  0.44695  0.59656  1.0000
  H   H219      1.0  0.17796  0.43196  0.58287  1.0000
  H   H220      1.0  0.23372  0.46510  0.62396  1.0000
  H   H221      1.0  0.24902  0.44581  0.59146  1.0000
  C   C235      1.0  0.34527  0.41900  0.68091  1.0000
  C   C236      1.0  0.35034  0.42681  0.71148  1.0000
  C   C237      1.0  0.36469  0.42238  0.74074  1.0000
  C   C238      1.0  0.37436  0.41005  0.73982  1.0000
  C   C239      1.0  0.36918  0.40222  0.70936  1.0000
  C   C240      1.0  0.35473  0.40662  0.68021  1.0000
  H   H222      1.0  0.34326  0.43641  0.71243  1.0000
  H   H223      1.0  0.36846  0.42857  0.76377  1.0000
  H   H224      1.0  0.37657  0.39269  0.70804  1.0000
  H   H225      1.0  0.35113  0.40048  0.65700  1.0000
  H   H226      1.0  0.29489  0.47053  0.48205  1.0000
  C   C241      1.0  0.28341  0.36130  0.52224  1.0000
  H   H227      1.0  0.05571  0.46999  0.54668  1.0000
  H   H228      1.0  0.19514  0.31899  0.54106  1.0000
  Fe  Fe46      1.0  0.14855  0.47694  0.66297  1.0000
  H   H229      1.0  0.36627  0.26092  0.71278  1.0000
  C   C242      1.0  0.17678  0.31839  0.53240  1.0000
  H   H230      1.0  0.04754  0.39729  0.61096  1.0000
  C   C243      1.0  0.13659  0.31366  0.54512  1.0000
  H   H231      1.0  0.00579  0.45048  0.73133  1.0000
  H   H232      1.0  0.14250  0.28696  0.47875  1.0000
  C   C244      1.0  0.45374  0.35826  0.90057  1.0000
  S   S87       1.0  0.38525  0.43566  0.94703  1.0000
  S   S88       1.0  0.23164  0.26921  0.51241  1.0000
  H   H233      1.0  0.12312  0.31021  0.56362  1.0000
  C   C245      1.0  0.17079  0.32191  0.49663  1.0000
  H   H234      1.0  0.26407  0.25951  0.70741  1.0000
  C   C246      1.0  0.40422  0.37209  0.78693  1.0000
  H   H235      1.0  0.48289  0.43311  0.80871  1.0000
  S   S89       1.0  0.00412  0.29744  0.58072  1.0000
  H   H236      1.0  0.26009  0.23759  0.63875  1.0000
  C   C247      1.0  0.46215  0.33701  0.92525  1.0000
  C   C248      1.0  0.01677  0.47880  0.65141  1.0000
  C   C249      1.0  0.29333  0.46007  0.47887  1.0000
  H   H237      1.0  0.44050  0.33164  0.97093  1.0000
  H   H238      1.0  0.48226  0.46437  0.82665  1.0000
  C   C250      1.0  0.26898  0.43844  0.68336  1.0000
  H   H239      1.0  0.07280  0.46414  0.58539  1.0000
  H   H240      1.0  0.39745  0.37409  0.75888  1.0000
  S   S90       1.0  0.13148  0.46753  0.71143  1.0000
  C   C251      1.0  0.02176  0.46247  0.59181  1.0000
  C   C252      1.0  0.11867  0.28170  0.56264  1.0000
  H   H241      1.0  0.23508  0.41552  0.64459  1.0000
  H   H242      1.0  0.16601  0.31885  0.61167  1.0000
  N   N19       1.0  0.15982  0.31409  0.55587  1.0000
  C   C253      1.0  0.34669  0.38072  0.83280  1.0000
  H   H243      1.0  0.37555  0.36661  0.90382  1.0000
  H   H244      1.0  0.00344  0.42679  0.63499  1.0000
  Fe  Fe47      1.0  0.30758  0.42143  0.50520  1.0000
  H   H245      1.0  0.41817  0.37916  0.79297  1.0000
  C   C254      1.0  0.35064  0.37613  0.86809  1.0000
  S   S91       1.0  0.11770  0.47399  0.62517  1.0000
  H   H246      1.0  0.36067  0.27303  0.74691  1.0000
  H   H247      1.0  0.40638  0.36434  0.85611  1.0000
  C   C255      1.0  0.37209  0.37004  0.87630  1.0000
  C   C256      1.0  0.38947  0.36875  0.84912  1.0000
  H   H248      1.0  0.46684  0.47136  0.86550  1.0000
  H   H249      1.0  0.33029  0.38572  0.82619  1.0000
  H   H250      1.0  0.19146  0.44939  0.69613  1.0000
  H   H251      1.0  0.00833  0.38760  0.62321  1.0000
  H   H252      1.0  0.28399  0.32865  0.52013  1.0000
  S   S92       1.0  0.48053  0.32312  0.92489  1.0000
  C   C257      1.0  0.00465  0.39665  0.67626  1.0000
  H   H253      1.0  0.41221  0.36238  0.78679  1.0000
  C   C258      1.0  0.01277  0.43339  0.65254  1.0000
  H   H254      1.0  0.25523  0.45473  0.71261  1.0000
  H   H255      1.0  0.30994  0.34697  0.53427  1.0000
  C   C259      1.0  0.32133  0.25767  0.73616  1.0000
  C   C260      1.0  0.03840  0.39926  0.63658  1.0000
  C   C261      1.0  0.26332  0.42732  0.66448  1.0000
  H   H256      1.0  0.12386  0.27952  0.59048  1.0000
  C   C262      1.0  0.35602  0.26982  0.71871  1.0000
  C   C263      1.0  0.46661  0.34666  0.89969  1.0000
  C   C264      1.0  0.28252  0.26204  0.71101  1.0000
  C   C265      1.0  0.29726  0.25478  0.73363  1.0000
  N   N20       1.0  0.33053  0.26740  0.71632  1.0000
  H   H257      1.0  0.33729  0.37746  0.88921  1.0000
  H   H258      1.0  0.25918  0.47230  0.51677  1.0000
  C   C266      1.0  0.31614  0.27471  0.69449  1.0000
  C   C267      1.0  0.03617  0.40989  0.69538  1.0000
  C   C268      1.0  0.20875  0.45066  0.71035  1.0000
  H   H259      1.0  0.08105  0.28201  0.57515  1.0000
  C   C269      1.0  0.29192  0.27216  0.69156  1.0000
  C   C270      1.0  0.25073  0.44607  0.69801  1.0000
  H   H260      1.0  0.20662  0.44826  0.73972  1.0000
  C   C271      1.0  0.36430  0.37911  0.80614  1.0000
  H   H261      1.0  0.28082  0.27754  0.67271  1.0000
  C   C272      1.0  0.29187  0.34870  0.52545  1.0000
  H   H262      1.0  0.11164  0.31628  0.50081  1.0000
  Fe  Fe48      1.0  0.46926  0.27601  0.94867  1.0000
  C   C273      1.0  0.22184  0.43179  0.67536  1.0000
  H   H263      1.0  0.06542  0.41169  0.65770  1.0000
  H   H264      1.0  0.20344  0.42922  0.67141  1.0000
  C   C274      1.0  0.23964  0.42397  0.66025  1.0000
  H   H265      1.0  0.00711  0.40046  0.75701  1.0000
  C   C275      1.0  0.25369  0.46320  0.50572  1.0000
  H   H266      1.0  0.30573  0.45532  0.49833  1.0000
  H   H267      1.0  0.04383  0.41641  0.71518  1.0000
  S   S93       1.0  0.00081  0.26861  0.54518  1.0000
  C   C276      1.0  0.06008  0.47162  0.57603  1.0000
  H   H268      1.0  0.02388  0.45582  0.56916  1.0000
  C   C277      1.0  0.00172  0.46165  0.61424  1.0000
  C   C278      1.0  0.48128  0.46469  0.85710  1.0000
  C   C279      1.0  0.01639  0.39387  0.64335  1.0000
  C   C280      1.0  0.10484  0.28727  0.49122  1.0000
  N   N21       1.0  0.26907  0.45582  0.48547  1.0000
  H   H269      1.0  0.40829  0.23290  0.83431  1.0000
  C   C281      1.0  0.03639  0.47947  0.62810  1.0000
  H   H270      1.0  0.03617  0.26436  0.48163  1.0000
  H   H271      1.0  0.47672  0.45494  0.86613  1.0000
  S   S94       1.0  0.23484  0.32757  0.49292  1.0000
  C   C282      1.0  0.00192  0.40751  0.73594  1.0000
  N   N22       1.0  0.03868  0.47136  0.59879  1.0000
  C   C283      1.0  0.14726  0.32116  0.48511  1.0000
  H   H272      1.0  0.33837  0.38605  0.48678  1.0000
  H   H273      1.0  0.25319  0.37296  0.50800  1.0000
  C   C284      1.0  0.23066  0.45910  0.51278  1.0000
  S   S95       1.0  0.44819  0.29241  0.97212  1.0000
  H   H274      1.0  0.06895  0.48098  0.57787  1.0000
  C   C285      1.0  0.22358  0.44728  0.49949  1.0000
  H   H275      1.0  0.99841  0.23979  0.67707  1.0000
  H   H276      1.0  0.20601  0.44379  0.50573  1.0000
  H   H277      1.0  0.99166  0.35258  0.62648  1.0000
  H   H278      1.0  0.18444  0.32508  0.47798  1.0000
  C   C286      1.0  0.23955  0.43968  0.47967  1.0000
  H   H279      1.0  0.49029  0.40002  0.93470  1.0000
  H   H280      1.0  0.48947  0.25542  0.86193  1.0000
  H   H281      1.0  0.46370  0.38827  0.97449  1.0000
  C   C287      1.0  0.47549  0.38011  0.97099  1.0000
  Fe  Fe49      1.0  0.01606  0.52984  0.35644  1.0000
  S   S96       1.0  0.04957  0.51819  0.34711  1.0000
  Fe  Fe50      1.0  0.04244  0.55429  0.37416  1.0000
  S   S97       1.0  0.07748  0.54417  0.36654  1.0000
  S   S98       1.0  0.04626  0.57545  0.38873  1.0000
  Fe  Fe51      1.0  0.06261  0.53519  0.31542  1.0000
  S   S99       1.0  0.09157  0.53536  0.27035  1.0000
  Fe  Fe52      1.0  0.06265  0.52796  0.39840  1.0000
  S   S100      1.0  0.08827  0.51817  0.43844  1.0000
  S   S101      1.0  0.02803  0.54629  0.32124  1.0000
  S   S102      1.0  0.02871  0.53867  0.40978  1.0000
  Fe  Fe53      1.0  0.14202  0.53056  0.06207  1.0000
  S   S103      1.0  0.17126  0.54390  0.07650  1.0000
  S   S104      1.0  0.10880  0.52825  0.09756  1.0000
  Fe  Fe54      1.0  0.17072  0.54967  0.01723  1.0000
  H   H282      1.0  0.04126  0.56699  0.46322  1.0000
  Fe  Fe55      1.0  0.19556  0.52776  0.05810  1.0000
  S   S105      1.0  0.22744  0.52447  0.09569  1.0000
  S   S106      1.0  0.13929  0.53745  0.00355  1.0000
  S   S107      1.0  0.16618  0.51408  0.04635  1.0000
  C   C288      1.0  0.15962  0.51043  0.20461  1.0000
  Fe  Fe56      1.0  0.11422  0.71440  0.21613  1.0000
  H   H283      1.0  0.47677  0.66455  0.17291  1.0000
  S   S108      1.0  0.12176  0.69655  0.18175  1.0000
  Fe  Fe57      1.0  0.07408  0.72360  0.26733  1.0000
  S   S109      1.0  0.03942  0.71745  0.29381  1.0000
  S   S110      1.0  0.10931  0.71425  0.27731  1.0000
  S   S111      1.0  0.16827  0.56959  0.99251  1.0000
  S   S112      1.0  0.46331  0.65244  0.08949  1.0000
  S   S113      1.0  0.23725  0.67676  0.00799  1.0000
  S   S114      1.0  0.46677  0.67079  0.01729  1.0000
  C   C289      1.0  0.46839  0.55163  0.10189  1.0000
  Fe  Fe58      1.0  0.44698  0.65310  0.03316  1.0000
  S   S115      1.0  0.40816  0.64680  0.02571  1.0000
  S   S116      1.0  0.47505  0.63977  0.00962  1.0000
  Fe  Fe59      1.0  0.22677  0.64078  0.01760  1.0000
  Fe  Fe60      1.0  0.22383  0.66671  0.05737  1.0000
  S   S117      1.0  0.21969  0.67949  0.10778  1.0000
  C   C290      1.0  0.42023  0.53268  0.14530  1.0000
  C   C291      1.0  0.13634  0.57930  0.06684  1.0000
  S   S118      1.0  0.25233  0.65164  0.05358  1.0000
  S   S119      1.0  0.02703  0.67273  0.40861  1.0000
  C   C292      1.0  0.47069  0.56152  0.12726  1.0000
  C   C293      1.0  0.37897  0.65315  0.01812  1.0000
  H   H284      1.0  0.05062  0.60221  0.40239  1.0000
  H   H285      1.0  0.18173  0.52111  0.13731  1.0000
  S   S120      1.0  0.22617  0.61971  0.03411  1.0000
  H   H286      1.0  0.15383  0.57961  0.15490  1.0000
  C   C294      1.0  0.18684  0.70297  0.05564  1.0000
  H   H287      1.0  0.42403  0.52763  0.17138  1.0000
  H   H288      1.0  0.12160  0.53731  0.47025  1.0000
  H   H289      1.0  0.40073  0.48969  0.14276  1.0000
  H   H290      1.0  0.18365  0.58924  0.10054  1.0000
  C   C295      1.0  0.03670  0.70606  0.32919  1.0000
  C   C296      1.0  0.05617  0.69893  0.34158  1.0000
  C   C297      1.0  0.05291  0.68908  0.36700  1.0000
  C   C298      1.0  0.03023  0.68629  0.38048  1.0000
  C   C299      1.0  0.01085  0.69372  0.36914  1.0000
  C   C300      1.0  0.01411  0.70355  0.34357  1.0000
  H   H291      1.0  0.07365  0.70077  0.33088  1.0000
  H   H292      1.0  0.06803  0.68342  0.37566  1.0000
  C   C301      1.0  0.35132  0.67037  0.00286  1.0000
  C   C302      1.0  0.33615  0.64931  0.01209  1.0000
  C   C303      1.0  0.14936  0.69172  0.16256  1.0000
  C   C304      1.0  0.17042  0.69799  0.17076  1.0000
  C   C305      1.0  0.19188  0.69396  0.15427  1.0000
  C   C306      1.0  0.19240  0.68383  0.12887  1.0000
  C   C307      1.0  0.17133  0.67757  0.12063  1.0000
  C   C308      1.0  0.14997  0.68142  0.13773  1.0000
  H   H293      1.0  0.17022  0.70589  0.18995  1.0000
  H   H294      1.0  0.20811  0.69883  0.16095  1.0000
  H   H295      1.0  0.17153  0.66970  0.10135  1.0000
  H   H296      1.0  0.13379  0.67646  0.13139  1.0000
  C   C309      1.0  0.17286  0.70982  0.08062  1.0000
  H   H297      1.0  0.07578  0.69544  0.22327  1.0000
  H   H298      1.0  0.12649  0.55418  0.46422  1.0000
  C   C310      1.0  0.18510  0.58332  0.00356  1.0000
  C   C311      1.0  0.20380  0.58298  0.02875  1.0000
  H   H299      1.0  0.01607  0.67177  0.31785  1.0000
  C   C312      1.0  0.21012  0.60589  0.02112  1.0000
  C   C313      1.0  0.08944  0.68089  0.25891  1.0000
  C   C314      1.0  0.45187  0.54210  0.10826  1.0000
  C   C315      1.0  0.41747  0.49490  0.19359  1.0000
  C   C316      1.0  0.41577  0.49426  0.15539  1.0000
  C   C317      1.0  0.43349  0.49963  0.13347  1.0000
  C   C318      1.0  0.45326  0.50553  0.14942  1.0000
  C   C319      1.0  0.45502  0.50616  0.18761  1.0000
  C   C320      1.0  0.43710  0.50094  0.20955  1.0000
  S   S121      1.0  0.19723  0.53467  0.99978  1.0000
  H   H300      1.0  0.43192  0.49915  0.10392  1.0000
  H   H301      1.0  0.10360  0.55535  0.10170  1.0000
  C   C321      1.0  0.23721  0.49847  0.09034  1.0000
  C   C322      1.0  0.24357  0.51022  0.10527  1.0000
  C   C323      1.0  0.26319  0.51075  0.12910  1.0000
  C   C324      1.0  0.27643  0.49969  0.13780  1.0000
  H   H302      1.0  0.22219  0.49790  0.07197  1.0000
  H   H303      1.0  0.26824  0.51979  0.14086  1.0000
  H   H304      1.0  0.29149  0.50026  0.15610  1.0000
  C   C325      1.0  0.09511  0.53440  0.22174  1.0000
  C   C326      1.0  0.07698  0.53048  0.19819  1.0000
  C   C327      1.0  0.08136  0.52893  0.16024  1.0000
  C   C328      1.0  0.10388  0.53126  0.14523  1.0000
  C   C329      1.0  0.12190  0.53543  0.16862  1.0000
  C   C330      1.0  0.11750  0.53700  0.20653  1.0000
  H   H305      1.0  0.05969  0.52842  0.20933  1.0000
  H   H306      1.0  0.06725  0.52570  0.14248  1.0000
  H   H307      1.0  0.13934  0.53720  0.15766  1.0000
  H   H308      1.0  0.13168  0.54001  0.22445  1.0000
  C   C331      1.0  0.02583  0.58690  0.40716  1.0000
  H   H309      1.0  0.18465  0.50468  0.12330  1.0000
  S   S122      1.0  0.19732  0.65532  0.02583  1.0000
  C   C332      1.0  0.01769  0.60900  0.42620  1.0000
  C   C333      1.0  0.03303  0.59961  0.41112  1.0000
  C   C334      1.0  0.14242  0.68120  0.01349  1.0000
  N   N23       1.0  0.14814  0.58293  0.09792  1.0000
  C   C335      1.0  0.27009  0.48794  0.12285  1.0000
  H   H310      1.0  0.47958  0.55128  0.07768  1.0000
  H   H311      1.0  0.99894  0.70906  0.33430  1.0000
  H   H312      1.0  0.45872  0.56929  0.17890  1.0000
  C   C336      1.0  0.11609  0.56311  0.10066  1.0000
  H   H313      1.0  0.12515  0.67793  0.02417  1.0000
  H   H314      1.0  0.18648  0.61513  0.98311  1.0000
  H   H315      1.0  0.10775  0.68228  0.25075  1.0000
  C   C337      1.0  0.00304  0.58368  0.41868  1.0000
  C   C338      1.0  0.44041  0.55203  0.16434  1.0000
  H   H316      1.0  0.16171  0.60039  0.11844  1.0000
  H   H317      1.0  0.00963  0.66871  0.27003  1.0000
  S   S123      1.0  0.39575  0.48821  0.22237  1.0000
  H   H318      1.0  0.02353  0.61871  0.42898  1.0000
  C   C339      1.0  0.33185  0.66210  0.00384  1.0000
  H   H319      1.0  0.12486  0.56215  0.15807  1.0000
  H   H320      1.0  0.07971  0.56166  0.43416  1.0000
  H   H321      1.0  0.13758  0.51046  0.25325  1.0000
  H   H322      1.0  0.19842  0.50991  0.16463  1.0000
  N   N24       1.0  0.15285  0.69101  0.03700  1.0000
  C   C340      1.0  0.13860  0.50844  0.22402  1.0000
  C   C341      1.0  0.21619  0.59419  0.03742  1.0000
  H   H323      1.0  0.09762  0.66602  0.29739  1.0000
  C   C342      1.0  0.35954  0.64487  0.01885  1.0000
  N   N25       1.0  0.16056  0.50839  0.16751  1.0000
  C   C343      1.0  0.14079  0.50463  0.14878  1.0000
  C   C344      1.0  0.19138  0.60623  0.99593  1.0000
  C   C345      1.0  0.11954  0.50248  0.16736  1.0000
  H   H324      1.0  0.11134  0.54480  0.42971  1.0000
  C   C346      1.0  0.11846  0.50445  0.20521  1.0000
  C   C347      1.0  0.18233  0.51116  0.14730  1.0000
  H   H325      1.0  0.14113  0.50364  0.11914  1.0000
  H   H326      1.0  0.17503  0.51383  0.21930  1.0000
  H   H327      1.0  0.10371  0.49993  0.15220  1.0000
  C   C348      1.0  0.14872  0.70727  0.08336  1.0000
  H   H328      1.0  0.10182  0.50338  0.21976  1.0000
  H   H329      1.0  0.42964  0.55220  0.18898  1.0000
  H   H330      1.0  0.47007  0.51074  0.20025  1.0000
  H   H331      1.0  0.32148  0.64279  0.01297  1.0000
  N   N26       1.0  0.29518  0.67492  0.09752  1.0000
  C   C349      1.0  0.31797  0.67202  0.08740  1.0000
  C   C350      1.0  0.28274  0.66678  0.11908  1.0000
  C   C351      1.0  0.32889  0.66069  0.09870  1.0000
  C   C352      1.0  0.29303  0.65531  0.13067  1.0000
  C   C353      1.0  0.31624  0.65225  0.12024  1.0000
  C   C354      1.0  0.28377  0.68645  0.08318  1.0000
  H   H332      1.0  0.32756  0.67831  0.06947  1.0000
  H   H333      1.0  0.26450  0.66893  0.12660  1.0000
  H   H334      1.0  0.34679  0.65831  0.08979  1.0000
  H   H335      1.0  0.28283  0.64873  0.14686  1.0000
  H   H336      1.0  0.32428  0.64327  0.12833  1.0000
  H   H337      1.0  0.16515  0.59822  0.06993  1.0000
  H   H338      1.0  0.34828  0.68029  0.99657  1.0000
  H   H339      1.0  0.40221  0.53705  0.14679  1.0000
  N   N27       1.0  0.04251  0.67764  0.27984  1.0000
  C   C355      1.0  0.06000  0.67020  0.29493  1.0000
  C   C356      1.0  0.04797  0.68662  0.25435  1.0000
  H   H340      1.0  0.45045  0.53435  0.08861  1.0000
  C   C357      1.0  0.07146  0.68833  0.24344  1.0000
  H   H341      1.0  0.99721  0.57397  0.41586  1.0000
  C   C358      1.0  0.01765  0.67555  0.28956  1.0000
  H   H342      1.0  0.12027  0.69569  0.06407  1.0000
  H   H343      1.0  0.03421  0.69271  0.24287  1.0000
  H   H344      1.0  0.05567  0.66316  0.31540  1.0000
  S   S124      1.0  0.30269  0.66844  0.99578  1.0000
  C   C359      1.0  0.08374  0.67178  0.28495  1.0000
  H   H345      1.0  0.48350  0.56893  0.12269  1.0000
  C   C360      1.0  0.13893  0.69779  0.06113  1.0000
  H   H346      1.0  0.27915  0.68494  0.05385  1.0000
  H   H347      1.0  0.00732  0.68463  0.28902  1.0000
  H   H348      1.0  0.20881  0.57408  0.04149  1.0000
  H   H349      1.0  0.13788  0.71225  0.10363  1.0000
  C   C361      1.0  0.37464  0.66598  0.01030  1.0000
  H   H350      1.0  0.23069  0.59378  0.05684  1.0000
  C   C362      1.0  0.12807  0.56691  0.13228  1.0000
  H   H351      1.0  0.36258  0.63491  0.02469  1.0000
  H   H352      1.0  0.11146  0.56622  0.04274  1.0000
  C   C363      1.0  0.14431  0.57682  0.13033  1.0000
  H   H353      1.0  0.38928  0.67251  0.00974  1.0000
  C   C364      1.0  0.16545  0.59320  0.09668  1.0000
  C   C365      1.0  0.12034  0.56927  0.06765  1.0000
  S   S125      1.0  0.47473  0.51221  0.12021  1.0000
  H   H354      1.0  0.13940  0.58408  0.04107  1.0000
  H   H355      1.0  0.43851  0.50152  0.23912  1.0000
  Fe  Fe61      1.0  0.26452  0.66100  0.00214  1.0000
  C   C366      1.0  0.17645  0.69359  0.03378  1.0000
  N   N28       1.0  0.43801  0.54246  0.13908  1.0000
  S   S126      1.0  0.07765  0.72244  0.20593  1.0000
  H   H356      1.0  0.26724  0.68895  0.09836  1.0000
  C   C367      1.0  0.45675  0.56172  0.15882  1.0000
  H   H357      1.0  0.29585  0.69466  0.08539  1.0000
  H   H358      1.0  0.18746  0.68825  0.01461  1.0000
  Fe  Fe62      1.0  0.16578  0.52208  0.98860  1.0000
  Fe  Fe63      1.0  0.99568  0.66510  0.44135  1.0000
  Fe  Fe64      1.0  0.48537  0.66899  0.07221  1.0000
  C   C368      1.0  0.07551  0.55757  0.46056  1.0000
  H   H359      1.0  0.42017  0.52543  0.12298  1.0000
  C   C369      1.0  0.99493  0.60578  0.43780  1.0000
  H   H360      1.0  0.13993  0.68492  0.98527  1.0000
  H   H361      1.0  0.20575  0.70459  0.05396  1.0000
  H   H362      1.0  0.15440  0.67273  0.01168  1.0000
  C   C370      1.0  0.25039  0.48740  0.09915  1.0000
  C   C371      1.0  0.11385  0.54635  0.45965  1.0000
  H   H363      1.0  0.99330  0.69170  0.37929  1.0000
  C   C372      1.0  0.17899  0.59501  0.98724  1.0000
  H   H364      1.0  0.18083  0.71682  0.09864  1.0000
  N   N29       1.0  0.09110  0.54939  0.47728  1.0000
  H   H365      1.0  0.05473  0.66653  0.47638  1.0000
  C   C373      1.0  0.05374  0.56067  0.47695  1.0000
  S   S127      1.0  0.49062  0.68573  0.11143  1.0000
  S   S128      1.0  0.13654  0.49685  0.67931  1.0000
  C   C374      1.0  0.08871  0.68143  0.57792  1.0000
  Fe  Fe65      1.0  0.10407  0.49292  0.64491  1.0000
  S   S129      1.0  0.08079  0.50592  0.60925  1.0000
  Fe  Fe66      1.0  0.11798  0.48733  0.72639  1.0000
  S   S130      1.0  0.11363  0.49699  0.78369  1.0000
  H   H366      1.0  0.08186  0.69134  0.52777  1.0000
  C   C375      1.0  0.18025  0.72041  0.77031  1.0000
  S   S131      1.0  0.16839  0.51030  0.93470  1.0000
  C   C376      1.0  0.01498  0.72788  0.74354  1.0000
  C   C377      1.0  0.05898  0.66306  0.54938  1.0000
  S   S132      1.0  0.00920  0.65069  0.48226  1.0000
  H   H367      1.0  0.12015  0.50579  0.48825  1.0000
  S   S133      1.0  0.18402  0.67684  0.94432  1.0000
  C   C378      1.0  0.19344  0.72131  0.70753  1.0000
  C   C379      1.0  0.08381  0.67067  0.59854  1.0000
  Fe  Fe67      1.0  0.12251  0.70572  0.76168  1.0000
  S   S134      1.0  0.08311  0.70247  0.75666  1.0000
  S   S135      1.0  0.15040  0.69118  0.78128  1.0000
  C   C380      1.0  0.05262  0.67528  0.49341  1.0000
  C   C381      1.0  0.45795  0.66689  0.91639  1.0000
  Fe  Fe68      1.0  0.07941  0.72280  0.77680  1.0000
  Fe  Fe69      1.0  0.08565  0.71070  0.69999  1.0000
  S   S136      1.0  0.06684  0.70632  0.64547  1.0000
  C   C382      1.0  0.04807  0.55543  0.51077  1.0000
  S   S137      1.0  0.12550  0.71233  0.70287  1.0000
  C   C383      1.0  0.01567  0.67623  0.59944  1.0000
  C   C384      1.0  0.02111  0.68710  0.57944  1.0000
  C   C385      1.0  0.03626  0.69634  0.59450  1.0000
  C   C386      1.0  0.04629  0.69483  0.62959  1.0000
  C   C387      1.0  0.04041  0.68412  0.64999  1.0000
  C   C388      1.0  0.02510  0.67492  0.63502  1.0000
  H   H368      1.0  0.40111  0.67475  0.93888  1.0000
  H   H369      1.0  0.04056  0.70461  0.57853  1.0000
  H   H370      1.0  0.04803  0.68277  0.67693  1.0000
  H   H371      1.0  0.02095  0.66657  0.65078  1.0000
  C   C389      1.0  0.17551  0.68079  0.89852  1.0000
  C   C390      1.0  0.18613  0.67520  0.86758  1.0000
  C   C391      1.0  0.17825  0.67851  0.83203  1.0000
  C   C392      1.0  0.15975  0.68746  0.82684  1.0000
  C   C393      1.0  0.14932  0.69316  0.85777  1.0000
  C   C394      1.0  0.15712  0.68981  0.89329  1.0000
  H   H372      1.0  0.20024  0.66823  0.87100  1.0000
  H   H373      1.0  0.18646  0.67401  0.80838  1.0000
  H   H374      1.0  0.13507  0.70004  0.85437  1.0000
  H   H375      1.0  0.14874  0.69422  0.91690  1.0000
  H   H376      1.0  0.09946  0.68894  0.58953  1.0000
  S   S138      1.0  0.08440  0.48479  0.69287  1.0000
  H   H377      1.0  0.04985  0.48647  0.63376  1.0000
  C   C395      1.0  0.08595  0.54447  0.51092  1.0000
  C   C396      1.0  0.12919  0.50035  0.82570  1.0000
  C   C397      1.0  0.15253  0.49621  0.83226  1.0000
  C   C398      1.0  0.16393  0.49916  0.86588  1.0000
  C   C399      1.0  0.15238  0.50636  0.89355  1.0000
  C   C400      1.0  0.12905  0.51051  0.88701  1.0000
  C   C401      1.0  0.11762  0.50753  0.85344  1.0000
  H   H378      1.0  0.03108  0.55761  0.52342  1.0000
  H   H379      1.0  0.06032  0.68320  0.47759  1.0000
  H   H380      1.0  0.11975  0.51599  0.90783  1.0000
  H   H381      1.0  0.09955  0.51075  0.84897  1.0000
  C   C402      1.0  0.06302  0.51382  0.54273  1.0000
  C   C403      1.0  0.08246  0.50821  0.56106  1.0000
  C   C404      1.0  0.10287  0.50511  0.54099  1.0000
  C   C405      1.0  0.10406  0.50796  0.50330  1.0000
  H   H382      1.0  0.04710  0.51621  0.55795  1.0000
  H   H383      1.0  0.11798  0.50082  0.55468  1.0000
  H   H384      1.0  0.45216  0.62990  0.93664  1.0000
  C   C406      1.0  0.01628  0.70783  0.70886  1.0000
  N   N30       1.0  0.06399  0.67360  0.52923  1.0000
  S   S139      1.0  0.24028  0.64957  0.96497  1.0000
  H   H385      1.0  0.12386  0.55646  0.88766  1.0000
  C   C407      1.0  0.06887  0.66141  0.58423  1.0000
  H   H386      1.0  0.19742  0.71663  0.68161  1.0000
  H   H387      1.0  0.21200  0.53690  0.90982  1.0000
  H   H388      1.0  0.42375  0.63036  0.91368  1.0000
  H   H389      1.0  0.06007  0.54308  0.55421  1.0000
  H   H390      1.0  0.01533  0.48510  0.67501  1.0000
  C   C408      1.0  0.41679  0.66893  0.93355  1.0000
  H   H391      1.0  0.04904  0.52085  0.49119  1.0000
  S   S140      1.0  0.04957  0.72657  0.81796  1.0000
  H   H392      1.0  0.20602  0.52416  0.85287  1.0000
  H   H393      1.0  0.02620  0.72341  0.65389  1.0000
  H   H394      1.0  0.18193  0.49584  0.87042  1.0000
  C   C409      1.0  0.43797  0.67453  0.92298  1.0000
  C   C410      1.0  0.06432  0.54734  0.52806  1.0000
  C   C411      1.0  0.06405  0.51645  0.50486  1.0000
  N   N31       1.0  0.15469  0.54468  0.89259  1.0000
  C   C412      1.0  0.17629  0.54456  0.90971  1.0000
  C   C413      1.0  0.16982  0.53048  0.84597  1.0000
  C   C414      1.0  0.18580  0.71424  0.73737  1.0000
  H   H395      1.0  0.13392  0.53740  0.84838  1.0000
  C   C415      1.0  0.15126  0.53772  0.86122  1.0000
  C   C416      1.0  0.13463  0.55164  0.90908  1.0000
  H   H396      1.0  0.12330  0.54490  0.92420  1.0000
  N   N32       1.0  0.01766  0.72172  0.71060  1.0000
  C   C417      1.0  0.07855  0.68277  0.54311  1.0000
  C   C418      1.0  0.41598  0.65573  0.93759  1.0000
  H   H397      1.0  0.17407  0.71497  0.79355  1.0000
  C   C419      1.0  0.19182  0.53019  0.86346  1.0000
  H   H398      1.0  0.47456  0.67112  0.90818  1.0000
  H   H399      1.0  0.39948  0.65144  0.94600  1.0000
  H   H400      1.0  0.09089  0.66976  0.62609  1.0000
  H   H401      1.0  0.06415  0.65325  0.60055  1.0000
  H   H402      1.0  0.43899  0.68476  0.92001  1.0000
  H   H403      1.0  0.18388  0.70401  0.73496  1.0000
  C   C420      1.0  0.45656  0.65373  0.92100  1.0000
  H   H404      1.0  0.14071  0.55910  0.92863  1.0000
  H   H405      1.0  0.16176  0.49067  0.81150  1.0000
  H   H406      1.0  0.17893  0.54992  0.93490  1.0000
  H   H407      1.0  0.04660  0.65608  0.53913  1.0000
  S   S141      1.0  0.11862  0.72552  0.78484  1.0000
  H   H408      1.0  0.16676  0.52463  0.82180  1.0000
  N   N33       1.0  0.43579  0.64834  0.93185  1.0000
  C   C421      1.0  0.19516  0.53731  0.89545  1.0000
  H   H409      1.0  0.03430  0.70362  0.71248  1.0000
  H   H410      1.0  0.01373  0.68835  0.55231  1.0000
  H   H411      1.0  0.42571  0.63231  0.96294  1.0000
  H   H412      1.0  0.00913  0.70461  0.68198  1.0000
  H   H413      1.0  0.03335  0.67731  0.49700  1.0000
  H   H414      1.0  0.47234  0.64792  0.91625  1.0000
  C   C422      1.0  0.08478  0.51374  0.48507  1.0000
  H   H415      1.0  0.09826  0.53796  0.52423  1.0000
  C   C423      1.0  0.43432  0.63454  0.93634  1.0000
  S   S142      1.0  0.99816  0.66380  0.58079  1.0000
  H   H416      1.0  0.16458  0.59543  0.96766  1.0000
  Fe  Fe70      1.0  0.21198  0.66485  0.97531  1.0000
  H   H417      1.0  0.00451  0.70411  0.73058  1.0000
  H   H418      1.0  0.01132  0.72259  0.76828  1.0000
  C   C424      1.0  0.02327  0.72836  0.67976  1.0000
  S   S143      1.0  0.07940  0.73078  0.71993  1.0000
  Fe  Fe71      1.0  0.11895  0.73189  0.72571  1.0000
  H   H419      1.0  0.03089  0.96724  0.27523  1.0000
  S   S144      1.0  0.08796  0.74363  0.27029  1.0000
  H   H420      1.0  0.17956  0.73901  0.38887  1.0000
  S   S145      1.0  0.01076  0.79670  0.99071  1.0000
  S   S146      1.0  0.08922  0.75566  0.16168  1.0000
  Fe  Fe72      1.0  0.12392  0.73422  0.27735  1.0000
  H   H421      1.0  0.47937  0.81970  0.42843  1.0000
  H   H422      1.0  0.19283  0.93214  0.43752  1.0000
  S   S147      1.0  0.20390  0.78386  0.40127  1.0000
  H   H423      1.0  0.09311  0.92326  0.30169  1.0000
  H   H424      1.0  0.23405  0.80383  0.36815  1.0000
  S   S148      1.0  0.14777  0.95828  0.18920  1.0000
  H   H425      1.0  0.00135  0.75207  0.02472  1.0000
  H   H426      1.0  0.00263  0.76282  0.14952  1.0000
  S   S149      1.0  0.09275  0.95096  0.20210  1.0000
  H   H427      1.0  0.13222  0.96749  0.07802  1.0000
  Fe  Fe73      1.0  0.12344  0.95652  0.23839  1.0000
  S   S150      1.0  0.13480  0.94344  0.28679  1.0000
  Fe  Fe74      1.0  0.11597  0.95427  0.15333  1.0000
  S   S151      1.0  0.11944  0.94031  0.10502  1.0000
  H   H428      1.0  0.04728  0.83954  0.04240  1.0000
  S   S152      1.0  0.10520  0.97476  0.14790  1.0000
  Fe  Fe75      1.0  0.08363  0.97190  0.19883  1.0000
  C   C425      1.0  0.12364  0.74856  0.41179  1.0000
  H   H429      1.0  0.03652  0.76921  0.98574  1.0000
  C   C426      1.0  0.99637  0.80965  0.09855  1.0000
  C   C427      1.0  0.13648  0.94148  0.33576  1.0000
  C   C428      1.0  0.12642  0.95023  0.36064  1.0000
  C   C429      1.0  0.12689  0.94782  0.39881  1.0000
  C   C430      1.0  0.13805  0.93683  0.41313  1.0000
  C   C431      1.0  0.14860  0.92822  0.38834  1.0000
  C   C432      1.0  0.14760  0.93048  0.35008  1.0000
  H   H430      1.0  0.11794  0.95879  0.35046  1.0000
  H   H431      1.0  0.11863  0.95457  0.41749  1.0000
  H   H432      1.0  0.15722  0.91971  0.39855  1.0000
  H   H433      1.0  0.15548  0.92360  0.33137  1.0000
  C   C433      1.0  0.08614  0.92628  0.01403  1.0000
  C   C434      1.0  0.10105  0.92773  0.04490  1.0000
  C   C435      1.0  0.09933  0.93860  0.06765  1.0000
  C   C436      1.0  0.08257  0.94803  0.05901  1.0000
  H   H434      1.0  0.07368  0.91621  0.26842  1.0000
  H   H435      1.0  0.11392  0.92036  0.05135  1.0000
  H   H436      1.0  0.08098  0.95644  0.07616  1.0000
  H   H437      1.0  0.04801  0.93049  0.23013  1.0000
  S   S153      1.0  0.14922  0.73743  0.32609  1.0000
  H   H438      1.0  0.15200  0.77868  0.45255  1.0000
  H   H439      1.0  0.07645  0.75124  0.01295  1.0000
  C   C437      1.0  0.03682  0.94879  0.25059  1.0000
  N   N34       1.0  0.03864  0.75177  0.01455  1.0000
  Fe  Fe76      1.0  0.21610  0.78627  0.46086  1.0000
  H   H440      1.0  0.15006  0.97354  0.44363  1.0000
  H   H441      1.0  0.04934  0.81504  0.05805  1.0000
  N   N35       1.0  0.19185  0.95083  0.45905  1.0000
  C   C438      1.0  0.16527  0.75042  0.34503  1.0000
  C   C439      1.0  0.17857  0.74844  0.37725  1.0000
  C   C440      1.0  0.19034  0.75854  0.39491  1.0000
  C   C441      1.0  0.18929  0.77077  0.38021  1.0000
  C   C442      1.0  0.17647  0.77271  0.34750  1.0000
  C   C443      1.0  0.16436  0.76264  0.33016  1.0000
  H   H442      1.0  0.09772  0.92628  0.25392  1.0000
  H   H443      1.0  0.20044  0.75682  0.41964  1.0000
  H   H444      1.0  0.17567  0.78211  0.33566  1.0000
  H   H445      1.0  0.15428  0.76434  0.30537  1.0000
  C   C444      1.0  0.06285  0.76179  0.14104  1.0000
  C   C445      1.0  0.04033  0.75963  0.15558  1.0000
  C   C446      1.0  0.01992  0.76448  0.13780  1.0000
  C   C447      1.0  0.02166  0.77132  0.10490  1.0000
  C   C448      1.0  0.04416  0.77344  0.09023  1.0000
  C   C449      1.0  0.06461  0.76885  0.10850  1.0000
  H   H446      1.0  0.03865  0.75430  0.18067  1.0000
  C   C450      1.0  0.06310  0.74238  0.06142  1.0000
  H   H447      1.0  0.04585  0.77866  0.06496  1.0000
  H   H448      1.0  0.08195  0.77061  0.09709  1.0000
  C   C451      1.0  0.06970  0.93585  0.00501  1.0000
  H   H449      1.0  0.31414  0.78509  0.43385  1.0000
  C   C452      1.0  0.13710  0.74799  0.44401  1.0000
  N   N36       1.0  0.01881  0.82715  0.05412  1.0000
  H   H450      1.0  0.19177  0.97676  0.14619  1.0000
  H   H451      1.0  0.24775  0.82514  0.38848  1.0000
  C   C453      1.0  0.99562  0.82910  0.06397  1.0000
  C   C454      1.0  0.14356  0.77023  0.44181  1.0000
  C   C455      1.0  0.25778  0.81666  0.39586  1.0000
  H   H452      1.0  0.30533  0.80725  0.44636  1.0000
  S   S154      1.0  0.04384  0.97628  0.20171  1.0000
  Fe  Fe77      1.0  0.09432  0.74159  0.20912  1.0000
  H   H453      1.0  0.22863  0.97886  0.10949  1.0000
  H   H454      1.0  0.29384  0.77553  0.40810  1.0000
  C   C456      1.0  0.27788  0.81757  0.41802  1.0000
  C   C457      1.0  0.48183  0.82729  0.44940  1.0000
  N   N37       1.0  0.14671  0.75876  0.45874  1.0000
  C   C458      1.0  0.03645  0.75881  0.98016  1.0000
  H   H455      1.0  0.08659  0.94441  0.32190  1.0000
  C   C459      1.0  0.05071  0.93767  0.25119  1.0000
  H   H456      1.0  0.47988  0.83660  0.43551  1.0000
  C   C460      1.0  0.06804  0.94671  0.02772  1.0000
  H   H457      1.0  0.05541  0.95418  0.02106  1.0000
  C   C461      1.0  0.07243  0.94551  0.30213  1.0000
  C   C462      1.0  0.02054  0.74273  0.06780  1.0000
  C   C463      1.0  0.16266  0.96769  0.45864  1.0000
  H   H458      1.0  0.02970  0.79946  0.09821  1.0000
  H   H459      1.0  0.12842  0.78016  0.39557  1.0000
  C   C464      1.0  0.02008  0.80782  0.08878  1.0000
  H   H460      1.0  0.19160  0.97107  0.04315  1.0000
  C   C465      1.0  0.05890  0.95675  0.30231  1.0000
  N   N38       1.0  0.28264  0.79483  0.41646  1.0000
  C   C466      1.0  0.26275  0.79383  0.39515  1.0000
  C   C467      1.0  0.29012  0.80649  0.42823  1.0000
  C   C468      1.0  0.25014  0.80472  0.38431  1.0000
  H   H461      1.0  0.28707  0.78005  0.45492  1.0000
  C   C469      1.0  0.03105  0.81667  0.06621  1.0000
  C   C470      1.0  0.29502  0.78329  0.42882  1.0000
  H   H462      1.0  0.25613  0.78458  0.38709  1.0000
  H   H463      1.0  0.15905  0.95933  0.06564  1.0000
  H   H464      1.0  0.28360  0.82677  0.42808  1.0000
  H   H465      1.0  0.17434  0.95738  0.41078  1.0000
  C   C471      1.0  0.01874  0.74906  0.03430  1.0000
  N   N39       1.0  0.06825  0.93614  0.27681  1.0000
  S   S155      1.0  0.11289  0.97734  0.23804  1.0000
  H   H466      1.0  0.15598  0.96601  0.11096  1.0000
  Fe  Fe78      1.0  0.13549  0.97867  0.18669  1.0000
  S   S156      1.0  0.13155  0.73351  0.21636  1.0000
  H   H467      1.0  0.03488  0.83128  0.00319  1.0000
  H   H468      1.0  0.08764  0.91786  0.99691  1.0000
  C   C472      1.0  0.08385  0.92488  0.27513  1.0000
  C   C473      1.0  0.13019  0.77114  0.40957  1.0000
  H   H469      1.0  0.22104  0.93772  0.45421  1.0000
  H   H470      1.0  0.01927  0.84449  0.02342  1.0000
  C   C474      1.0  0.03066  0.83606  0.02972  1.0000
  H   H471      1.0  0.14030  0.73882  0.45656  1.0000
  C   C475      1.0  0.17654  0.95857  0.44016  1.0000
  H   H472      1.0  0.06270  0.96429  0.32182  1.0000
  S   S157      1.0  0.99515  0.77688  0.08340  1.0000
  H   H473      1.0  0.11685  0.73995  0.39922  1.0000
  C   C476      1.0  0.20451  0.94055  0.43959  1.0000
  C   C477      1.0  0.06065  0.74866  0.02789  1.0000
  H   H474      1.0  0.02364  0.95029  0.22927  1.0000
  C   C478      1.0  0.04099  0.95838  0.27634  1.0000
  H   H475      1.0  0.20949  0.94350  0.41148  1.0000
  H   H476      1.0  0.11065  0.76066  0.36867  1.0000
  S   S158      1.0  0.13871  0.93466  0.46202  1.0000
  C   C479      1.0  0.12018  0.76022  0.39453  1.0000
  H   H477      1.0  0.04460  0.73498  0.10813  1.0000
  C   C480      1.0  0.04288  0.73938  0.08139  1.0000
  C   C481      1.0  0.15181  0.96755  0.08155  1.0000
  H   H478      1.0  0.47113  0.97643  0.39911  1.0000
  H   H479      1.0  0.00476  0.74098  0.08389  1.0000
  C   C482      1.0  0.18234  0.97986  0.05015  1.0000
  H   H480      1.0  0.08054  0.74032  0.07271  1.0000
  H   H481      1.0  0.46753  0.82650  0.47021  1.0000
  N   N40       1.0  0.16162  0.97967  0.06966  1.0000
  S   S159      1.0  0.18779  0.82310  0.54107  1.0000
  H   H482      1.0  0.15647  0.76557  0.51177  1.0000
  S   S160      1.0  0.13800  0.74992  0.70881  1.0000
  C   C483      1.0  0.42756  0.75739  0.59646  1.0000
  Fe  Fe79      1.0  0.44254  0.78345  0.52371  1.0000
  C   C484      1.0  0.44286  0.94025  0.59540  1.0000
  H   H483      1.0  0.22238  0.94977  0.72377  1.0000
  H   H484      1.0  0.09192  0.96102  0.88936  1.0000
  C   C485      1.0  0.27684  0.94950  0.72898  1.0000
  S   S161      1.0  0.40531  0.77564  0.51096  1.0000
  H   H485      1.0  0.17566  0.75852  0.75925  1.0000
  S   S162      1.0  0.45166  0.79320  0.57675  1.0000
  S   S163      1.0  0.47262  0.76895  0.52860  1.0000
  H   H486      1.0  0.18054  0.75923  0.48427  1.0000
  H   H487      1.0  0.17693  0.73656  0.59318  1.0000
  S   S164      1.0  0.23322  0.79369  0.56265  1.0000
  C   C486      1.0  0.21979  0.85723  0.52411  1.0000
  Fe  Fe80      1.0  0.21423  0.77665  0.53939  1.0000
  S   S165      1.0  0.20044  0.75842  0.56524  1.0000
  Fe  Fe81      1.0  0.20996  0.80545  0.52496  1.0000
  C   C487      1.0  0.99367  0.84208  0.95488  1.0000
  C   C488      1.0  0.19324  0.87051  0.61862  1.0000
  Fe  Fe82      1.0  0.05703  0.91352  0.83822  1.0000
  S   S166      1.0  0.02654  0.90002  0.83460  1.0000
  S   S167      1.0  0.08223  0.92077  0.79330  1.0000
  Fe  Fe83      1.0  0.04545  0.92031  0.91967  1.0000
  S   S168      1.0  0.01414  0.90719  0.92126  1.0000
  C   C489      1.0  0.19402  0.95202  0.49628  1.0000
  Fe  Fe84      1.0  0.03753  0.89317  0.89072  1.0000
  S   S169      1.0  0.04202  0.87174  0.90047  1.0000
  Fe  Fe85      1.0  0.00523  0.91495  0.86547  1.0000
  S   S170      1.0  0.06978  0.90586  0.89269  1.0000
  S   S171      1.0  0.03479  0.92889  0.86541  1.0000
  Fe  Fe86      1.0  0.19020  0.92740  0.57191  1.0000
  S   S172      1.0  0.15114  0.93164  0.56517  1.0000
  S   S173      1.0  0.21132  0.94476  0.59018  1.0000
  Fe  Fe87      1.0  0.18428  0.90024  0.54194  1.0000
  S   S174      1.0  0.14510  0.90310  0.53230  1.0000
  H   H488      1.0  0.13312  0.92410  0.96356  1.0000
  Fe  Fe88      1.0  0.14505  0.91227  0.58897  1.0000
  S   S175      1.0  0.11726  0.90532  0.63057  1.0000
  S   S176      1.0  0.18396  0.90860  0.59918  1.0000
  C   C490      1.0  0.20197  0.84799  0.61913  1.0000
  H   H489      1.0  0.31834  0.77135  0.50425  1.0000
  S   S177      1.0  0.31482  0.94915  0.65940  1.0000
  H   H490      1.0  0.01630  0.74581  0.77266  1.0000
  S   S178      1.0  0.42471  0.97053  0.69712  1.0000
  S   S179      1.0  0.47062  0.91539  0.67523  1.0000
  C   C491      1.0  0.45814  0.93083  0.68005  1.0000
  C   C492      1.0  0.47195  0.94173  0.67778  1.0000
  C   C493      1.0  0.46147  0.95382  0.68334  1.0000
  C   C494      1.0  0.43703  0.95515  0.69022  1.0000
  C   C495      1.0  0.42312  0.94427  0.69147  1.0000
  C   C496      1.0  0.43370  0.93216  0.68684  1.0000
  H   H491      1.0  0.49075  0.94083  0.67235  1.0000
  H   H492      1.0  0.47233  0.96221  0.68216  1.0000
  H   H493      1.0  0.40428  0.94517  0.69672  1.0000
  H   H494      1.0  0.42287  0.92378  0.68851  1.0000
  C   C497      1.0  0.24087  0.94567  0.60668  1.0000
  C   C498      1.0  0.25065  0.95773  0.61301  1.0000
  C   C499      1.0  0.27347  0.95897  0.62836  1.0000
  C   C500      1.0  0.28679  0.94814  0.63745  1.0000
  C   C501      1.0  0.27713  0.93608  0.63074  1.0000
  C   C502      1.0  0.25432  0.93483  0.61534  1.0000
  H   H495      1.0  0.24042  0.96617  0.60632  1.0000
  H   H496      1.0  0.28068  0.96830  0.63335  1.0000
  H   H497      1.0  0.28732  0.92764  0.63764  1.0000
  H   H498      1.0  0.24704  0.92550  0.61062  1.0000
  C   C503      1.0  0.09193  0.91608  0.74829  1.0000
  C   C504      1.0  0.08329  0.90534  0.73002  1.0000
  C   C505      1.0  0.09125  0.90225  0.69419  1.0000
  C   C506      1.0  0.10809  0.90974  0.67605  1.0000
  C   C507      1.0  0.11685  0.92043  0.69445  1.0000
  C   C508      1.0  0.10875  0.92358  0.73017  1.0000
  H   H499      1.0  0.07055  0.89937  0.74344  1.0000
  H   H500      1.0  0.08432  0.89396  0.68039  1.0000
  H   H501      1.0  0.12972  0.92633  0.68104  1.0000
  H   H502      1.0  0.11561  0.93192  0.74381  1.0000
  S   S180      1.0  0.19380  0.91888  0.51540  1.0000
  C   C509      1.0  0.16179  0.85592  0.62510  1.0000
  H   H503      1.0  0.35895  0.78165  0.59576  1.0000
  C   C510      1.0  0.19311  0.83945  0.53212  1.0000
  C   C511      1.0  0.20095  0.86605  0.52834  1.0000
  C   C512      1.0  0.17799  0.86148  0.53306  1.0000
  C   C513      1.0  0.17414  0.84826  0.53500  1.0000
  H   H504      1.0  0.16328  0.86811  0.53594  1.0000
  H   H505      1.0  0.42515  0.93726  0.60264  1.0000
  H   H506      1.0  0.38462  0.80111  0.52685  1.0000
  C   C514      1.0  0.00226  0.86433  0.94045  1.0000
  Fe  Fe89      1.0  0.48294  0.77962  0.57971  1.0000
  C   C515      1.0  0.37555  0.78185  0.51322  1.0000
  S   S181      1.0  0.35469  0.96793  0.72670  1.0000
  H   H507      1.0  0.07236  0.75142  0.81963  1.0000
  C   C516      1.0  0.04309  0.74103  0.84154  1.0000
  H   H508      1.0  0.42172  0.74836  0.60882  1.0000
  H   H509      1.0  0.41480  0.95873  0.61707  1.0000
  H   H510      1.0  0.31069  0.97006  0.77798  1.0000
  H   H511      1.0  0.15354  0.97569  0.51147  1.0000
  S   S182      1.0  0.20744  0.88258  0.53026  1.0000
  C   C517      1.0  0.15360  0.75231  0.66714  1.0000
  C   C518      1.0  0.15863  0.74232  0.64272  1.0000
  C   C519      1.0  0.17283  0.74440  0.61157  1.0000
  C   C520      1.0  0.18185  0.75652  0.60411  1.0000
  C   C521      1.0  0.17644  0.76657  0.62816  1.0000
  C   C522      1.0  0.16250  0.76444  0.65958  1.0000
  Fe  Fe90      1.0  0.38520  0.97520  0.69333  1.0000
  H   H512      1.0  0.24112  0.94339  0.68793  1.0000
  H   H513      1.0  0.18325  0.77594  0.62281  1.0000
  H   H514      1.0  0.15870  0.77225  0.67825  1.0000
  H   H515      1.0  0.42620  0.75667  0.56606  1.0000
  C   C523      1.0  0.08422  0.95345  0.90647  1.0000
  C   C524      1.0  0.02259  0.86058  0.92096  1.0000
  C   C525      1.0  0.02823  0.84751  0.91842  1.0000
  H   H516      1.0  0.45640  0.92094  0.59131  1.0000
  H   H517      1.0  0.41465  0.79287  0.66942  1.0000
  S   S183      1.0  0.48933  0.77045  0.63550  1.0000
  C   C526      1.0  0.03138  0.76380  0.88003  1.0000
  C   C527      1.0  0.01727  0.75306  0.88380  1.0000
  C   C528      1.0  0.02316  0.74173  0.86471  1.0000
  C   C529      1.0  0.35649  0.77357  0.50695  1.0000
  C   C530      1.0  0.05703  0.75180  0.83744  1.0000
  C   C531      1.0  0.05122  0.76309  0.85669  1.0000
  C   C532      1.0  0.29636  0.95406  0.74850  1.0000
  H   H518      1.0  0.23072  0.83739  0.52386  1.0000
  N   N41       1.0  0.09977  0.94216  0.90639  1.0000
  C   C533      1.0  0.10303  0.93549  0.87443  1.0000
  C   C534      1.0  0.11092  0.93836  0.93787  1.0000
  C   C535      1.0  0.02646  0.93367  0.75865  1.0000
  H   H519      1.0  0.11947  0.91912  0.84827  1.0000
  C   C536      1.0  0.01936  0.92099  0.75795  1.0000
  H   H520      1.0  0.01845  0.82832  0.93261  1.0000
  H   H521      1.0  0.20606  0.94588  0.51140  1.0000
  H   H522      1.0  0.10832  0.94362  0.96327  1.0000
  H   H523      1.0  0.06643  0.95091  0.89570  1.0000
  H   H524      1.0  0.09415  0.93849  0.84950  1.0000
  C   C537      1.0  0.25643  0.96920  0.73742  1.0000
  H   H525      1.0  0.04515  0.93593  0.75709  1.0000
  N   N42       1.0  0.25726  0.95708  0.72350  1.0000
  C   C538      1.0  0.12510  0.92734  0.93816  1.0000
  H   H526      1.0  0.31220  0.94817  0.75151  1.0000
  N   N43       1.0  0.44817  0.95290  0.59400  1.0000
  C   C539      1.0  0.21593  0.84401  0.52594  1.0000
  C   C540      1.0  0.48857  0.94758  0.57842  1.0000
  H   H527      1.0  0.48294  0.90485  0.78657  1.0000
  H   H528      1.0  0.22832  0.86239  0.61172  1.0000
  C   C541      1.0  0.01381  0.83831  0.93498  1.0000
  H   H529      1.0  0.02608  0.75809  0.71680  1.0000
  C   C542      1.0  0.42957  0.96255  0.60043  1.0000
  H   H530      1.0  0.17158  0.83595  0.62338  1.0000
  C   C543      1.0  0.33263  0.77790  0.50903  1.0000
  Fe  Fe91      1.0  0.47559  0.80566  0.54377  1.0000
  H   H531      1.0  0.34275  0.80884  0.52982  1.0000
  C   C544      1.0  0.17785  0.84566  0.62337  1.0000
  H   H532      1.0  0.43661  0.97074  0.61633  1.0000
  C   C545      1.0  0.48707  0.92856  0.76217  1.0000
  C   C546      1.0  0.29563  0.96637  0.76289  1.0000
  Fe  Fe92      1.0  0.99671  0.78428  0.94492  1.0000
  H   H533      1.0  0.27786  0.94000  0.71721  1.0000
  Fe  Fe93      1.0  0.25805  0.79147  0.51403  1.0000
  C   C547      1.0  0.12827  0.92037  0.90577  1.0000
  H   H534      1.0  0.48838  0.90253  0.73818  1.0000
  H   H535      1.0  0.37445  0.79662  0.64284  1.0000
  H   H536      1.0  0.04388  0.84448  0.90340  1.0000
  H   H537      1.0  0.06222  0.77136  0.85350  1.0000
  C   C548      1.0  0.02334  0.74791  0.71488  1.0000
  S   S184      1.0  0.29764  0.79694  0.51871  1.0000
  Fe  Fe94      1.0  0.15453  0.92237  0.50913  1.0000
  H   H538      1.0  0.14300  0.85401  0.62710  1.0000
  S   S185      1.0  0.46460  0.79673  0.48987  1.0000
  C   C549      1.0  0.20977  0.86048  0.61683  1.0000
  S   S186      1.0  0.18919  0.78850  0.50560  1.0000
  H   H539      1.0  0.13492  0.87612  0.63339  1.0000
  C   C550      1.0  0.34645  0.79894  0.52352  1.0000
  N   N44       1.0  0.41284  0.76801  0.61011  1.0000
  C   C551      1.0  0.42125  0.77595  0.63687  1.0000
  C   C552      1.0  0.39046  0.76974  0.59637  1.0000
  C   C553      1.0  0.40759  0.78635  0.64910  1.0000
  C   C554      1.0  0.37632  0.78004  0.60792  1.0000
  C   C555      1.0  0.38506  0.78845  0.63424  1.0000
  H   H540      1.0  0.38377  0.76341  0.57523  1.0000
  H   H541      1.0  0.43891  0.77450  0.64811  1.0000
  H   H542      1.0  0.03287  0.91356  0.75600  1.0000
  H   H543      1.0  0.47099  0.85450  0.55669  1.0000
  C   C556      1.0  0.01775  0.74105  0.74619  1.0000
  C   C557      1.0  0.16455  0.96886  0.49666  1.0000
  H   H544      1.0  0.08124  0.95723  0.93470  1.0000
  C   C558      1.0  0.23658  0.95211  0.70399  1.0000
  C   C559      1.0  0.46040  0.93097  0.58880  1.0000
  H   H545      1.0  0.19458  0.75892  0.72025  1.0000
  C   C560      1.0  0.11740  0.92454  0.87357  1.0000
  C   C561      1.0  0.02605  0.74155  0.68136  1.0000
  H   H546      1.0  0.00353  0.89802  0.75556  1.0000
  C   C562      1.0  0.47063  0.95662  0.58534  1.0000
  H   H547      1.0  0.03100  0.74673  0.65700  1.0000
  S   S187      1.0  0.02548  0.77822  0.90419  1.0000
  C   C563      1.0  0.18042  0.96103  0.51564  1.0000
  S   S188      1.0  0.05255  0.93541  0.96398  1.0000
  Fe  Fe95      1.0  0.33521  0.96721  0.67255  1.0000
  S   S189      1.0  0.36684  0.97297  0.63905  1.0000
  H   H548      1.0  0.01463  0.95320  0.76293  1.0000
  C   C564      1.0  0.37030  0.79458  0.52180  1.0000
  H   H549      1.0  0.15889  0.88676  0.64027  1.0000
  C   C565      1.0  0.32739  0.79067  0.51709  1.0000
  H   H550      1.0  0.21441  0.84009  0.61585  1.0000
  S   S190      1.0  0.47360  0.82736  0.54870  1.0000
  H   H551      1.0  0.15022  0.88235  0.59430  1.0000
  C   C566      1.0  0.19215  0.75430  0.74728  1.0000
  C   C567      1.0  0.27559  0.97403  0.75729  1.0000
  H   H552      1.0  0.36020  0.76369  0.50041  1.0000
  H   H553      1.0  0.18191  0.96172  0.54527  1.0000
  H   H554      1.0  0.42230  0.96599  0.57395  1.0000
  S   S191      1.0  0.24065  0.77359  0.49318  1.0000
  N   N45       1.0  0.16961  0.86815  0.62295  1.0000
  H   H555      1.0  0.19931  0.88016  0.61492  1.0000
  C   C568      1.0  0.15260  0.87881  0.62270  1.0000
  H   H556      1.0  0.00180  0.75348  0.90129  1.0000
  H   H557      1.0  0.24094  0.97522  0.73306  1.0000
  H   H558      1.0  0.20749  0.75656  0.76511  1.0000
  H   H559      1.0  0.13884  0.91167  0.90568  1.0000
  H   H560      1.0  0.15640  0.84485  0.53964  1.0000
  C   C569      1.0  0.48336  0.93469  0.58024  1.0000
  H   H561      1.0  0.46840  0.92636  0.76458  1.0000
  H   H562      1.0  0.44663  0.75874  0.60301  1.0000
  H   H563      1.0  0.23761  0.86065  0.52034  1.0000
  H   H564      1.0  0.22964  0.95918  0.68404  1.0000
  C   C570      1.0  0.00936  0.94333  0.76185  1.0000
  H   H565      1.0  0.47481  0.96664  0.58404  1.0000
  N   N46       1.0  0.99584  0.91802  0.76021  1.0000
  H   H566      1.0  0.48034  0.94880  0.75947  1.0000
  H   H567      1.0  0.99768  0.87432  0.94279  1.0000
  C   C571      1.0  0.48729  0.85137  0.56966  1.0000
  C   C572      1.0  0.16159  0.75802  0.49167  1.0000
  H   H568      1.0  0.15997  0.74879  0.50597  1.0000
  H   H569      1.0  0.17734  0.73837  0.79828  1.0000
  H   H570      1.0  0.20134  0.73993  0.68774  1.0000
  H   H571      1.0  0.15196  0.73293  0.64818  1.0000
  N   N47       1.0  0.18979  0.74048  0.74349  1.0000
  C   C573      1.0  0.19557  0.73449  0.71119  1.0000
  C   C574      1.0  0.18221  0.73362  0.77284  1.0000
  H   H572      1.0  0.05115  0.75643  0.96087  1.0000
  H   H573      1.0  0.01975  0.75648  0.96556  1.0000
  H   H574      1.0  0.01218  0.73346  0.86789  1.0000
  S   S192      1.0  0.23530  0.80409  0.47783  1.0000
  S   S193      1.0  0.72719  0.14773  0.46086  1.0000
  S   S194      1.0  0.95630  0.15342  0.05597  1.0000
  C   C575      1.0  0.50340  0.07511  0.35194  1.0000
  Fe  Fe96      1.0  0.96888  0.16246  0.00362  1.0000
  C   C576      1.0  0.67679  0.12609  0.46631  1.0000
  H   H575      1.0  0.89006  0.99163  0.01933  1.0000
  H   H576      1.0  0.83171  0.06199  0.30143  1.0000
  Fe  Fe97      1.0  0.83534  0.22122  0.29753  1.0000
  S   S195      1.0  0.87334  0.21489  0.30519  1.0000
  S   S196      1.0  0.80334  0.21609  0.33256  1.0000
  Fe  Fe98      1.0  0.87340  0.21235  0.24344  1.0000
  S   S197      1.0  0.88291  0.19401  0.21227  1.0000
  S   S198      1.0  0.83470  0.21755  0.23661  1.0000
  H   H577      1.0  0.97162  0.21390  0.06780  1.0000
  C   C577      1.0  0.83152  0.06190  0.33119  1.0000
  H   H578      1.0  0.49627  0.02922  0.42464  1.0000
  H   H579      1.0  0.93143  0.16793  0.12776  1.0000
  H   H580      1.0  0.89418  0.17445  0.15963  1.0000
  S   S199      1.0  0.78543  0.16669  0.42854  1.0000
  C   C578      1.0  0.87248  0.05294  0.40797  1.0000
  Fe  Fe99      1.0  0.81339  0.02758  0.44017  1.0000
  S   S200      1.0  0.84428  0.02462  0.39951  1.0000
  S   S201      1.0  0.77932  0.03871  0.43245  1.0000
  Fe  Fe100     1.0  0.94917  0.03217  0.16842  1.0000
  S   S202      1.0  0.91821  0.01889  0.16701  1.0000
  C   C579      1.0  0.49519  0.00601  0.32643  1.0000
  Fe  Fe101     1.0  0.92011  0.05459  0.13831  1.0000
  S   S203      1.0  0.88712  0.04272  0.13368  1.0000
  S   S204      1.0  0.91911  0.07630  0.13256  1.0000
  Fe  Fe102     1.0  0.89631  0.03524  0.19000  1.0000
  S   S205      1.0  0.86389  0.03432  0.22850  1.0000
  Fe  Fe103     1.0  0.91098  0.02721  0.11102  1.0000
  S   S206      1.0  0.90366  0.01182  0.06761  1.0000
  S   S207      1.0  0.92785  0.04793  0.19566  1.0000
  S   S208      1.0  0.94333  0.03963  0.11140  1.0000
  C   C580      1.0  0.88689  0.01196  0.02631  1.0000
  N   N48       1.0  0.49845  0.00897  0.42251  1.0000
  C   C581      1.0  0.83591  0.01412  0.08292  1.0000
  C   C582      1.0  0.94641  0.98679  0.98549  1.0000
  H   H581      1.0  0.98125  0.19750  0.07231  1.0000
  C   C583      1.0  0.88309  0.00037  0.00786  1.0000
  H   H582      1.0  0.83405  0.03076  0.16321  1.0000
  C   C584      1.0  0.85271  0.01296  0.15430  1.0000
  C   C585      1.0  0.50721  0.99433  0.32055  1.0000
  H   H583      1.0  0.79520  0.06766  0.40404  1.0000
  C   C586      1.0  0.71061  0.00929  0.43056  1.0000
  C   C587      1.0  0.68767  0.00458  0.43636  1.0000
  C   C588      1.0  0.67504  0.99859  0.40780  1.0000
  H   H584      1.0  0.51324  0.02181  0.46103  1.0000
  C   C589      1.0  0.72051  0.00829  0.39550  1.0000
  C   C590      1.0  0.84900  0.02685  0.35154  1.0000
  C   C591      1.0  0.87225  0.02575  0.33759  1.0000
  C   C592      1.0  0.87721  0.02801  0.30023  1.0000
  C   C593      1.0  0.85889  0.03128  0.27603  1.0000
  C   C594      1.0  0.83558  0.03224  0.28988  1.0000
  C   C595      1.0  0.83065  0.03009  0.32733  1.0000
  H   H585      1.0  0.88660  0.02315  0.35589  1.0000
  H   H586      1.0  0.89520  0.02714  0.29014  1.0000
  H   H587      1.0  0.82120  0.03470  0.27150  1.0000
  H   H588      1.0  0.81267  0.03096  0.33746  1.0000
  N   N49       1.0  0.98003  0.07630  0.16854  1.0000
  C   C596      1.0  0.53287  0.01614  0.33629  1.0000
  C   C597      1.0  0.54487  0.00440  0.33119  1.0000
  C   C598      1.0  0.53207  0.99341  0.32338  1.0000
  H   H589      1.0  0.57798  0.15779  0.44518  1.0000
  H   H590      1.0  0.54295  0.02460  0.34209  1.0000
  H   H591      1.0  0.56400  0.00385  0.33323  1.0000
  H   H592      1.0  0.71576  0.00150  0.33997  1.0000
  H   H593      1.0  0.88327  0.06124  0.41606  1.0000
  H   H594      1.0  0.51525  0.19176  0.43115  1.0000
  H   H595      1.0  0.89137  0.20596  0.12255  1.0000
  H   H596      1.0  0.81923  0.03188  0.09893  1.0000
  C   C599      1.0  0.79956  0.20287  0.36194  1.0000
  C   C600      1.0  0.77726  0.20104  0.37824  1.0000
  C   C601      1.0  0.77286  0.19025  0.39974  1.0000
  C   C602      1.0  0.79074  0.18110  0.40505  1.0000
  C   C603      1.0  0.81326  0.18311  0.38970  1.0000
  C   C604      1.0  0.81769  0.19394  0.36828  1.0000
  H   H597      1.0  0.76313  0.20791  0.37354  1.0000
  H   H598      1.0  0.75543  0.18882  0.41123  1.0000
  H   H599      1.0  0.82725  0.17612  0.39382  1.0000
  H   H600      1.0  0.83495  0.19525  0.35609  1.0000
  C   C605      1.0  0.96340  0.10556  0.06937  1.0000
  C   C606      1.0  0.96550  0.09251  0.06084  1.0000
  C   C607      1.0  0.95202  0.08341  0.07960  1.0000
  C   C608      1.0  0.93611  0.08728  0.10703  1.0000
  C   C609      1.0  0.93378  0.10035  0.11518  1.0000
  C   C610      1.0  0.94737  0.10944  0.09660  1.0000
  C   C611      1.0  0.54328  0.18520  0.39552  1.0000
  H   H601      1.0  0.95398  0.07341  0.07291  1.0000
  H   H602      1.0  0.92143  0.10347  0.13621  1.0000
  H   H603      1.0  0.94548  0.11943  0.10345  1.0000
  C   C612      1.0  0.95260  0.18213  0.15437  1.0000
  C   C613      1.0  0.95228  0.19233  0.17958  1.0000
  C   C614      1.0  0.93106  0.19626  0.19703  1.0000
  C   C615      1.0  0.91000  0.18981  0.19011  1.0000
  C   C616      1.0  0.91035  0.17953  0.16515  1.0000
  C   C617      1.0  0.93145  0.17581  0.14700  1.0000
  H   H604      1.0  0.96858  0.19724  0.18565  1.0000
  H   H605      1.0  0.93112  0.20412  0.21636  1.0000
  H   H606      1.0  0.52249  0.09189  0.36811  1.0000
  C   C618      1.0  0.83823  0.02320  0.14373  1.0000
  C   C619      1.0  0.92877  0.12358  0.99981  1.0000
  H   H607      1.0  0.97430  0.20640  0.11238  1.0000
  C   C620      1.0  0.50880  0.02132  0.43142  1.0000
  S   S209      1.0  0.98122  0.11651  0.04512  1.0000
  Fe  Fe104     1.0  0.75516  0.16261  0.46851  1.0000
  Fe  Fe105     1.0  0.98508  0.16464  0.08308  1.0000
  H   H608      1.0  0.86736  0.05494  0.33533  1.0000
  N   N50       1.0  0.85845  0.00348  0.12983  1.0000
  C   C621      1.0  0.92789  0.20592  0.10473  1.0000
  H   H609      1.0  0.90862  0.18265  0.02847  1.0000
  H   H610      1.0  0.97223  0.00271  0.18384  1.0000
  C   C622      1.0  0.96903  0.20499  0.08325  1.0000
  S   S210      1.0  0.51266  0.15408  0.43248  1.0000
  N   N51       1.0  0.94427  0.20103  0.08061  1.0000
  H   H611      1.0  0.93141  0.11325  0.00511  1.0000
  H   H612      1.0  0.97780  0.05691  0.18504  1.0000
  H   H613      1.0  0.89279  0.99514  0.12972  1.0000
  C   C623      1.0  0.87763  0.02316  0.01124  1.0000
  H   H614      1.0  0.88030  0.03215  0.02515  1.0000
  S   S211      1.0  0.72669  0.01539  0.46862  1.0000
  C   C624      1.0  0.90412  0.20237  0.10254  1.0000
  C   C625      1.0  0.61593  0.15934  0.45383  1.0000
  H   H615      1.0  0.49715  0.98591  0.31433  1.0000
  C   C626      1.0  0.54953  0.19268  0.45745  1.0000
  C   C627      1.0  0.91382  0.18919  0.05011  1.0000
  C   C628      1.0  0.89711  0.19390  0.07512  1.0000
  H   H616      1.0  0.87879  0.19097  0.07337  1.0000
  H   H617      1.0  0.53197  0.00006  0.41153  1.0000
  H   H618      1.0  0.90946  0.12536  0.99619  1.0000
  N   N52       1.0  0.83626  0.17429  0.28134  1.0000
  C   C629      1.0  0.82312  0.16703  0.30451  1.0000
  C   C630      1.0  0.82649  0.18487  0.26551  1.0000
  C   C631      1.0  0.79950  0.17032  0.31230  1.0000
  C   C632      1.0  0.80307  0.18856  0.27315  1.0000
  C   C633      1.0  0.78952  0.18122  0.29668  1.0000
  C   C634      1.0  0.86113  0.17102  0.27359  1.0000
  H   H619      1.0  0.83090  0.15875  0.31765  1.0000
  H   H620      1.0  0.83698  0.19058  0.24720  1.0000
  H   H621      1.0  0.79570  0.19727  0.26178  1.0000
  H   H622      1.0  0.77161  0.18422  0.30380  1.0000
  H   H623      1.0  0.87276  0.17889  0.28273  1.0000
  H   H624      1.0  0.86704  0.16219  0.28758  1.0000
  H   H625      1.0  0.86376  0.16966  0.24357  1.0000
  H   H626      1.0  0.62030  0.15692  0.42572  1.0000
  H   H627      1.0  0.86878  0.98393  0.12928  1.0000
  H   H628      1.0  0.63046  0.12965  0.45761  1.0000
  C   C635      1.0  0.81099  0.06495  0.38864  1.0000
  H   H629      1.0  0.65754  0.99492  0.41279  1.0000
  Fe  Fe106     1.0  0.76347  0.02433  0.47092  1.0000
  H   H630      1.0  0.85960  0.01274  0.18208  1.0000
  C   C636      1.0  0.70781  0.00238  0.36688  1.0000
  H   H631      1.0  0.97776  0.08940  0.03971  1.0000
  C   C637      1.0  0.83143  0.06086  0.40709  1.0000
  H   H632      1.0  0.73809  0.01188  0.39057  1.0000
  C   C638      1.0  0.56769  0.18323  0.39193  1.0000
  H   H633      1.0  0.75000  0.98531  0.44113  1.0000
  C   C639      1.0  0.82995  0.02381  0.10772  1.0000
  C   C640      1.0  0.50797  0.01698  0.33433  1.0000
  H   H634      1.0  0.79513  0.06830  0.33579  1.0000
  C   C641      1.0  0.68519  0.99731  0.37297  1.0000
  H   H635      1.0  0.78932  0.16479  0.33162  1.0000
  H   H636      1.0  0.88339  0.04626  0.39101  1.0000
  S   S212      1.0  0.66433  0.16156  0.46276  1.0000
  H   H637      1.0  0.67893  0.13470  0.44921  1.0000
  S   S213      1.0  0.67115  0.98888  0.33670  1.0000
  H   H638      1.0  0.93327  0.21235  0.12650  1.0000
  C   C642      1.0  0.85168  0.05791  0.35056  1.0000
  C   C643      1.0  0.51294  0.99888  0.41353  1.0000
  C   C644      1.0  0.81102  0.06537  0.35042  1.0000
  C   C645      1.0  0.85015  0.00393  0.09460  1.0000
  H   H639      1.0  0.53133  0.18293  0.37307  1.0000
  C   C646      1.0  0.93744  0.19292  0.05316  1.0000
  N   N53       1.0  0.85127  0.05718  0.38800  1.0000
  Fe  Fe107     1.0  0.98441  0.13830  0.04664  1.0000
  H   H640      1.0  0.85531  0.99663  0.07490  1.0000
  C   C647      1.0  0.96339  0.08091  0.19665  1.0000
  H   H641      1.0  0.83122  0.06051  0.43677  1.0000
  H   H642      1.0  0.95026  0.18922  0.03349  1.0000
  H   H643      1.0  0.86747  0.04754  0.43282  1.0000
  S   S214      1.0  0.97977  0.17778  0.13269  1.0000
  C   C648      1.0  0.50608  0.08817  0.35716  1.0000
  H   H644      1.0  0.60161  0.18466  0.41837  1.0000
  H   H645      1.0  0.83009  0.01463  0.05457  1.0000
  C   C649      1.0  0.53417  0.19009  0.42831  1.0000
  H   H646      1.0  0.57494  0.17940  0.36656  1.0000
  H   H647      1.0  0.49347  0.09246  0.44186  1.0000
  C   C650      1.0  0.58264  0.18622  0.42134  1.0000
  H   H648      1.0  0.87601  0.99230  0.17082  1.0000
  C   C651      1.0  0.87477  0.99319  0.14053  1.0000
  C   C652      1.0  0.59187  0.15978  0.46480  1.0000
  H   H649      1.0  0.93501  0.12885  0.02442  1.0000
  H   H650      1.0  0.97298  0.08283  0.22264  1.0000
  H   H651      1.0  0.94276  0.00583  0.00744  1.0000
  N   N54       1.0  0.57343  0.19073  0.45372  1.0000
  S   S215      1.0  0.49360  0.03184  0.34279  1.0000
  H   H652      1.0  0.95395  0.08969  0.18758  1.0000
  H   H653      1.0  0.94935  0.07381  0.20161  1.0000
  C   C653      1.0  0.50336  0.98700  0.40517  1.0000
  C   C654      1.0  0.98571  0.06363  0.16639  1.0000
  H   H654      1.0  0.51781  0.06854  0.35837  1.0000
  S   S216      1.0  0.98777  0.02919  0.18538  1.0000
  H   H655      1.0  0.52498  0.02293  0.41480  1.0000
  S   S217      1.0  0.79699  0.01240  0.47543  1.0000
  H   H656      1.0  0.67979  0.00540  0.46332  1.0000
  H   H657      1.0  0.98616  0.09483  0.14735  1.0000
  H   H658      1.0  0.95561  0.98313  0.00942  1.0000
  C   C655      1.0  0.93945  0.99956  0.98422  1.0000
  H   H659      1.0  0.67097  0.11807  0.44869  1.0000
  C   C656      1.0  0.86513  0.02274  0.97769  1.0000
  C   C657      1.0  0.99064  0.08477  0.14571  1.0000
  C   C658      1.0  0.94531  0.21726  0.74665  1.0000
  Fe  Fe108     1.0  0.84501  0.20439  0.74613  1.0000
  S   S218      1.0  0.88340  0.20768  0.73333  1.0000
  S   S219      1.0  0.82707  0.18791  0.71569  1.0000
  H   H660      1.0  0.82846  0.19060  0.59801  1.0000
  S   S220      1.0  0.83514  0.22519  0.74789  1.0000
  H   H661      1.0  0.93772  0.20765  0.74249  1.0000
  Fe  Fe109     1.0  0.88997  0.20839  0.79434  1.0000
  S   S221      1.0  0.92390  0.19929  0.81771  1.0000
  C   C659      1.0  0.61897  0.13307  0.51296  1.0000
  S   S222      1.0  0.85236  0.20348  0.80700  1.0000
  H   H662      1.0  0.93140  0.22361  0.75862  1.0000
  Fe  Fe110     1.0  0.73993  0.16860  0.54675  1.0000
  S   S223      1.0  0.76687  0.15485  0.52332  1.0000
  S   S224      1.0  0.74766  0.18391  0.59033  1.0000
  S   S225      1.0  0.81146  0.98902  0.84410  1.0000
  H   H663      1.0  0.92279  0.21674  0.68261  1.0000
  Fe  Fe111     1.0  0.73680  0.14103  0.51722  1.0000
  S   S226      1.0  0.73258  0.11989  0.53027  1.0000
  H   H664      1.0  0.76830  0.99026  0.77701  1.0000
  S   S227      1.0  0.71042  0.15421  0.54565  1.0000
  H   H665      1.0  0.72332  0.09314  0.53313  1.0000
  H   H666      1.0  0.78291  0.18589  0.48312  1.0000
  C   C660      1.0  0.76816  0.22170  0.79502  1.0000
  C   C661      1.0  0.94864  0.14298  0.92027  1.0000
  H   H667      1.0  0.76778  0.20732  0.49149  1.0000
  H   H668      1.0  0.81362  0.16988  0.49855  1.0000
  Fe  Fe112     1.0  0.80509  0.02456  0.52514  1.0000
  S   S228      1.0  0.82615  0.01776  0.57618  1.0000
  S   S229      1.0  0.77091  0.03588  0.52253  1.0000
  S   S230      1.0  0.86488  0.99722  0.82112  1.0000
  S   S231      1.0  0.72909  0.17680  0.49190  1.0000
  C   C662      1.0  0.94708  0.22656  0.64795  1.0000
  H   H669      1.0  0.77864  0.06783  0.56307  1.0000
  S   S232      1.0  0.81195  0.99713  0.74097  1.0000
  Fe  Fe113     1.0  0.84470  0.99504  0.87393  1.0000
  S   S233      1.0  0.84662  0.01126  0.91605  1.0000
  C   C663      1.0  0.82158  0.01156  0.62139  1.0000
  C   C664      1.0  0.79903  0.01038  0.63699  1.0000
  C   C665      1.0  0.79654  0.00597  0.67340  1.0000
  C   C666      1.0  0.81646  0.00263  0.69495  1.0000
  C   C667      1.0  0.83899  0.00385  0.67936  1.0000
  C   C668      1.0  0.84149  0.00831  0.64301  1.0000
  H   H670      1.0  0.78349  0.01285  0.62104  1.0000
  H   H671      1.0  0.77899  0.00510  0.68493  1.0000
  H   H672      1.0  0.85454  0.00137  0.69529  1.0000
  H   H673      1.0  0.85906  0.00919  0.63152  1.0000
  C   C669      1.0  0.74966  0.10642  0.51544  1.0000
  C   C670      1.0  0.75388  0.08317  0.51083  1.0000
  H   H674      1.0  0.75975  0.23088  0.79020  1.0000
  N   N55       1.0  0.92216  0.99613  0.92474  1.0000
  H   H675      1.0  0.85899  0.05552  0.59718  1.0000
  C   C671      1.0  0.77001  0.20638  0.52166  1.0000
  C   C672      1.0  0.92876  0.98357  0.92589  1.0000
  C   C673      1.0  0.64999  0.13294  0.55852  1.0000
  C   C674      1.0  0.77656  0.08432  0.49581  1.0000
  C   C675      1.0  0.78550  0.09658  0.49013  1.0000
  C   C676      1.0  0.93569  0.13865  0.95028  1.0000
  C   C677      1.0  0.60426  0.16570  0.52585  1.0000
  C   C678      1.0  0.62834  0.16505  0.51503  1.0000
  H   H676      1.0  0.77372  0.21598  0.53297  1.0000
  H   H677      1.0  0.59987  0.16836  0.55378  1.0000
  H   H678      1.0  0.64221  0.16713  0.53462  1.0000
  H   H679      1.0  0.94372  0.15187  0.90717  1.0000
  C   C679      1.0  0.80562  0.18722  0.67977  1.0000
  C   C680      1.0  0.79138  0.19769  0.67026  1.0000
  C   C681      1.0  0.77351  0.19641  0.64336  1.0000
  C   C682      1.0  0.77005  0.18478  0.62479  1.0000
  C   C683      1.0  0.78463  0.17439  0.63374  1.0000
  C   C684      1.0  0.80208  0.17558  0.66133  1.0000
  H   H680      1.0  0.79386  0.20671  0.68409  1.0000
  H   H681      1.0  0.76234  0.20451  0.63672  1.0000
  H   H682      1.0  0.78222  0.16537  0.61985  1.0000
  H   H683      1.0  0.81287  0.16738  0.66857  1.0000
  C   C685      1.0  0.93432  0.17874  0.92860  1.0000
  C   C686      1.0  0.95356  0.18085  0.90531  1.0000
  C   C687      1.0  0.95005  0.18716  0.87160  1.0000
  C   C688      1.0  0.92737  0.19152  0.86079  1.0000
  C   C689      1.0  0.90819  0.18945  0.88419  1.0000
  C   C690      1.0  0.91165  0.18306  0.91775  1.0000
  H   H684      1.0  0.97111  0.17760  0.91314  1.0000
  H   H685      1.0  0.96505  0.18870  0.85380  1.0000
  H   H686      1.0  0.89065  0.19272  0.87636  1.0000
  H   H687      1.0  0.89660  0.18148  0.93540  1.0000
  H   H688      1.0  0.83648  0.17208  0.55677  1.0000
  S   S234      1.0  0.55576  0.16545  0.51527  1.0000
  H   H689      1.0  0.89024  0.99693  0.89453  1.0000
  C   C691      1.0  0.90842  0.00078  0.89337  1.0000
  N   N56       1.0  0.94208  0.12762  0.96752  1.0000
  Fe  Fe114     1.0  0.51912  0.16120  0.48971  1.0000
  H   H690      1.0  0.85819  0.03147  0.96607  1.0000
  H   H691      1.0  0.59204  0.20454  0.48459  1.0000
  S   S235      1.0  0.49359  0.14751  0.51572  1.0000
  S   S236      1.0  0.93725  0.17041  0.97084  1.0000
  N   N57       1.0  0.65935  0.12872  0.49527  1.0000
  C   C692      1.0  0.77209  0.10756  0.49957  1.0000
  C   C693      1.0  0.58582  0.16318  0.50081  1.0000
  H   H692      1.0  0.92117  0.01394  0.95326  1.0000
  H   H693      1.0  0.79793  0.20655  0.58087  1.0000
  H   H694      1.0  0.79061  0.19536  0.88265  1.0000
  H   H695      1.0  0.85110  0.04353  0.56332  1.0000
  Fe  Fe115     1.0  0.87424  0.22848  0.73761  1.0000
  C   C694      1.0  0.96156  0.12078  0.95603  1.0000
  H   H696      1.0  0.80014  0.18968  0.81277  1.0000
  H   H697      1.0  0.74662  0.07384  0.51515  1.0000
  H   H698      1.0  0.65582  0.13413  0.58667  1.0000
  H   H699      1.0  0.82003  0.03706  0.64324  1.0000
  H   H700      1.0  0.86811  0.99098  0.96029  1.0000
  C   C695      1.0  0.93987  0.22134  0.68122  1.0000
  H   H701      1.0  0.85491  0.03913  0.60998  1.0000
  Fe  Fe116     1.0  0.83286  0.98962  0.79149  1.0000
  H   H702      1.0  0.97898  0.13950  0.88564  1.0000
  H   H703      1.0  0.80302  0.09761  0.47859  1.0000
  C   C696      1.0  0.77066  0.21285  0.76655  1.0000
  H   H704      1.0  0.81757  0.20358  0.87069  1.0000
  Fe  Fe117     1.0  0.70161  0.16129  0.48925  1.0000
  C   C697      1.0  0.86183  0.01118  0.95878  1.0000
  C   C698      1.0  0.77686  0.21871  0.82988  1.0000
  C   C699      1.0  0.92727  0.00410  0.95343  1.0000
  C   C700      1.0  0.79792  0.20439  0.87233  1.0000
  H   H705      1.0  0.75628  0.05692  0.61208  1.0000
  H   H706      1.0  0.78389  0.19422  0.75131  1.0000
  C   C701      1.0  0.74065  0.09415  0.52091  1.0000
  C   C702      1.0  0.66647  0.13001  0.53097  1.0000
  C   C703      1.0  0.79081  0.19862  0.80819  1.0000
  C   C704      1.0  0.62609  0.13448  0.54937  1.0000
  N   N58       1.0  0.78916  0.19734  0.53044  1.0000
  C   C705      1.0  0.80175  0.19870  0.56228  1.0000
  C   C706      1.0  0.79328  0.18712  0.50785  1.0000
  C   C707      1.0  0.81908  0.18970  0.57212  1.0000
  C   C708      1.0  0.81062  0.17800  0.51660  1.0000
  C   C709      1.0  0.82345  0.17927  0.54912  1.0000
  C   C710      1.0  0.58924  0.19412  0.48409  1.0000
  S   S237      1.0  0.88378  0.22959  0.79752  1.0000
  H   H707      1.0  0.91680  0.99766  0.86715  1.0000
  N   N59       1.0  0.95370  0.22243  0.71189  1.0000
  Fe  Fe118     1.0  0.84551  0.22471  0.80776  1.0000
  H   H708      1.0  0.90676  0.01132  0.89319  1.0000
  H   H709      1.0  0.76411  0.21502  0.73929  1.0000
  C   C711      1.0  0.97498  0.12485  0.92619  1.0000
  H   H710      1.0  0.77733  0.04136  0.65233  1.0000
  N   N60       1.0  0.82308  0.04972  0.59807  1.0000
  C   C712      1.0  0.81168  0.05828  0.57589  1.0000
  C   C713      1.0  0.81107  0.04389  0.62571  1.0000
  C   C714      1.0  0.78760  0.06111  0.58092  1.0000
  C   C715      1.0  0.78687  0.04632  0.63107  1.0000
  C   C716      1.0  0.77509  0.05500  0.60849  1.0000
  C   C717      1.0  0.84831  0.04691  0.59197  1.0000
  H   H711      1.0  0.82111  0.06287  0.55382  1.0000
  H   H712      1.0  0.68501  0.12887  0.53833  1.0000
  H   H713      1.0  0.79388  0.21206  0.89267  1.0000
  H   H714      1.0  0.61312  0.13696  0.57031  1.0000
  S   S238      1.0  0.82382  0.03884  0.49013  1.0000
  C   C718      1.0  0.78186  0.20119  0.77322  1.0000
  C   C719      1.0  0.96844  0.13604  0.90825  1.0000
  N   N61       1.0  0.78817  0.20732  0.83602  1.0000
  H   H715      1.0  0.73499  0.98612  0.81986  1.0000
  H   H716      1.0  0.72305  0.98443  0.49457  1.0000
  Fe  Fe119     1.0  0.78907  0.04934  0.48419  1.0000
  H   H717      1.0  0.75310  0.20299  0.53353  1.0000
  H   H718      1.0  0.95980  0.21615  0.76711  1.0000
  C   C720      1.0  0.97455  0.22892  0.71064  1.0000
  H   H719      1.0  0.77492  0.22567  0.85180  1.0000
  H   H720      1.0  0.58148  0.19117  0.51071  1.0000
  C   C721      1.0  0.63436  0.16200  0.47877  1.0000
  H   H721      1.0  0.92078  0.14435  0.96014  1.0000
  H   H722      1.0  0.60674  0.18917  0.48168  1.0000
  H   H723      1.0  0.93569  0.22601  0.62402  1.0000
  S   S239      1.0  0.79499  0.07087  0.48521  1.0000
  S   S240      1.0  0.82736  0.23178  0.86031  1.0000
  H   H724      1.0  0.77933  0.11690  0.49530  1.0000
  C   C722      1.0  0.63598  0.13028  0.48605  1.0000
  H   H725      1.0  0.98514  0.23016  0.73521  1.0000
  H   H726      1.0  0.96717  0.11228  0.97049  1.0000
  C   C723      1.0  0.87073  0.99996  0.97425  1.0000
  H   H727      1.0  0.60049  0.13453  0.50547  1.0000
  H   H728      1.0  0.54218  0.19611  0.48322  1.0000
  H   H729      1.0  0.99072  0.11956  0.91776  1.0000
  H   H730      1.0  0.69447  0.12344  0.47770  1.0000
  C   C724      1.0  0.76659  0.33874  0.00260  1.0000
  C   C725      1.0  0.85500  0.45274  0.99318  1.0000
  H   H731      1.0  0.88342  0.42188  0.03975  1.0000
  H   H732      1.0  0.68553  0.29939  0.12433  1.0000
  H   H733      1.0  0.67125  0.30484  0.08304  1.0000
  Fe  Fe120     1.0  0.80905  0.41749  0.01094  1.0000
  S   S241      1.0  0.83167  0.42172  0.06280  1.0000
  Fe  Fe121     1.0  0.88219  0.23547  0.29412  1.0000
  Fe  Fe122     1.0  0.88334  0.47092  0.30647  1.0000
  S   S242      1.0  0.87654  0.44996  0.29911  1.0000
  H   H734      1.0  0.87148  0.41378  0.44098  1.0000
  H   H735      1.0  0.83072  0.42312  0.33938  1.0000
  S   S243      1.0  0.82254  0.45596  0.32719  1.0000
  H   H736      1.0  0.87937  0.45428  0.44465  1.0000
  Fe  Fe123     1.0  0.85801  0.45173  0.35391  1.0000
  S   S244      1.0  0.86125  0.43490  0.39352  1.0000
  Fe  Fe124     1.0  0.84179  0.45557  0.27274  1.0000
  S   S245      1.0  0.82080  0.44698  0.22388  1.0000
  C   C726      1.0  0.63054  0.29343  0.99882  1.0000
  S   S246      1.0  0.84987  0.47641  0.27652  1.0000
  Fe  Fe125     1.0  0.69836  0.29308  0.00302  1.0000
  H   H737      1.0  0.80171  0.42031  0.28896  1.0000
  H   H738      1.0  0.86826  0.27253  0.22063  1.0000
  N   N62       1.0  0.82813  0.41646  0.24844  1.0000
  C   C727      1.0  0.86095  0.41958  0.30463  1.0000
  Fe  Fe126     1.0  0.73960  0.27903  0.04249  1.0000
  H   H739      1.0  0.81874  0.41419  0.19178  1.0000
  S   S247      1.0  0.74420  0.26563  0.09134  1.0000
  H   H740      1.0  0.69054  0.42402  0.02920  1.0000
  C   C728      1.0  0.68035  0.26446  0.08189  1.0000
  C   C729      1.0  0.63957  0.26989  0.06866  1.0000
  S   S248      1.0  0.72219  0.29825  0.05060  1.0000
  S   S249      1.0  0.55497  0.27711  0.98502  1.0000
  C   C730      1.0  0.81060  0.41411  0.21954  1.0000
  C   C731      1.0  0.86372  0.44190  0.01098  1.0000
  S   S250      1.0  0.83768  0.25175  0.18382  1.0000
  C   C732      1.0  0.87685  0.42228  0.45542  1.0000
  C   C733      1.0  0.88100  0.42029  0.00981  1.0000
  S   S251      1.0  0.84406  0.24193  0.29016  1.0000
  H   H741      1.0  0.84709  0.46050  0.00891  1.0000
  C   C734      1.0  0.91870  0.25264  0.36463  1.0000
  C   C735      1.0  0.93198  0.26365  0.37150  1.0000
  C   C736      1.0  0.94080  0.26642  0.40690  1.0000
  C   C737      1.0  0.93690  0.25802  0.43574  1.0000
  C   C738      1.0  0.92338  0.24709  0.42894  1.0000
  C   C739      1.0  0.91416  0.24446  0.39373  1.0000
  H   H742      1.0  0.69511  0.25770  0.08153  1.0000
  C   C740      1.0  0.58378  0.28387  0.98970  1.0000
  S   S252      1.0  0.77012  0.41327  0.00649  1.0000
  C   C741      1.0  0.77048  0.26181  0.11647  1.0000
  C   C742      1.0  0.76942  0.25276  0.14470  1.0000
  C   C743      1.0  0.78975  0.24948  0.16546  1.0000
  C   C744      1.0  0.81144  0.25525  0.15827  1.0000
  C   C745      1.0  0.81246  0.26435  0.13021  1.0000
  C   C746      1.0  0.79217  0.26759  0.10937  1.0000
  H   H743      1.0  0.75277  0.24822  0.15048  1.0000
  C   C747      1.0  0.86643  0.27133  0.34708  1.0000
  H   H744      1.0  0.82911  0.26888  0.12436  1.0000
  H   H745      1.0  0.79332  0.27456  0.08784  1.0000
  H   H746      1.0  0.78862  0.24249  0.18695  1.0000
  H   H747      1.0  0.95111  0.27487  0.41166  1.0000
  H   H748      1.0  0.88746  0.27049  0.28141  1.0000
  H   H749      1.0  0.86609  0.26109  0.35440  1.0000
  H   H750      1.0  0.65402  0.30218  0.12391  1.0000
  H   H751      1.0  0.62234  0.26742  0.05762  1.0000
  C   C748      1.0  0.87419  0.43417  0.43823  1.0000
  C   C749      1.0  0.78168  0.36046  0.99801  1.0000
  S   S253      1.0  0.86690  0.47243  0.36263  1.0000
  H   H752      1.0  0.80070  0.27715  0.27340  1.0000
  N   N63       1.0  0.66534  0.28550  0.09503  1.0000
  C   C750      1.0  0.82828  0.42948  0.10664  1.0000
  C   C751      1.0  0.84853  0.43142  0.12868  1.0000
  C   C752      1.0  0.84681  0.43721  0.16385  1.0000
  C   C753      1.0  0.82469  0.44102  0.17791  1.0000
  C   C754      1.0  0.80447  0.43908  0.15584  1.0000
  C   C755      1.0  0.80622  0.43346  0.12050  1.0000
  H   H753      1.0  0.86573  0.42839  0.11854  1.0000
  H   H754      1.0  0.86257  0.43853  0.18029  1.0000
  H   H755      1.0  0.78722  0.44191  0.16625  1.0000
  H   H756      1.0  0.79043  0.43206  0.10419  1.0000
  C   C756      1.0  0.81983  0.27607  0.27514  1.0000
  C   C757      1.0  0.75054  0.47630  0.34306  1.0000
  C   C758      1.0  0.64355  0.28220  0.08182  1.0000
  H   H757      1.0  0.92027  0.24050  0.45101  1.0000
  H   H758      1.0  0.72061  0.42776  0.01675  1.0000
  H   H759      1.0  0.71365  0.41224  0.03392  1.0000
  S   S254      1.0  0.76715  0.28638  0.00376  1.0000
  H   H760      1.0  0.82039  0.27491  0.33385  1.0000
  H   H761      1.0  0.65549  0.25150  0.05765  1.0000
  S   S255      1.0  0.90888  0.24947  0.31905  1.0000
  H   H762      1.0  0.61269  0.31081  0.01536  1.0000
  C   C759      1.0  0.83336  0.27553  0.24319  1.0000
  S   S256      1.0  0.77094  0.32285  0.01805  1.0000
  H   H763      1.0  0.74474  0.46756  0.39546  1.0000
  C   C760      1.0  0.65816  0.26100  0.06853  1.0000
  C   C761      1.0  0.66925  0.29861  0.10730  1.0000
  C   C762      1.0  0.85783  0.27358  0.24551  1.0000
  C   C763      1.0  0.86863  0.41703  0.26893  1.0000
  C   C764      1.0  0.68364  0.27682  0.09513  1.0000
  H   H764      1.0  0.85730  0.27699  0.36881  1.0000
  H   H765      1.0  0.79671  0.42172  0.21987  1.0000
  Fe  Fe127     1.0  0.74792  0.30535  0.00864  1.0000
  H   H766      1.0  0.80220  0.40475  0.22369  1.0000
  H   H767      1.0  0.85798  0.41356  0.21326  1.0000
  Fe  Fe128     1.0  0.51640  0.28484  0.98491  1.0000
  C   C765      1.0  0.61038  0.30112  0.00596  1.0000
  H   H768      1.0  0.79515  0.36734  0.00453  1.0000
  Fe  Fe129     1.0  0.83265  0.47650  0.33232  1.0000
  C   C766      1.0  0.85187  0.41546  0.24098  1.0000
  H   H769      1.0  0.57196  0.30248  0.00709  1.0000
  H   H770      1.0  0.72579  0.39974  0.98258  1.0000
  S   S257      1.0  0.71405  0.27335  0.99746  1.0000
  S   S258      1.0  0.88520  0.23227  0.23289  1.0000
  H   H771      1.0  0.79927  0.34513  0.02679  1.0000
  H   H772      1.0  0.98708  0.25962  0.37019  1.0000
  Fe  Fe130     1.0  0.84643  0.23764  0.22968  1.0000
  H   H773      1.0  0.62930  0.28922  0.08030  1.0000
  H   H774      1.0  0.70106  0.27944  0.10506  1.0000
  C   C767      1.0  0.88129  0.44506  0.45733  1.0000
  C   C768      1.0  0.58719  0.29643  0.00127  1.0000
  H   H775      1.0  0.90401  0.23595  0.38896  1.0000
  N   N64       1.0  0.85517  0.27317  0.31124  1.0000
  C   C769      1.0  0.86851  0.27237  0.27995  1.0000
  S   S259      1.0  0.65929  0.29974  0.00783  1.0000
  C   C770      1.0  0.82048  0.41921  0.28324  1.0000
  H   H776      1.0  0.87373  0.42096  0.32659  1.0000
  H   H777      1.0  0.88525  0.27433  0.34665  1.0000
  H   H778      1.0  0.82483  0.27616  0.21652  1.0000
  H   H779      1.0  0.93558  0.27007  0.34922  1.0000
  C   C771      1.0  0.83675  0.42080  0.31183  1.0000
  S   S260      1.0  0.49811  0.30169  0.01213  1.0000
  H   H780      1.0  0.88746  0.41644  0.26296  1.0000
  C   C772      1.0  0.78395  0.34784  0.01061  1.0000
  C   C773      1.0  0.83108  0.27480  0.30916  1.0000
  H   H781      1.0  0.86242  0.44143  0.04062  1.0000
  C   C774      1.0  0.74691  0.34240  0.98162  1.0000
  C   C775      1.0  0.73863  0.47469  0.37618  1.0000
  H   H782      1.0  0.76598  0.47044  0.33640  1.0000
  C   C776      1.0  0.62715  0.28093  0.98666  1.0000
  C   C777      1.0  0.70708  0.42018  0.01656  1.0000
  H   H783      1.0  0.89812  0.41677  0.99832  1.0000
  H   H784      1.0  0.64239  0.27487  0.98104  1.0000
  H   H785      1.0  0.81000  0.30576  0.99512  1.0000
  H   H786      1.0  0.97047  0.24097  0.39364  1.0000
  C   C778      1.0  0.60395  0.27618  0.98241  1.0000
  C   C779      1.0  0.98413  0.23977  0.41542  1.0000
  N   N65       1.0  0.70279  0.41598  0.97874  1.0000
  S   S261      1.0  0.91859  0.47894  0.28737  1.0000
  N   N66       1.0  0.87310  0.43191  0.99125  1.0000
  H   H787      1.0  0.97445  0.23738  0.44098  1.0000
  H   H788      1.0  0.86740  0.41283  0.00624  1.0000
  C   C780      1.0  0.85127  0.43598  0.67414  1.0000
  Fe  Fe131     1.0  0.81586  0.41490  0.92596  1.0000
  S   S262      1.0  0.84619  0.41766  0.88437  1.0000
  S   S263      1.0  0.77718  0.41084  0.91639  1.0000
  H   H789      1.0  0.87656  0.28485  0.63857  1.0000
  S   S264      1.0  0.54926  0.46161  0.78418  1.0000
  S   S265      1.0  0.66479  0.45443  0.83148  1.0000
  S   S266      1.0  0.60024  0.47034  0.85629  1.0000
  C   C781      1.0  0.89067  0.44406  0.49315  1.0000
  Fe  Fe132     1.0  0.91540  0.41742  0.60087  1.0000
  S   S267      1.0  0.95388  0.41194  0.60975  1.0000
  S   S268      1.0  0.90428  0.43172  0.55637  1.0000
  Fe  Fe133     1.0  0.90063  0.40724  0.67751  1.0000
  S   S269      1.0  0.93794  0.40122  0.69062  1.0000
  S   S270      1.0  0.86837  0.40423  0.71510  1.0000
  Fe  Fe134     1.0  0.94914  0.41982  0.66654  1.0000
  H   H790      1.0  0.82775  0.41443  0.68044  1.0000
  Fe  Fe135     1.0  0.93993  0.39354  0.63262  1.0000
  S   S271      1.0  0.96263  0.37524  0.62779  1.0000
  S   S272      1.0  0.91160  0.42634  0.65710  1.0000
  S   S273      1.0  0.90149  0.39850  0.62031  1.0000
  Fe  Fe136     1.0  0.98325  0.27957  0.59116  1.0000
  C   C782      1.0  0.87400  0.43239  0.95384  1.0000
  C   C783      1.0  0.74463  0.35501  0.96903  1.0000
  C   C784      1.0  0.53544  0.27586  0.86120  1.0000
  S   S274      1.0  0.75085  0.27486  0.90192  1.0000
  Fe  Fe137     1.0  0.97361  0.30288  0.54394  1.0000
  S   S275      1.0  0.95269  0.32178  0.54302  1.0000
  Fe  Fe138     1.0  0.97033  0.27566  0.51033  1.0000
  C   C785      1.0  0.49958  0.43667  0.81887  1.0000
  S   S276      1.0  0.88457  0.24072  0.68878  1.0000
  C   C786      1.0  0.79767  0.32277  0.93830  1.0000
  S   S277      1.0  0.95206  0.28564  0.55750  1.0000
  S   S278      1.0  0.95040  0.25992  0.47959  1.0000
  H   H791      1.0  0.50400  0.27396  0.82794  1.0000
  H   H792      1.0  0.85603  0.42169  0.55432  1.0000
  S   S279      1.0  0.75791  0.37991  0.96057  1.0000
  H   H793      1.0  0.98764  0.39231  0.68131  1.0000
  C   C787      1.0  0.83388  0.41609  0.65270  1.0000
  C   C788      1.0  0.91041  0.24948  0.67894  1.0000
  C   C789      1.0  0.92742  0.25235  0.70559  1.0000
  C   C790      1.0  0.94774  0.25927  0.69602  1.0000
  C   C791      1.0  0.95140  0.26322  0.65970  1.0000
  C   C792      1.0  0.93434  0.26038  0.63316  1.0000
  C   C793      1.0  0.91389  0.25365  0.64283  1.0000
  H   H794      1.0  0.92486  0.24931  0.73356  1.0000
  H   H795      1.0  0.96079  0.26148  0.71680  1.0000
  H   H796      1.0  0.93687  0.26334  0.60512  1.0000
  C   C794      1.0  0.80727  0.24444  0.87097  1.0000
  C   C795      1.0  0.80154  0.24679  0.90797  1.0000
  C   C796      1.0  0.78462  0.25618  0.91794  1.0000
  C   C797      1.0  0.77295  0.26324  0.89089  1.0000
  C   C798      1.0  0.77868  0.26091  0.85384  1.0000
  C   C799      1.0  0.79582  0.25160  0.84387  1.0000
  H   H797      1.0  0.72927  0.35773  0.95297  1.0000
  H   H798      1.0  0.78036  0.25782  0.94653  1.0000
  C   C800      1.0  0.78611  0.30210  0.91962  1.0000
  S   S280      1.0  0.97331  0.43325  0.69788  1.0000
  C   C801      1.0  0.95915  0.36038  0.60437  1.0000
  C   C802      1.0  0.97661  0.35079  0.60887  1.0000
  C   C803      1.0  0.97496  0.33894  0.59053  1.0000
  C   C804      1.0  0.95577  0.33651  0.56726  1.0000
  C   C805      1.0  0.93824  0.34607  0.56292  1.0000
  C   C806      1.0  0.93987  0.35790  0.58134  1.0000
  C   C807      1.0  0.95856  0.30937  0.64437  1.0000
  H   H799      1.0  0.90666  0.27920  0.68564  1.0000
  H   H800      1.0  0.92335  0.34435  0.54493  1.0000
  H   H801      1.0  0.92632  0.36515  0.57743  1.0000
  C   C808      1.0  0.89338  0.43218  0.51033  1.0000
  H   H802      1.0  0.69391  0.40604  0.87746  1.0000
  C   C809      1.0  0.85404  0.42888  0.60982  1.0000
  C   C810      1.0  0.54812  0.27104  0.89099  1.0000
  H   H803      1.0  0.54162  0.28423  0.84712  1.0000
  H   H804      1.0  0.88852  0.41204  0.50375  1.0000
  H   H805      1.0  0.64030  0.46375  0.64745  1.0000
  N   N67       1.0  0.50386  0.46874  0.87300  1.0000
  C   C811      1.0  0.72061  0.44567  0.92058  1.0000
  C   C812      1.0  0.72150  0.43956  0.88641  1.0000
  C   C813      1.0  0.70446  0.44252  0.85934  1.0000
  C   C814      1.0  0.68647  0.45167  0.86597  1.0000
  C   C815      1.0  0.68582  0.45793  0.89992  1.0000
  C   C816      1.0  0.70279  0.45492  0.92705  1.0000
  H   H806      1.0  0.73508  0.43242  0.88107  1.0000
  H   H807      1.0  0.70511  0.43760  0.83320  1.0000
  H   H808      1.0  0.67210  0.46498  0.90542  1.0000
  C   C817      1.0  0.85181  0.41377  0.83718  1.0000
  C   C818      1.0  0.83539  0.40746  0.81498  1.0000
  C   C819      1.0  0.84081  0.40463  0.77788  1.0000
  C   C820      1.0  0.86269  0.40802  0.76231  1.0000
  C   C821      1.0  0.87906  0.41438  0.78445  1.0000
  C   C822      1.0  0.87363  0.41722  0.82153  1.0000
  H   H809      1.0  0.81856  0.40471  0.82642  1.0000
  H   H810      1.0  0.82798  0.39969  0.76121  1.0000
  H   H811      1.0  0.89595  0.41708  0.77309  1.0000
  H   H812      1.0  0.88654  0.42209  0.83825  1.0000
  H   H813      1.0  0.51383  0.34995  0.95442  1.0000
  H   H814      1.0  0.78776  0.29184  0.92162  1.0000
  C   C823      1.0  0.51271  0.44526  0.79774  1.0000
  C   C824      1.0  0.53433  0.45010  0.81062  1.0000
  C   C825      1.0  0.54296  0.44605  0.84460  1.0000
  C   C826      1.0  0.52997  0.43735  0.86555  1.0000
  H   H815      1.0  0.98238  0.40731  0.73198  1.0000
  H   H816      1.0  0.55960  0.44964  0.85480  1.0000
  H   H817      1.0  0.53682  0.43429  0.89179  1.0000
  H   H818      1.0  0.86522  0.44278  0.66610  1.0000
  H   H819      1.0  0.73343  0.33551  0.97512  1.0000
  C   C827      1.0  0.76907  0.30727  0.89594  1.0000
  C   C828      1.0  0.69615  0.40873  0.90601  1.0000
  H   H820      1.0  0.95710  0.31765  0.66335  1.0000
  S   S281      1.0  0.49207  0.42223  0.88135  1.0000
  C   C829      1.0  0.98225  0.23431  0.67784  1.0000
  Fe  Fe139     1.0  0.76952  0.42632  0.95766  1.0000
  S   S282      1.0  0.74025  0.44157  0.95684  1.0000
  H   H821      1.0  0.84866  0.46149  0.94072  1.0000
  N   N68       1.0  0.93597  0.30268  0.64279  1.0000
  C   C830      1.0  0.93144  0.29331  0.66750  1.0000
  C   C831      1.0  0.91915  0.30618  0.61762  1.0000
  C   C832      1.0  0.90993  0.28685  0.66656  1.0000
  C   C833      1.0  0.89758  0.29981  0.61556  1.0000
  C   C834      1.0  0.89305  0.29002  0.64009  1.0000
  H   H822      1.0  0.72039  0.39323  0.91815  1.0000
  H   H823      1.0  0.94475  0.29055  0.68755  1.0000
  H   H824      1.0  0.92248  0.31382  0.59858  1.0000
  S   S283      1.0  0.49915  0.28829  0.93018  1.0000
  H   H825      1.0  0.88461  0.30240  0.59485  1.0000
  C   C835      1.0  0.53149  0.46871  0.92325  1.0000
  H   H826      1.0  0.90082  0.25151  0.62202  1.0000
  H   H827      1.0  0.54916  0.25701  0.93335  1.0000
  H   H828      1.0  0.89588  0.45259  0.50765  1.0000
  H   H829      1.0  0.76974  0.26632  0.83270  1.0000
  H   H830      1.0  0.49519  0.23934  0.90563  1.0000
  S   S284      1.0  0.80792  0.43142  0.96436  1.0000
  C   C836      1.0  0.76630  0.32045  0.89386  1.0000
  C   C837      1.0  0.53952  0.26049  0.90961  1.0000
  H   H831      1.0  0.82059  0.39822  0.63250  1.0000
  C   C838      1.0  0.67432  0.45402  0.74029  1.0000
  C   C839      1.0  0.50811  0.43272  0.85301  1.0000
  H   H832      1.0  0.83485  0.40181  0.56875  1.0000
  C   C840      1.0  0.81696  0.30437  0.96681  1.0000
  C   C841      1.0  0.82966  0.40690  0.62563  1.0000
  S   S285      1.0  0.61826  0.46882  0.77028  1.0000
  H   H833      1.0  0.79995  0.24987  0.81530  1.0000
  C   C842      1.0  0.50984  0.24425  0.92017  1.0000
  H   H834      1.0  0.49999  0.45747  0.92094  1.0000
  N   N69       1.0  0.51887  0.25490  0.89890  1.0000
  S   S286      1.0  0.97735  0.27172  0.64857  1.0000
  C   C843      1.0  0.53827  0.48192  0.87070  1.0000
  H   H835      1.0  0.80811  0.32890  0.95588  1.0000
  H   H836      1.0  0.98428  0.46896  0.66266  1.0000
  H   H837      1.0  0.56409  0.27568  0.90059  1.0000
  N   N70       1.0  0.80010  0.30984  0.94047  1.0000
  H   H838      1.0  0.70198  0.45973  0.95337  1.0000
  S   S287      1.0  0.72332  0.30151  0.96160  1.0000
  S   S288      1.0  0.81952  0.40110  0.97297  1.0000
  H   H839      1.0  0.96362  0.31287  0.61684  1.0000
  H   H840      1.0  0.86560  0.44317  0.90536  1.0000
  H   H841      1.0  0.70187  0.46054  0.77647  1.0000
  H   H842      1.0  0.75772  0.30106  0.88003  1.0000
  H   H843      1.0  0.77837  0.33853  0.91445  1.0000
  N   N71       1.0  0.84648  0.42674  0.64484  1.0000
  Fe  Fe140     1.0  0.63532  0.46955  0.82631  1.0000
  H   H844      1.0  0.86393  0.43735  0.60329  1.0000
  H   H845      1.0  0.85789  0.43100  0.69906  1.0000
  C   C844      1.0  0.83770  0.40889  0.59001  1.0000
  H   H846      1.0  0.67352  0.42539  0.90235  1.0000
  C   C845      1.0  0.69305  0.47438  0.73511  1.0000
  H   H847      1.0  0.83483  0.44138  0.68115  1.0000
  H   H848      1.0  0.62860  0.47626  0.67692  1.0000
  C   C846      1.0  0.68839  0.42313  0.95654  1.0000
  H   H849      1.0  0.64593  0.45061  0.70248  1.0000
  H   H850      1.0  0.88078  0.42432  0.93810  1.0000
  H   H851      1.0  0.50594  0.44828  0.77138  1.0000
  C   C847      1.0  0.71409  0.40534  0.96525  1.0000
  C   C848      1.0  0.51435  0.27011  0.85046  1.0000
  H   H852      1.0  0.75273  0.32457  0.87635  1.0000
  C   C849      1.0  0.78075  0.32827  0.91503  1.0000
  Fe  Fe141     1.0  0.74078  0.28202  0.95929  1.0000
  Fe  Fe142     1.0  0.78028  0.39791  0.96561  1.0000
  C   C850      1.0  0.84969  0.42002  0.58191  1.0000
  C   C851      1.0  0.88652  0.42126  0.49110  1.0000
  H   H853      1.0  0.68033  0.43190  0.96669  1.0000
  C   C852      1.0  0.51061  0.46442  0.90680  1.0000
  C   C853      1.0  0.71100  0.40157  0.92873  1.0000
  C   C854      1.0  0.54532  0.47757  0.90508  1.0000
  C   C855      1.0  0.64502  0.47214  0.66448  1.0000
  Fe  Fe143     1.0  0.58368  0.47128  0.80045  1.0000
  C   C856      1.0  0.69106  0.46271  0.75259  1.0000
  N   N72       1.0  0.66174  0.46864  0.69364  1.0000
  C   C857      1.0  0.65960  0.45719  0.71077  1.0000
  C   C858      1.0  0.67821  0.47719  0.70542  1.0000
  H   H854      1.0  0.81020  0.24126  0.92914  1.0000
  C   C859      1.0  0.86548  0.44307  0.93514  1.0000
  H   H855      1.0  0.53697  0.46518  0.94984  1.0000
  C   C860      1.0  0.50622  0.25960  0.86983  1.0000
  H   H856      1.0  0.50274  0.24786  0.94677  1.0000
  H   H857      1.0  0.52416  0.23714  0.92548  1.0000
  H   H858      1.0  0.67206  0.44514  0.75475  1.0000
  H   H859      1.0  0.56156  0.48102  0.91743  1.0000
  C   C861      1.0  0.68459  0.41953  0.92002  1.0000
  H   H860      1.0  0.60163  0.26645  0.97347  1.0000
  H   H861      1.0  0.97316  0.30291  0.65354  1.0000
  C   C862      1.0  0.85588  0.45330  0.95498  1.0000
  H   H862      1.0  0.81981  0.29400  0.96212  1.0000
  H   H863      1.0  0.70551  0.48135  0.74514  1.0000
  C   C863      1.0  0.96841  0.23309  0.64633  1.0000
  H   H864      1.0  0.83440  0.30906  0.96469  1.0000
  H   H865      1.0  0.97375  0.23764  0.62108  1.0000
  C   C864      1.0  0.50620  0.36934  0.93820  1.0000
  C   C865      1.0  0.51740  0.47738  0.85493  1.0000
  S   S289      1.0  0.98952  0.29333  0.49362  1.0000
  H   H866      1.0  0.51239  0.48062  0.82780  1.0000
  H   H867      1.0  0.51897  0.36904  0.91599  1.0000
  H   H868      1.0  0.98847  0.45447  0.60900  1.0000
  H   H869      1.0  0.98873  0.33180  0.59397  1.0000
  H   H870      1.0  0.65263  0.47934  0.64587  1.0000
  C   C866      1.0  0.50353  0.35855  0.95996  1.0000
  C   C867      1.0  0.76194  0.36414  0.97718  1.0000
  H   H871      1.0  0.51305  0.39191  0.90949  1.0000
  C   C868      1.0  0.49467  0.39098  0.92001  1.0000
  N   N73       1.0  0.49244  0.37999  0.94417  1.0000
  H   H872      1.0  0.70370  0.69930  0.30968  1.0000
  Fe  Fe144     1.0  0.50922  0.52241  0.13400  1.0000
  S   S290      1.0  0.54338  0.51362  0.15442  1.0000
  Fe  Fe145     1.0  0.53341  0.54778  0.11410  1.0000
  S   S291      1.0  0.56925  0.54065  0.13322  1.0000
  H   H873      1.0  0.88502  0.50182  0.26935  1.0000
  Fe  Fe146     1.0  0.56020  0.52224  0.10430  1.0000
  S   S292      1.0  0.58651  0.51126  0.06767  1.0000
  Fe  Fe147     1.0  0.54984  0.53263  0.18205  1.0000
  S   S293      1.0  0.55886  0.53574  0.24343  1.0000
  S   S294      1.0  0.52595  0.52982  0.08264  1.0000
  S   S295      1.0  0.51414  0.54094  0.16413  1.0000
  Fe  Fe148     1.0  0.65357  0.52687  0.41813  1.0000
  S   S296      1.0  0.69037  0.53482  0.41987  1.0000
  S   S297      1.0  0.64321  0.52345  0.35756  1.0000
  H   H874      1.0  0.63073  0.52917  0.01909  1.0000
  H   H875      1.0  0.64776  0.55299  0.28852  1.0000
  H   H876      1.0  0.53569  0.54926  0.00533  1.0000
  S   S298      1.0  0.51535  0.65671  0.05158  1.0000
  Fe  Fe149     1.0  0.59265  0.71216  0.24079  1.0000
  S   S299      1.0  0.63034  0.71914  0.24039  1.0000
  S   S300      1.0  0.58495  0.69518  0.20353  1.0000
  Fe  Fe150     1.0  0.62605  0.72147  0.30167  1.0000
  S   S301      1.0  0.65204  0.71810  0.34905  1.0000
  S   S302      1.0  0.58986  0.71287  0.30237  1.0000
  S   S303      1.0  0.90448  0.66506  0.44929  1.0000
  S   S304      1.0  0.96636  0.65229  0.42220  1.0000
  C   C869      1.0  0.74338  0.48598  0.31945  1.0000
  C   C870      1.0  0.69351  0.50105  0.37284  1.0000
  C   C871      1.0  0.92239  0.51702  0.26552  1.0000
  H   H877      1.0  0.56079  0.65817  0.20756  1.0000
  H   H878      1.0  0.50380  0.60802  0.03732  1.0000
  S   S305      1.0  0.69932  0.66648  0.40623  1.0000
  H   H879      1.0  0.52000  0.60418  0.15173  1.0000
  C   C872      1.0  0.76865  0.49321  0.43479  1.0000
  H   H880      1.0  0.91397  0.49199  0.35835  1.0000
  H   H881      1.0  0.70126  0.61423  0.46021  1.0000
  C   C873      1.0  0.66246  0.70330  0.36645  1.0000
  C   C874      1.0  0.66096  0.69201  0.34613  1.0000
  C   C875      1.0  0.67186  0.68076  0.35915  1.0000
  C   C876      1.0  0.68391  0.68057  0.39297  1.0000
  C   C877      1.0  0.68476  0.69177  0.41384  1.0000
  C   C878      1.0  0.67433  0.70309  0.40043  1.0000
  H   H882      1.0  0.65201  0.69201  0.31987  1.0000
  H   H883      1.0  0.67109  0.67215  0.34280  1.0000
  H   H884      1.0  0.69400  0.69178  0.43984  1.0000
  H   H885      1.0  0.67568  0.71177  0.41634  1.0000
  C   C879      1.0  0.51725  0.68853  0.13586  1.0000
  C   C880      1.0  0.53770  0.68112  0.12999  1.0000
  C   C881      1.0  0.55834  0.68340  0.15065  1.0000
  C   C882      1.0  0.55879  0.69310  0.17738  1.0000
  C   C883      1.0  0.53848  0.70065  0.18289  1.0000
  C   C884      1.0  0.51781  0.69836  0.16222  1.0000
  H   H886      1.0  0.53758  0.67357  0.10969  1.0000
  H   H887      1.0  0.57400  0.67754  0.14610  1.0000
  H   H888      1.0  0.53859  0.70816  0.20334  1.0000
  C   C885      1.0  0.56606  0.51370  0.99829  1.0000
  C   C886      1.0  0.75271  0.50349  0.43010  1.0000
  H   H889      1.0  0.69106  0.59402  0.42855  1.0000
  C   C887      1.0  0.77187  0.50793  0.37192  1.0000
  C   C888      1.0  0.75454  0.51091  0.39861  1.0000
  H   H890      1.0  0.76747  0.48745  0.45916  1.0000
  H   H891      1.0  0.53702  0.67500  0.23830  1.0000
  C   C889      1.0  0.58211  0.53147  0.27478  1.0000
  C   C890      1.0  0.57871  0.53369  0.31264  1.0000
  C   C891      1.0  0.59692  0.53114  0.33844  1.0000
  C   C892      1.0  0.61897  0.52636  0.32675  1.0000
  C   C893      1.0  0.62229  0.52401  0.28896  1.0000
  C   C894      1.0  0.60407  0.52654  0.26319  1.0000
  H   H892      1.0  0.56182  0.53745  0.32210  1.0000
  H   H893      1.0  0.59391  0.53293  0.36731  1.0000
  H   H894      1.0  0.63915  0.52025  0.27943  1.0000
  H   H895      1.0  0.60708  0.52475  0.23430  1.0000
  C   C895      1.0  0.52055  0.58132  0.08489  1.0000
  C   C896      1.0  0.52266  0.58685  0.11972  1.0000
  C   C897      1.0  0.51129  0.60776  0.09513  1.0000
  C   C898      1.0  0.59153  0.72758  0.39486  1.0000
  C   C899      1.0  0.88663  0.50813  0.29289  1.0000
  H   H896      1.0  0.71928  0.50167  0.31130  1.0000
  C   C900      1.0  0.95872  0.49319  0.29617  1.0000
  C   C901      1.0  0.58436  0.50844  0.01950  1.0000
  Fe  Fe151     1.0  0.69897  0.52032  0.46240  1.0000
  N   N74       1.0  0.53224  0.65189  0.17369  1.0000
  S   S306      1.0  0.52610  0.56481  0.07663  1.0000
  Fe  Fe152     1.0  0.71494  0.66199  0.46264  1.0000
  C   C902      1.0  0.51813  0.59999  0.12472  1.0000
  H   H897      1.0  0.61663  0.49722  0.01776  1.0000
  S   S307      1.0  0.73015  0.50620  0.46337  1.0000
  S   S308      1.0  0.97769  0.52312  0.36098  1.0000
  C   C903      1.0  0.87223  0.51517  0.35204  1.0000
  H   H898      1.0  0.91697  0.64185  0.40693  1.0000
  C   C904      1.0  0.96459  0.50895  0.34440  1.0000
  C   C905      1.0  0.94384  0.50466  0.36143  1.0000
  C   C906      1.0  0.93029  0.49489  0.34554  1.0000
  C   C907      1.0  0.87590  0.66355  0.47021  1.0000
  H   H899      1.0  0.85736  0.66713  0.41953  1.0000
  C   C908      1.0  0.97238  0.50290  0.31223  1.0000
  H   H900      1.0  0.93778  0.50922  0.38647  1.0000
  C   C909      1.0  0.49499  0.66295  0.18153  1.0000
  C   C910      1.0  0.91627  0.63164  0.41440  1.0000
  C   C911      1.0  0.57794  0.71106  0.10993  1.0000
  H   H901      1.0  0.54656  0.70395  0.08300  1.0000
  H   H902      1.0  0.60252  0.56715  0.39766  1.0000
  C   C912      1.0  0.87736  0.63326  0.44352  1.0000
  C   C913      1.0  0.54638  0.64211  0.15457  1.0000
  H   H903      1.0  0.49472  0.67833  0.22086  1.0000
  H   H904      1.0  0.77303  0.51368  0.34755  1.0000
  H   H905      1.0  0.93472  0.62828  0.41982  1.0000
  H   H906      1.0  0.54431  0.64312  0.12436  1.0000
  H   H907      1.0  0.72807  0.67997  0.31397  1.0000
  C   C914      1.0  0.67482  0.55547  0.34767  1.0000
  H   H908      1.0  0.92255  0.53036  0.32813  1.0000
  H   H909      1.0  0.76398  0.67313  0.41572  1.0000
  C   C915      1.0  0.57016  0.72141  0.40143  1.0000
  H   H910      1.0  0.90946  0.62607  0.39078  1.0000
  H   H911      1.0  0.73012  0.70881  0.30644  1.0000
  C   C916      1.0  0.52879  0.66880  0.21820  1.0000
  H   H912      1.0  0.85948  0.51453  0.37422  1.0000
  H   H913      1.0  0.81698  0.66454  0.44570  1.0000
  H   H914      1.0  0.67870  0.49587  0.38576  1.0000
  H   H915      1.0  0.92507  0.50754  0.25229  1.0000
  N   N75       1.0  0.90524  0.51629  0.29559  1.0000
  Fe  Fe153     1.0  0.67737  0.54752  0.46589  1.0000
  C   C917      1.0  0.89116  0.52354  0.35444  1.0000
  C   C918      1.0  0.51367  0.58907  0.05532  1.0000
  C   C919      1.0  0.69329  0.59412  0.45799  1.0000
  S   S309      1.0  0.66298  0.51146  0.45874  1.0000
  S   S310      1.0  0.50630  0.62433  0.10313  1.0000
  H   H916      1.0  0.87036  0.63715  0.41821  1.0000
  H   H917      1.0  0.60384  0.72351  0.37504  1.0000
  S   S311      1.0  0.80745  0.49357  0.34006  1.0000
  C   C920      1.0  0.78739  0.49744  0.37614  1.0000
  N   N76       1.0  0.90089  0.63010  0.44637  1.0000
  H   H918      1.0  0.96438  0.48892  0.27048  1.0000
  N   N77       1.0  0.64932  0.55818  0.34511  1.0000
  C   C921      1.0  0.71740  0.70445  0.32567  1.0000
  C   C922      1.0  0.63681  0.56192  0.37556  1.0000
  H   H919      1.0  0.58179  0.56439  0.33774  1.0000
  H   H920      1.0  0.97021  0.59044  0.44283  1.0000
  H   H921      1.0  0.52208  0.72296  0.09902  1.0000
  C   C923      1.0  0.75037  0.69217  0.40763  1.0000
  C   C924      1.0  0.61370  0.55895  0.30895  1.0000
  N   N78       1.0  0.72999  0.69582  0.35065  1.0000
  C   C925      1.0  0.54220  0.65929  0.20048  1.0000
  C   C926      1.0  0.60081  0.56286  0.33977  1.0000
  H   H922      1.0  0.50209  0.70416  0.16692  1.0000
  C   C927      1.0  0.78584  0.49015  0.40792  1.0000
  C   C928      1.0  0.61239  0.56432  0.37335  1.0000
  C   C929      1.0  0.58144  0.54744  0.03384  1.0000
  H   H923      1.0  0.55049  0.56430  0.00386  1.0000
  H   H924      1.0  0.75325  0.48762  0.29443  1.0000
  H   H925      1.0  0.55205  0.51916  0.01148  1.0000
  H   H926      1.0  0.74261  0.51893  0.39480  1.0000
  H   H927      1.0  0.89347  0.52943  0.37870  1.0000
  H   H928      1.0  0.58831  0.70254  0.10384  1.0000
  C   C930      1.0  0.61496  0.53482  0.01314  1.0000
  C   C931      1.0  0.93728  0.48939  0.31218  1.0000
  H   H929      1.0  0.98828  0.50610  0.29881  1.0000
  H   H930      1.0  0.70045  0.50804  0.39297  1.0000
  H   H931      1.0  0.52800  0.58105  0.14275  1.0000
  C   C932      1.0  0.55025  0.55453  0.99198  1.0000
  C   C933      1.0  0.86987  0.50745  0.32104  1.0000
  C   C934      1.0  0.85540  0.66494  0.44830  1.0000
  H   H932      1.0  0.57161  0.55191  0.05616  1.0000
  C   C935      1.0  0.61240  0.71971  0.14169  1.0000
  H   H933      1.0  0.67800  0.54504  0.34577  1.0000
  H   H934      1.0  0.84359  0.63469  0.47136  1.0000
  H   H935      1.0  0.60468  0.55732  0.28303  1.0000
  C   C936      1.0  0.90750  0.52407  0.32563  1.0000
  C   C937      1.0  0.73793  0.70023  0.38380  1.0000
  H   H936      1.0  0.50102  0.64759  0.14343  1.0000
  H   H937      1.0  0.74994  0.66538  0.35516  1.0000
  H   H938      1.0  0.68241  0.55898  0.37402  1.0000
  H   H939      1.0  0.56557  0.64275  0.16099  1.0000
  H   H940      1.0  0.68447  0.56022  0.32520  1.0000
  H   H941      1.0  0.91605  0.52392  0.24475  1.0000
  H   H942      1.0  0.53687  0.72235  0.43033  1.0000
  S   S312      1.0  0.64012  0.54004  0.46285  1.0000
  H   H943      1.0  0.61562  0.71045  0.15549  1.0000
  C   C938      1.0  0.50888  0.65350  0.16452  1.0000
  H   H944      1.0  0.62439  0.72051  0.11775  1.0000
  H   H945      1.0  0.75603  0.69556  0.43436  1.0000
  C   C939      1.0  0.98775  0.59307  0.43396  1.0000
  C   C940      1.0  0.63804  0.55650  0.31224  1.0000
  C   C941      1.0  0.60255  0.54085  0.04157  1.0000
  H   H946      1.0  0.64565  0.56301  0.40182  1.0000
  H   H947      1.0  0.94007  0.51999  0.27581  1.0000
  Fe  Fe154     1.0  0.97837  0.63869  0.46585  1.0000
  C   C942      1.0  0.73465  0.68354  0.33996  1.0000
  C   C943      1.0  0.55436  0.71179  0.09811  1.0000
  H   H948      1.0  0.60872  0.53995  0.06963  1.0000
  C   C944      1.0  0.75497  0.67960  0.39711  1.0000
  C   C945      1.0  0.72428  0.49394  0.32931  1.0000
  H   H949      1.0  0.73418  0.70995  0.39234  1.0000
  H   H950      1.0  0.85528  0.50088  0.31908  1.0000
  C   C946      1.0  0.74722  0.67526  0.36297  1.0000
  C   C947      1.0  0.50508  0.67067  0.20844  1.0000
  H   H951      1.0  0.61704  0.72729  0.16173  1.0000
  C   C948      1.0  0.60238  0.50135  0.00169  1.0000
  H   H952      1.0  0.70781  0.71214  0.34096  1.0000
  N   N79       1.0  0.71261  0.49224  0.36176  1.0000
  S   S313      1.0  0.68261  0.56865  0.45332  1.0000
  H   H953      1.0  0.54012  0.63250  0.16215  1.0000
  Fe  Fe155     1.0  0.94356  0.66153  0.46641  1.0000
  N   N80       1.0  0.58761  0.72077  0.12986  1.0000
  C   C949      1.0  0.69911  0.60564  0.47589  1.0000
  Fe  Fe156     1.0  0.49590  0.65751  0.99757  1.0000
  H   H954      1.0  0.68592  0.50631  0.34914  1.0000
  C   C950      1.0  0.83240  0.66349  0.46309  1.0000
  S   S314      1.0  0.74066  0.64536  0.46987  1.0000
  C   C951      1.0  0.50900  0.60219  0.06037  1.0000
  H   H955      1.0  0.56584  0.71283  0.38631  1.0000
  N   N81       1.0  0.57296  0.54801  0.99876  1.0000
  C   C952      1.0  0.55392  0.72676  0.42615  1.0000
  Fe  Fe157     1.0  0.49228  0.64006  0.06519  1.0000
  S   S315      1.0  0.97486  0.61717  0.45756  1.0000
  C   C953      1.0  0.71973  0.48288  0.38532  1.0000
  C   C954      1.0  0.54059  0.72248  0.10714  1.0000
  C   C955      1.0  0.57444  0.73146  0.13794  1.0000
  S   S316      1.0  0.57614  0.73145  0.23392  1.0000
  H   H956      1.0  0.51192  0.58492  0.02825  1.0000
  C   C956      1.0  0.86215  0.63193  0.47350  1.0000
  H   H957      1.0  0.79773  0.48210  0.41167  1.0000
  H   H958      1.0  0.71137  0.48204  0.41199  1.0000
  S   S317      1.0  0.58495  0.49260  0.79596  1.0000
  S   S318      1.0  0.57730  0.73089  0.78794  1.0000
  S   S319      1.0  0.63947  0.49085  0.82483  1.0000
  Fe  Fe158     1.0  0.60305  0.49161  0.85127  1.0000
  S   S320      1.0  0.58543  0.50526  0.89303  1.0000
  C   C957      1.0  0.63047  0.69162  0.58738  1.0000
  S   S321      1.0  0.63913  0.50054  0.72091  1.0000
  Fe  Fe159     1.0  0.65277  0.52522  0.50417  1.0000
  S   S322      1.0  0.68927  0.53357  0.50952  1.0000
  S   S323      1.0  0.62916  0.51911  0.55299  1.0000
  C   C958      1.0  0.70194  0.60602  0.51400  1.0000
  C   C959      1.0  0.58466  0.50543  0.94189  1.0000
  H   H959      1.0  0.85978  0.62683  0.53040  1.0000
  C   C960      1.0  0.76742  0.66374  0.63740  1.0000
  S   S324      1.0  0.57291  0.73129  0.67415  1.0000
  H   H960      1.0  0.62836  0.53350  0.69992  1.0000
  S   S325      1.0  0.80091  0.65860  0.52081  1.0000
  H   H961      1.0  0.66859  0.54140  0.68549  1.0000
  Fe  Fe160     1.0  0.57708  0.71030  0.80510  1.0000
  S   S326      1.0  0.61640  0.70952  0.81613  1.0000
  S   S327      1.0  0.54843  0.70631  0.84819  1.0000
  H   H962      1.0  0.70117  0.59486  0.56327  1.0000
  Fe  Fe161     1.0  0.62021  0.70424  0.75573  1.0000
  S   S328      1.0  0.64153  0.68739  0.73178  1.0000
  H   H963      1.0  0.69124  0.57457  0.53154  1.0000
  S   S329      1.0  0.58071  0.70358  0.74637  1.0000
  S   S330      1.0  0.51621  0.65851  0.94327  1.0000
  S   S331      1.0  0.95466  0.64746  0.50929  1.0000
  Fe  Fe162     1.0  0.71767  0.64037  0.51800  1.0000
  S   S332      1.0  0.73875  0.65245  0.55754  1.0000
  H   H964      1.0  0.76834  0.65448  0.65025  1.0000
  H   H965      1.0  0.67674  0.55029  0.62416  1.0000
  C   C961      1.0  0.73300  0.66900  0.67563  1.0000
  Fe  Fe163     1.0  0.76056  0.65826  0.50859  1.0000
  H   H966      1.0  0.88842  0.65966  0.52473  1.0000
  Fe  Fe164     1.0  0.71351  0.66846  0.54409  1.0000
  S   S333      1.0  0.69944  0.68467  0.58107  1.0000
  N   N82       1.0  0.75024  0.67240  0.64741  1.0000
  H   H967      1.0  0.72132  0.66139  0.66500  1.0000
  C   C962      1.0  0.65905  0.54705  0.63045  1.0000
  H   H968      1.0  0.66564  0.55287  0.56204  1.0000
  C   C963      1.0  0.60245  0.70024  0.64511  1.0000
  H   H969      1.0  0.50617  0.68597  0.94970  1.0000
  H   H970      1.0  0.79699  0.65959  0.60126  1.0000
  H   H971      1.0  0.58098  0.67474  0.65771  1.0000
  C   C964      1.0  0.65786  0.68682  0.69007  1.0000
  C   C965      1.0  0.66442  0.67492  0.67492  1.0000
  C   C966      1.0  0.67692  0.67402  0.64142  1.0000
  C   C967      1.0  0.68358  0.68506  0.62320  1.0000
  C   C968      1.0  0.67739  0.69694  0.63869  1.0000
  C   C969      1.0  0.66437  0.69783  0.67164  1.0000
  H   H972      1.0  0.65953  0.66632  0.68900  1.0000
  H   H973      1.0  0.68141  0.66480  0.62978  1.0000
  H   H974      1.0  0.68245  0.70555  0.62487  1.0000
  H   H975      1.0  0.65959  0.70705  0.68299  1.0000
  C   C970      1.0  0.54109  0.69294  0.87560  1.0000
  C   C971      1.0  0.52540  0.69472  0.90533  1.0000
  C   C972      1.0  0.51824  0.68440  0.92706  1.0000
  C   C973      1.0  0.52632  0.67206  0.91888  1.0000
  C   C974      1.0  0.54201  0.67026  0.88918  1.0000
  C   C975      1.0  0.54953  0.68063  0.86789  1.0000
  H   H976      1.0  0.60757  0.71904  0.62364  1.0000
  C   C976      1.0  0.89535  0.62443  0.50946  1.0000
  H   H977      1.0  0.54834  0.66078  0.88247  1.0000
  H   H978      1.0  0.56149  0.67906  0.84508  1.0000
  H   H979      1.0  0.72149  0.67723  0.68375  1.0000
  Fe  Fe165     1.0  0.58423  0.72410  0.73056  1.0000
  C   C977      1.0  0.65453  0.54212  0.66526  1.0000
  C   C978      1.0  0.78206  0.67823  0.59205  1.0000
  H   H980      1.0  0.54904  0.48873  0.85627  1.0000
  Fe  Fe166     1.0  0.62091  0.49015  0.76953  1.0000
  S   S334      1.0  0.70875  0.62035  0.53832  1.0000
  H   H981      1.0  0.63326  0.71129  0.57222  1.0000
  C   C979      1.0  0.69333  0.58315  0.51588  1.0000
  H   H982      1.0  0.62541  0.67311  0.61011  1.0000
  C   C980      1.0  0.62117  0.68317  0.61286  1.0000
  C   C981      1.0  0.63614  0.50481  0.67338  1.0000
  C   C982      1.0  0.61460  0.50421  0.65433  1.0000
  C   C983      1.0  0.61305  0.50827  0.61739  1.0000
  C   C984      1.0  0.63298  0.51284  0.59848  1.0000
  C   C985      1.0  0.65468  0.51311  0.61723  1.0000
  C   C986      1.0  0.65617  0.50922  0.65432  1.0000
  H   H983      1.0  0.59897  0.50087  0.66823  1.0000
  H   H984      1.0  0.59611  0.50799  0.60345  1.0000
  H   H985      1.0  0.67022  0.51661  0.60342  1.0000
  H   H986      1.0  0.67298  0.50980  0.66849  1.0000
  H   H987      1.0  0.84804  0.65728  0.55106  1.0000
  C   C987      1.0  0.69899  0.59469  0.53381  1.0000
  H   H988      1.0  0.59519  0.68306  0.69514  1.0000
  H   H989      1.0  0.61528  0.53042  0.95531  1.0000
  C   C988      1.0  0.87296  0.66076  0.50740  1.0000
  C   C989      1.0  0.76440  0.68697  0.60226  1.0000
  H   H990      1.0  0.54624  0.55533  0.96227  1.0000
  H   H991      1.0  0.51870  0.70418  0.91154  1.0000
  N   N83       1.0  0.60769  0.68755  0.64161  1.0000
  C   C990      1.0  0.82946  0.66072  0.50029  1.0000
  H   H992      1.0  0.61678  0.49454  0.94993  1.0000
  H   H993      1.0  0.90276  0.62115  0.53521  1.0000
  C   C991      1.0  0.78368  0.66656  0.60979  1.0000
  C   C992      1.0  0.62571  0.70461  0.59130  1.0000
  S   S335      1.0  0.69073  0.65611  0.50828  1.0000
  H   H994      1.0  0.55240  0.51668  0.94361  1.0000
  N   N84       1.0  0.64153  0.54753  0.60448  1.0000
  C   C993      1.0  0.61920  0.54347  0.61250  1.0000
  C   C994      1.0  0.61406  0.53851  0.64705  1.0000
  C   C995      1.0  0.63190  0.53778  0.67348  1.0000
  C   C996      1.0  0.64634  0.55280  0.56817  1.0000
  H   H995      1.0  0.60547  0.54357  0.59163  1.0000
  H   H996      1.0  0.59660  0.53481  0.65278  1.0000
  H   H997      1.0  0.63788  0.54692  0.54646  1.0000
  H   H998      1.0  0.63930  0.56269  0.56650  1.0000
  H   H999      1.0  0.74224  0.66559  0.70067  1.0000
  S   S336      1.0  0.73658  0.67520  0.49761  1.0000
  C   C997      1.0  0.74864  0.68392  0.63034  1.0000
  C   C998      1.0  0.84994  0.65941  0.52227  1.0000
  H   H1000     1.0  0.64198  0.68814  0.56551  1.0000
  H   H1001     1.0  0.57802  0.54220  0.94296  1.0000
  C   C999      1.0  0.56632  0.51227  0.95975  1.0000
  C   C1000     1.0  0.58504  0.54214  0.97064  1.0000
  H   H1002     1.0  0.59143  0.70375  0.66745  1.0000
  H   H1003     1.0  0.76256  0.69594  0.58802  1.0000
  H   H1004     1.0  0.61080  0.67052  0.67270  1.0000
  H   H1005     1.0  0.73471  0.69069  0.63759  1.0000
  C   C1001     1.0  0.60248  0.49977  0.96317  1.0000
  H   H1006     1.0  0.79420  0.68036  0.56990  1.0000
  Fe  Fe167     1.0  0.61678  0.72984  0.79693  1.0000
  C   C1002     1.0  0.59806  0.67850  0.66788  1.0000
  C   C1003     1.0  0.87129  0.62757  0.50672  1.0000
  C   C1004     1.0  0.61148  0.70897  0.62020  1.0000
  S   S337      1.0  0.62383  0.72450  0.73781  1.0000
  C   C1005     1.0  0.60626  0.53551  0.97739  1.0000
  Fe  Fe168     1.0  0.98485  0.66077  0.52196  1.0000
  H   H1007     1.0  0.67944  0.48642  0.69262  1.0000
  S   S338      1.0  0.97228  0.67564  0.48196  1.0000
  H   H1008     1.0  0.92864  0.62327  0.48122  1.0000
  C   C1006     1.0  0.90996  0.62571  0.47877  1.0000
  C   C1007     1.0  0.69038  0.58280  0.47777  1.0000
  H   H1009     1.0  0.63268  0.73880  0.39480  1.0000
  S   S339      1.0  0.95608  0.79902  0.02023  1.0000
  H   H1010     1.0  0.63878  0.92464  0.35320  1.0000
  S   S340      1.0  0.74991  0.77189  0.00911  1.0000
  H   H1011     1.0  0.66264  0.95772  0.14159  1.0000
  S   S341      1.0  0.73809  0.79895  0.04810  1.0000
  C   C1008     1.0  0.67976  0.75260  0.01415  1.0000
  Fe  Fe169     1.0  0.76430  0.79165  0.00561  1.0000
  S   S342      1.0  0.64237  0.89968  0.98773  1.0000
  Fe  Fe170     1.0  0.72185  0.77951  0.04766  1.0000
  S   S343      1.0  0.71395  0.76747  0.09842  1.0000
  H   H1012     1.0  0.64080  0.90999  0.32684  1.0000
  S   S344      1.0  0.69601  0.78425  0.00296  1.0000
  Fe  Fe171     1.0  0.98703  0.78533  0.02699  1.0000
  S   S345      1.0  0.61234  0.74175  0.29720  1.0000
  H   H1013     1.0  0.89032  0.79930  0.01548  1.0000
  Fe  Fe172     1.0  0.57627  0.73300  0.29571  1.0000
  S   S346      1.0  0.62103  0.75273  0.18923  1.0000
  Fe  Fe173     1.0  0.68181  0.89809  0.97857  1.0000
  H   H1014     1.0  0.72613  0.83006  0.05927  1.0000
  H   H1015     1.0  0.57123  0.95089  0.43607  1.0000
  S   S347      1.0  0.58992  0.95112  0.32009  1.0000
  C   C1009     1.0  0.68815  0.94785  0.04730  1.0000
  H   H1016     1.0  0.65746  0.84249  0.00497  1.0000
  S   S348      1.0  0.64551  0.95571  0.33285  1.0000
  C   C1010     1.0  0.65374  0.95745  0.01606  1.0000
  Fe  Fe174     1.0  0.62143  0.95462  0.28353  1.0000
  S   S349      1.0  0.63628  0.94101  0.23820  1.0000
  Fe  Fe175     1.0  0.61351  0.95381  0.36905  1.0000
  S   S350      1.0  0.61792  0.93996  0.41678  1.0000
  Fe  Fe176     1.0  0.63792  0.97668  0.33440  1.0000
  S   S351      1.0  0.60735  0.97492  0.37392  1.0000
  S   S352      1.0  0.54591  0.97822  0.31876  1.0000
  S   S353      1.0  0.80288  0.79823  0.01417  1.0000
  H   H1017     1.0  0.66439  0.95559  0.99084  1.0000
  C   C1011     1.0  0.66553  0.96368  0.42763  1.0000
  H   H1018     1.0  0.64109  0.96301  0.08448  1.0000
  Fe  Fe177     1.0  0.64986  0.91853  0.01612  1.0000
  S   S354      1.0  0.63040  0.92873  0.06447  1.0000
  S   S355      1.0  0.68945  0.91621  0.01034  1.0000
  C   C1012     1.0  0.63425  0.93782  0.18975  1.0000
  C   C1013     1.0  0.65030  0.92902  0.17353  1.0000
  C   C1014     1.0  0.64940  0.92605  0.13556  1.0000
  C   C1015     1.0  0.63220  0.93174  0.11302  1.0000
  C   C1016     1.0  0.61608  0.94048  0.12930  1.0000
  C   C1017     1.0  0.61716  0.94357  0.16717  1.0000
  H   H1019     1.0  0.66361  0.92446  0.19047  1.0000
  H   H1020     1.0  0.66196  0.91932  0.12376  1.0000
  H   H1021     1.0  0.60263  0.94496  0.11240  1.0000
  H   H1022     1.0  0.60459  0.95031  0.17892  1.0000
  C   C1018     1.0  0.71811  0.97985  0.46895  1.0000
  C   C1019     1.0  0.71908  0.74247  0.00678  1.0000
  H   H1023     1.0  0.49705  0.75852  0.42953  1.0000
  C   C1020     1.0  0.73329  0.98036  0.43885  1.0000
  H   H1024     1.0  0.56313  0.77632  0.40495  1.0000
  Fe  Fe178     1.0  0.71394  0.80340  0.00065  1.0000
  S   S356      1.0  0.54368  0.73825  0.33050  1.0000
  H   H1025     1.0  0.74297  0.81945  0.13027  1.0000
  C   C1021     1.0  0.67024  0.95516  0.11514  1.0000
  C   C1022     1.0  0.53859  0.75028  0.36441  1.0000
  C   C1023     1.0  0.55491  0.75988  0.37163  1.0000
  C   C1024     1.0  0.55040  0.76893  0.39972  1.0000
  C   C1025     1.0  0.52958  0.76851  0.42102  1.0000
  C   C1026     1.0  0.51320  0.75896  0.41362  1.0000
  C   C1027     1.0  0.51765  0.74996  0.38541  1.0000
  H   H1026     1.0  0.57095  0.76036  0.35550  1.0000
  H   H1027     1.0  0.65684  0.96178  0.45434  1.0000
  C   C1028     1.0  0.65816  0.95816  0.08274  1.0000
  H   H1028     1.0  0.61452  0.75201  0.37970  1.0000
  H   H1029     1.0  0.66644  0.95449  0.41243  1.0000
  H   H1030     1.0  0.73742  0.97603  0.38134  1.0000
  Fe  Fe179     1.0  0.61374  0.73862  0.23566  1.0000
  H   H1031     1.0  0.69804  0.96616  0.37574  1.0000
  H   H1032     1.0  0.51001  0.80661  0.45294  1.0000
  H   H1033     1.0  0.84972  0.80582  0.03553  1.0000
  S   S357      1.0  0.61522  0.97586  0.28310  1.0000
  N   N85       1.0  0.68924  0.96900  0.43212  1.0000
  H   H1034     1.0  0.69522  0.94485  0.02093  1.0000
  C   C1029     1.0  0.68763  0.76305  0.12200  1.0000
  C   C1030     1.0  0.66519  0.76787  0.11260  1.0000
  C   C1031     1.0  0.64507  0.76453  0.13334  1.0000
  C   C1032     1.0  0.64701  0.75626  0.16346  1.0000
  C   C1033     1.0  0.66938  0.75127  0.17237  1.0000
  C   C1034     1.0  0.68953  0.75470  0.15188  1.0000
  H   H1035     1.0  0.66335  0.77429  0.08974  1.0000
  H   H1036     1.0  0.62787  0.76848  0.12619  1.0000
  H   H1037     1.0  0.67126  0.74493  0.19545  1.0000
  H   H1038     1.0  0.70678  0.75093  0.15950  1.0000
  H   H1039     1.0  0.71685  0.93899  0.07728  1.0000
  C   C1035     1.0  0.65657  0.75498  0.00210  1.0000
  H   H1040     1.0  0.66344  0.86575  0.99859  1.0000
  H   H1041     1.0  0.73157  0.83551  0.98538  1.0000
  C   C1036     1.0  0.70395  0.96955  0.40237  1.0000
  H   H1042     1.0  0.70056  0.94550  0.13828  1.0000
  C   C1037     1.0  0.57600  0.94386  0.45634  1.0000
  C   C1038     1.0  0.67832  0.85922  0.99558  1.0000
  H   H1043     1.0  0.64514  0.76157  0.01706  1.0000
  H   H1044     1.0  0.64266  0.92529  0.30471  1.0000
  Fe  Fe180     1.0  0.58509  0.97250  0.32283  1.0000
  H   H1045     1.0  0.65413  0.97043  0.41203  1.0000
  C   C1039     1.0  0.69410  0.83732  0.99555  1.0000
  C   C1040     1.0  0.72623  0.97516  0.40534  1.0000
  H   H1046     1.0  0.72311  0.74767  0.03271  1.0000
  C   C1041     1.0  0.51709  0.81481  0.46723  1.0000
  H   H1047     1.0  0.50481  0.74264  0.37993  1.0000
  C   C1042     1.0  0.85192  0.79826  0.01550  1.0000
  S   S358      1.0  0.68889  0.82080  0.00195  1.0000
  C   C1043     1.0  0.70054  0.94454  0.07915  1.0000
  C   C1044     1.0  0.72001  0.85525  0.98474  1.0000
  C   C1045     1.0  0.83163  0.79238  0.00087  1.0000
  S   S359      1.0  0.52532  0.77996  0.45683  1.0000
  H   H1048     1.0  0.68599  0.75737  0.03871  1.0000
  N   N86       1.0  0.66723  0.95456  0.04941  1.0000
  C   C1046     1.0  0.87503  0.79458  0.00418  1.0000
  H   H1049     1.0  0.63774  0.95140  0.01489  1.0000
  C   C1047     1.0  0.67499  0.84600  0.99919  1.0000
  C   C1048     1.0  0.59762  0.93724  0.45336  1.0000
  H   H1050     1.0  0.96546  0.82175  0.09304  1.0000
  N   N87       1.0  0.50500  0.82618  0.46746  1.0000
  H   H1051     1.0  0.64813  0.96760  0.01587  1.0000
  C   C1049     1.0  0.69147  0.94823  0.11327  1.0000
  H   H1052     1.0  0.73755  0.85877  0.97907  1.0000
  N   N88       1.0  0.70950  0.82066  0.10312  1.0000
  C   C1050     1.0  0.72587  0.81510  0.12586  1.0000
  C   C1051     1.0  0.68842  0.81483  0.09604  1.0000
  C   C1052     1.0  0.72117  0.80348  0.14261  1.0000
  C   C1053     1.0  0.68312  0.80323  0.11243  1.0000
  C   C1054     1.0  0.69961  0.79756  0.13592  1.0000
  C   C1055     1.0  0.71545  0.83241  0.08409  1.0000
  H   H1053     1.0  0.67574  0.81902  0.07709  1.0000
  H   H1054     1.0  0.73438  0.79890  0.15988  1.0000
  H   H1055     1.0  0.66654  0.79854  0.10640  1.0000
  H   H1056     1.0  0.69594  0.78844  0.14830  1.0000
  H   H1057     1.0  0.69925  0.83768  0.07509  1.0000
  H   H1058     1.0  0.72569  0.83889  0.10209  1.0000
  N   N89       1.0  0.60806  0.91998  0.32197  1.0000
  C   C1056     1.0  0.59865  0.92032  0.28738  1.0000
  C   C1057     1.0  0.59353  0.91937  0.35192  1.0000
  C   C1058     1.0  0.57408  0.92082  0.28222  1.0000
  C   C1059     1.0  0.56888  0.91990  0.34781  1.0000
  C   C1060     1.0  0.55913  0.92074  0.31271  1.0000
  C   C1061     1.0  0.63386  0.91990  0.32693  1.0000
  H   H1059     1.0  0.61014  0.92051  0.26355  1.0000
  H   H1060     1.0  0.60095  0.91876  0.37931  1.0000
  H   H1061     1.0  0.56677  0.92156  0.25477  1.0000
  H   H1062     1.0  0.55751  0.91990  0.37182  1.0000
  H   H1063     1.0  0.54005  0.92142  0.30914  1.0000
  S   S360      1.0  0.70622  0.88047  0.98253  1.0000
  H   H1064     1.0  0.58424  0.75318  0.44957  1.0000
  C   C1062     1.0  0.69599  0.97413  0.46508  1.0000
  C   C1063     1.0  0.71667  0.84203  0.98827  1.0000
  C   C1064     1.0  0.70090  0.86393  0.98829  1.0000
  C   C1065     1.0  0.61821  0.74554  0.40302  1.0000
  H   H1065     1.0  0.62481  0.75118  0.42669  1.0000
  N   N90       1.0  0.69454  0.74461  0.99478  1.0000
  C   C1066     1.0  0.98402  0.82036  0.08613  1.0000
  H   H1066     1.0  0.98753  0.80264  0.11527  1.0000
  H   H1067     1.0  0.51490  0.97919  0.39646  1.0000
  H   H1068     1.0  0.98575  0.83730  0.05395  1.0000
  H   H1069     1.0  0.58217  0.73925  0.15331  1.0000
  H   H1070     1.0  0.73148  0.74587  0.98538  1.0000
  S   S361      1.0  0.97454  0.77228  0.98195  1.0000
  C   C1067     1.0  0.58076  0.74405  0.43678  1.0000
  Fe  Fe181     1.0  0.97895  0.80925  0.97928  1.0000
  N   N91       1.0  0.59658  0.73874  0.41246  1.0000
  H   H1071     1.0  0.54641  0.74259  0.46243  1.0000
  C   C1068     1.0  0.55929  0.73810  0.44420  1.0000
  S   S362      1.0  0.97589  0.83098  0.97890  1.0000
  H   H1072     1.0  0.54015  0.74077  0.13436  1.0000
  H   H1073     1.0  0.72247  0.73219  0.01144  1.0000
  C   C1069     1.0  0.55068  0.73242  0.12707  1.0000
  C   C1070     1.0  0.87824  0.78494  0.97786  1.0000
  C   C1071     1.0  0.85797  0.77893  0.96367  1.0000
  H   H1074     1.0  0.91760  0.83246  0.95938  1.0000
  C   C1072     1.0  0.87196  0.80280  0.90458  1.0000
  H   H1075     1.0  0.53709  0.78019  0.67936  1.0000
  S   S363      1.0  0.96627  0.79761  0.93146  1.0000
  H   H1076     1.0  0.50083  0.75689  0.70131  1.0000
  C   C1073     1.0  0.94109  0.97873  0.95613  1.0000
  H   H1077     1.0  0.61511  0.75324  0.75243  1.0000
  H   H1078     1.0  0.55305  0.93638  0.74800  1.0000
  S   S364      1.0  0.72010  0.76198  0.92094  1.0000
  C   C1074     1.0  0.89392  0.80779  0.91459  1.0000
  C   C1075     1.0  0.49286  0.83829  0.57091  1.0000
  N   N92       1.0  0.89520  0.81770  0.93899  1.0000
  Fe  Fe182     1.0  0.54040  0.88924  0.62970  1.0000
  S   S365      1.0  0.57190  0.90228  0.62381  1.0000
  S   S366      1.0  0.54462  0.86774  0.61941  1.0000
  Fe  Fe183     1.0  0.50852  0.91110  0.65721  1.0000
  S   S367      1.0  0.53741  0.92537  0.65370  1.0000
  Fe  Fe184     1.0  0.54600  0.91633  0.59880  1.0000
  S   S368      1.0  0.54612  0.92995  0.54966  1.0000
  Fe  Fe185     1.0  0.56102  0.91030  0.67930  1.0000
  S   S369      1.0  0.58771  0.91675  0.72360  1.0000
  S   S370      1.0  0.51538  0.90275  0.60125  1.0000
  S   S371      1.0  0.53124  0.89654  0.68642  1.0000
  H   H1079     1.0  0.52406  0.77775  0.72328  1.0000
  Fe  Fe186     1.0  0.64173  0.91032  0.93382  1.0000
  S   S372      1.0  0.61321  0.90433  0.89183  1.0000
  S   S373      1.0  0.68091  0.90795  0.92369  1.0000
  H   H1080     1.0  0.92521  0.81654  0.97379  1.0000
  C   C1076     1.0  0.97898  0.92745  0.76329  1.0000
  S   S374      1.0  0.80460  0.95113  0.86201  1.0000
  S   S375      1.0  0.84553  0.96924  0.79685  1.0000
  C   C1077     1.0  0.64846  0.74900  0.97026  1.0000
  C   C1078     1.0  0.73358  0.94589  0.92238  1.0000
  C   C1079     1.0  0.74605  0.93546  0.90766  1.0000
  C   C1080     1.0  0.76799  0.93723  0.89000  1.0000
  C   C1081     1.0  0.77777  0.94941  0.88692  1.0000
  C   C1082     1.0  0.76537  0.95984  0.90179  1.0000
  C   C1083     1.0  0.74338  0.95808  0.91934  1.0000
  H   H1081     1.0  0.73878  0.92604  0.90985  1.0000
  H   H1082     1.0  0.77744  0.92910  0.87861  1.0000
  H   H1083     1.0  0.77261  0.96927  0.89950  1.0000
  S   S376      1.0  0.74068  0.79712  0.95784  1.0000
  C   C1084     1.0  0.59470  0.91292  0.77024  1.0000
  C   C1085     1.0  0.58269  0.90361  0.78986  1.0000
  C   C1086     1.0  0.58848  0.90125  0.82697  1.0000
  C   C1087     1.0  0.60650  0.90802  0.84505  1.0000
  C   C1088     1.0  0.61881  0.91717  0.82527  1.0000
  C   C1089     1.0  0.61284  0.91963  0.78827  1.0000
  H   H1084     1.0  0.56901  0.89817  0.77647  1.0000
  H   H1085     1.0  0.57892  0.89407  0.84178  1.0000
  H   H1086     1.0  0.63276  0.92245  0.83856  1.0000
  H   H1087     1.0  0.62235  0.92683  0.77349  1.0000
  C   C1090     1.0  0.56638  0.93239  0.51282  1.0000
  H   H1088     1.0  0.53342  0.74179  0.71767  1.0000
  Fe  Fe187     1.0  0.94496  0.78673  0.97293  1.0000
  H   H1089     1.0  0.60566  0.75510  0.68610  1.0000
  C   C1091     1.0  0.49632  0.90578  0.76448  1.0000
  H   H1090     1.0  0.59274  0.91872  0.53008  1.0000
  C   C1092     1.0  0.53444  0.93433  0.75241  1.0000
  H   H1091     1.0  0.72696  0.96391  0.83904  1.0000
  C   C1093     1.0  0.95285  0.93404  0.84624  1.0000
  C   C1094     1.0  0.92833  0.93473  0.83938  1.0000
  C   C1095     1.0  0.91663  0.94654  0.83495  1.0000
  C   C1096     1.0  0.92946  0.95780  0.83657  1.0000
  C   C1097     1.0  0.95398  0.95713  0.84365  1.0000
  C   C1098     1.0  0.96560  0.94532  0.84885  1.0000
  H   H1092     1.0  0.91831  0.92605  0.83732  1.0000
  H   H1093     1.0  0.89777  0.94691  0.82948  1.0000
  H   H1094     1.0  0.96407  0.96579  0.84490  1.0000
  S   S377      1.0  0.62823  0.74788  0.82733  1.0000
  C   C1099     1.0  0.54041  0.78098  0.70938  1.0000
  H   H1095     1.0  0.55437  0.77662  0.77783  1.0000
  C   C1100     1.0  0.52949  0.84355  0.60276  1.0000
  C   C1101     1.0  0.52393  0.85665  0.60146  1.0000
  C   C1102     1.0  0.50264  0.86049  0.58494  1.0000
  C   C1103     1.0  0.85128  0.80787  0.92012  1.0000
  H   H1096     1.0  0.54591  0.84047  0.61546  1.0000
  N   N93       1.0  0.56087  0.77323  0.72094  1.0000
  H   H1097     1.0  0.83422  0.80371  0.91394  1.0000
  Fe  Fe188     1.0  0.72457  0.77764  0.96407  1.0000
  C   C1104     1.0  0.59482  0.76008  0.70631  1.0000
  H   H1098     1.0  0.61659  0.87533  0.87944  1.0000
  H   H1099     1.0  0.56414  0.82292  0.52041  1.0000
  H   H1100     1.0  0.86014  0.77146  0.94334  1.0000
  S   S378      1.0  0.91591  0.97283  0.82830  1.0000
  C   C1105     1.0  0.51206  0.75913  0.64524  1.0000
  C   C1106     1.0  0.51378  0.75410  0.68080  1.0000
  C   C1107     1.0  0.53221  0.74553  0.69016  1.0000
  C   C1108     1.0  0.54893  0.74175  0.66380  1.0000
  C   C1109     1.0  0.54705  0.74667  0.62814  1.0000
  C   C1110     1.0  0.52880  0.75537  0.61893  1.0000
  H   H1101     1.0  0.87114  0.79459  0.88643  1.0000
  H   H1102     1.0  0.90998  0.80334  0.90383  1.0000
  H   H1103     1.0  0.55989  0.74381  0.60756  1.0000
  H   H1104     1.0  0.52770  0.75917  0.59148  1.0000
  C   C1111     1.0  0.65399  0.75149  0.85325  1.0000
  C   C1112     1.0  0.67445  0.74384  0.85222  1.0000
  C   C1113     1.0  0.69466  0.74734  0.87255  1.0000
  C   C1114     1.0  0.69453  0.75840  0.89455  1.0000
  C   C1115     1.0  0.67399  0.76598  0.89588  1.0000
  C   C1116     1.0  0.65391  0.76258  0.87512  1.0000
  H   H1105     1.0  0.92426  0.97719  0.90348  1.0000
  H   H1106     1.0  0.62008  0.92295  0.47822  1.0000
  H   H1107     1.0  0.67363  0.77451  0.91265  1.0000
  Fe  Fe189     1.0  0.82562  0.96910  0.85064  1.0000
  H   H1108     1.0  0.79333  0.97239  0.75467  1.0000
  H   H1109     1.0  0.97253  0.85821  0.97280  1.0000
  H   H1110     1.0  0.71050  0.74143  0.87128  1.0000
  H   H1111     1.0  0.63227  0.86329  0.90506  1.0000
  H   H1112     1.0  0.54041  0.91421  0.75427  1.0000
  C   C1117     1.0  0.91845  0.82233  0.95059  1.0000
  H   H1113     1.0  0.54183  0.84349  0.52082  1.0000
  H   H1114     1.0  0.75234  0.94632  0.81585  1.0000
  C   C1118     1.0  0.51401  0.83442  0.58782  1.0000
  Fe  Fe190     1.0  0.49522  0.78302  0.49864  1.0000
  C   C1119     1.0  0.75567  0.95592  0.80678  1.0000
  N   N94       1.0  0.65430  0.87747  0.88234  1.0000
  C   C1120     1.0  0.67500  0.87422  0.89965  1.0000
  C   C1121     1.0  0.65464  0.88473  0.85138  1.0000
  C   C1122     1.0  0.69680  0.87823  0.88607  1.0000
  C   C1123     1.0  0.67611  0.88896  0.83706  1.0000
  C   C1124     1.0  0.69732  0.88568  0.85460  1.0000
  C   C1125     1.0  0.76447  0.98062  0.78541  1.0000
  H   H1115     1.0  0.54784  0.80435  0.48612  1.0000
  H   H1116     1.0  0.63823  0.88750  0.83793  1.0000
  H   H1117     1.0  0.71307  0.87588  0.90067  1.0000
  H   H1118     1.0  0.67617  0.89494  0.81296  1.0000
  H   H1119     1.0  0.71408  0.88909  0.84428  1.0000
  C   C1126     1.0  0.66350  0.74068  0.95111  1.0000
  C   C1127     1.0  0.63174  0.87357  0.89836  1.0000
  C   C1128     1.0  0.51757  0.94415  0.75403  1.0000
  H   H1120     1.0  0.98017  0.90242  0.78685  1.0000
  C   C1129     1.0  0.53862  0.81348  0.48597  1.0000
  C   C1130     1.0  0.74121  0.96586  0.81997  1.0000
  N   N95       1.0  0.50379  0.91902  0.76123  1.0000
  H   H1121     1.0  0.97518  0.90311  0.73794  1.0000
  H   H1122     1.0  0.51862  0.82441  0.58894  1.0000
  S   S379      1.0  0.85725  0.97504  0.88426  1.0000
  H   H1123     1.0  0.52294  0.95394  0.75089  1.0000
  C   C1131     1.0  0.85275  0.81788  0.94529  1.0000
  C   C1132     1.0  0.57518  0.76740  0.69539  1.0000
  H   H1124     1.0  0.78293  0.94436  0.74396  1.0000
  C   C1133     1.0  0.59996  0.75890  0.74353  1.0000
  C   C1134     1.0  0.77866  0.97047  0.77295  1.0000
  Fe  Fe191     1.0  0.68541  0.92607  0.95609  1.0000
  H   H1125     1.0  0.63821  0.76861  0.87597  1.0000
  H   H1126     1.0  0.87606  0.83018  0.97505  1.0000
  H   H1127     1.0  0.58916  0.76385  0.79842  1.0000
  H   H1128     1.0  0.80818  0.95093  0.76799  1.0000
  C   C1135     1.0  0.98800  0.85514  0.95746  1.0000
  C   C1136     1.0  0.53533  0.83544  0.50506  1.0000
  H   H1129     1.0  0.96041  0.92508  0.76639  1.0000
  N   N96       1.0  0.77442  0.95834  0.78421  1.0000
  S   S380      1.0  0.50745  0.79287  0.55063  1.0000
  H   H1130     1.0  0.67483  0.73533  0.83536  1.0000
  C   C1137     1.0  0.83487  0.78259  0.97508  1.0000
  H   H1131     1.0  0.94622  0.96874  0.95685  1.0000
  H   H1132     1.0  0.67469  0.86867  0.92450  1.0000
  C   C1138     1.0  0.49372  0.94127  0.75906  1.0000
  S   S381      1.0  0.96698  0.91888  0.84835  1.0000
  H   H1133     1.0  0.63073  0.75095  0.95997  1.0000
  C   C1139     1.0  0.58793  0.92570  0.50965  1.0000
  H   H1134     1.0  0.73390  0.96621  0.93064  1.0000
  H   H1135     1.0  0.65755  0.73622  0.92583  1.0000
  H   H1136     1.0  0.98448  0.94493  0.85403  1.0000
  S   S382      1.0  0.90680  0.78068  0.95968  1.0000
  H   H1137     1.0  0.81956  0.77794  0.96350  1.0000
  C   C1140     1.0  0.56055  0.94145  0.48588  1.0000
  H   H1138     1.0  0.97197  0.94763  0.76743  1.0000
  H   H1139     1.0  0.57117  0.76811  0.66639  1.0000
  C   C1141     1.0  0.51377  0.83640  0.48625  1.0000
  C   C1142     1.0  0.98838  0.90473  0.76002  1.0000
  C   C1143     1.0  0.58534  0.76489  0.76938  1.0000
  S   S383      1.0  0.70558  0.94429  0.94415  1.0000
  H   H1140     1.0  0.62824  0.87918  0.92381  1.0000
  C   C1144     1.0  0.56573  0.77205  0.75754  1.0000
  C   C1145     1.0  0.87501  0.82267  0.95461  1.0000
  H   H1141     1.0  0.54336  0.79114  0.71618  1.0000
  C   C1146     1.0  0.78951  0.94784  0.77085  1.0000
  H   H1142     1.0  0.78994  0.93987  0.79076  1.0000
  H   H1143     1.0  0.49811  0.87050  0.58364  1.0000
  S   S384      1.0  0.64600  0.92911  0.96267  1.0000
  Fe  Fe192     1.0  0.87602  0.97676  0.83029  1.0000
  H   H1144     1.0  0.51150  0.89933  0.77110  1.0000
  H   H1145     1.0  0.83680  0.82150  0.95865  1.0000
  C   C1147     1.0  0.54773  0.82387  0.50507  1.0000
  H   H1146     1.0  0.50650  0.95046  0.57185  1.0000
  C   C1148     1.0  0.98545  0.94023  0.76412  1.0000
  C   C1149     1.0  0.74578  0.97829  0.80935  1.0000
  H   H1147     1.0  0.69868  0.73269  0.94760  1.0000
  H   H1148     1.0  0.68400  0.97416  0.48829  1.0000
  C   C1150     1.0  0.52718  0.92175  0.75601  1.0000
  H   H1149     1.0  0.50361  0.84523  0.48804  1.0000
  H   H1150     1.0  0.54396  0.94669  0.48797  1.0000
  H   H1151     1.0  0.93157  0.82170  0.92786  1.0000
  C   C1151     1.0  0.68670  0.73867  0.96365  1.0000
  C   C1152     1.0  0.60342  0.92813  0.48013  1.0000
  H   H1152     1.0  0.49718  0.92762  0.57519  1.0000
