data_image0
_chemical_formula_structural       H2SH2CHFeS2FeCSH2CS2CFeNC6H4CHCFeHFeC3H2SCHSCHC2HC2H3C3HNCSHCHCHSCHCSFeHSFeSFeSC8H4CH3CH2C3H2CHCH2NH2C2HCSHCHC2HNH2NHCHCHCFeH4C2H2C3HFeS2FeS2Fe2S3NH2FeS2C2H6CSHCHSCHFeC8H2C4HCH2C3H2SNC6H7C3HCSC3HC6H2C3SHCH2CH2CH2CHNFeSNH4SHCFeH2SH2CHNHC2HC3HCHC2H2CH2CHCHSCNHSFeSCFeSFeS3CHFeS2FeSFeSCSC2H2C6H5CHC7H5CHCNC6H2CFeC2FeHNCHCH2C2S2C2SHC3HSCFeHC2H9C2H3CHC2H2CH2CHCHNH2C4HNCH2SHCHC2HCHFeH7FeSFeS3H2FeSC2FeSHC2HCSH2FeSNH2FeS2HS2HC3HSCHCSHC7H4FeC7H5C6H5SH6CHCFeC2HNSCHC3H6SHCHC2SFeC4HCHC2NHCHC3SH2CN2S2H2CHC3H2FeHC2FeHC2H2NH4CHS2FeSFeHSFeSFeS3FeHCSHCFeSHSC6H4C6H4C4HC3H2C6H3C6H6SC3H2CH2CSNC3FeS2HCSHSCH2C2NC3HC3HSHSHSH2Fe2HCSHSHSH2FeHFeHCFeHNCH2SH2SHFeSHS2FeSHSFeSH2SFeSFeSFeHCSC2FeSCFeSC6H6FeH3CHS2C6H4SC6H4CHC3H2CHC2HC2SFeCH3C2NC6H4C2HCH2SCSHC2HCHNC2HNSH2C3HCHSHNC3NH2CHCH3CSH2SC2FeS2HSHFeSFeSC2SHFeSFeHSHS2FeSCSC2SCHC6H5C2H2NH3FeHC12H4C6H6C3HSH2CHFeSH6SC2NC2SNH4C2HCH2SCHC2HNFeHFeCSH6SCFeSFeSFe2S2FeSHSFeSH2SH2SC3HFeC2HC2HCH2CHNC6H3C6H4C6H4C2HSCH2CNCH3FeH2C4H2C2SHCNH6CH3CHC2HSC3S2HCH2C3SCNCHNHCSHCH2CH2SHC5H3S2C2HSH2S2FeSFeSFe2S2FeSFeSHC2H2C6H4C6H5CHC6H4C6HSH2C4SH3CNCHFeNC6H2FeHCH3CH3SHCH2C2HC2H3SH5NSCHSCS2NHSH2C2H2FeS2FeSFeSFeS2H2SHFeSH2NHCH3C7H4C2HCH2CH2CH3C4HNCH3C3HCHSCFeCHC2HNSCHCHC2SHSFeSFeSHCFeHSCH2CH3CHC7H4C2HCH3C2HCHCFeCH2CHCNH2CNCHCNC2H2CSCH2CH2CS2H3
_chemical_formula_sum              "H576 S192 C576 Fe96 N48"
_cell_length_a       55.4306
_cell_length_b       35.7756
_cell_length_c       52.7787
_cell_angle_alpha    90.2349
_cell_angle_beta     103.164
_cell_angle_gamma    90.4078

_space_group_name_H-M_alt    "P 1"
_space_group_IT_number       1

loop_
  _space_group_symop_operation_xyz
  'x, y, z'

loop_
  _atom_site_type_symbol
  _atom_site_label
  _atom_site_symmetry_multiplicity
  _atom_site_fract_x
  _atom_site_fract_y
  _atom_site_fract_z
  _atom_site_occupancy
  H   H1        1.0  0.29798  0.06301  0.07624  1.0000
  H   H2        1.0  0.02604  0.01013  0.22115  1.0000
  S   S1        1.0  0.10237  0.09730  0.35185  1.0000
  H   H3        1.0  0.01720  0.30195  0.25289  1.0000
  H   H4        1.0  0.07661  0.13624  0.40878  1.0000
  C   C1        1.0  0.01907  0.15949  0.37465  1.0000
  H   H5        1.0  0.31510  0.09986  0.33741  1.0000
  Fe  Fe1       1.0  0.03465  0.36675  0.37289  1.0000
  S   S2        1.0  0.11017  0.02168  0.29557  1.0000
  S   S3        1.0  0.06396  0.40155  0.40070  1.0000
  Fe  Fe2       1.0  0.02077  0.29105  0.34439  1.0000
  C   C2        1.0  0.21308  0.01950  0.33166  1.0000
  S   S4        1.0  0.02662  0.23482  0.32514  1.0000
  H   H6        1.0  0.19832  0.03173  0.33918  1.0000
  H   H7        1.0  0.03245  0.23214  0.41620  1.0000
  C   C3        1.0  0.05651  0.18562  0.41514  1.0000
  S   S5        1.0  0.02675  0.34960  0.33023  1.0000
  S   S6        1.0  0.03151  0.30748  0.38659  1.0000
  C   C4        1.0  0.29800  0.04989  0.09477  1.0000
  Fe  Fe3       1.0  0.32426  0.01487  0.33372  1.0000
  N   N1        1.0  0.01628  0.19262  0.38667  1.0000
  C   C5        1.0  0.08185  0.13595  0.34273  1.0000
  C   C6        1.0  0.08708  0.16998  0.35656  1.0000
  C   C7        1.0  0.07063  0.20057  0.35142  1.0000
  C   C8        1.0  0.04871  0.19775  0.33209  1.0000
  C   C9        1.0  0.04370  0.16397  0.31791  1.0000
  C   C10       1.0  0.06004  0.13329  0.32321  1.0000
  H   H8        1.0  0.10392  0.17260  0.37160  1.0000
  H   H9        1.0  0.07496  0.22629  0.36241  1.0000
  H   H10       1.0  0.02692  0.16137  0.30279  1.0000
  H   H11       1.0  0.05568  0.10749  0.31231  1.0000
  C   C11       1.0  0.04060  0.13844  0.38276  1.0000
  H   H12       1.0  0.01311  0.49395  0.35278  1.0000
  C   C12       1.0  0.05945  0.15171  0.40307  1.0000
  Fe  Fe4       1.0  0.33427  0.01022  0.05240  1.0000
  H   H13       1.0  0.07125  0.19654  0.43062  1.0000
  Fe  Fe5       1.0  0.10633  0.03775  0.33600  1.0000
  C   C13       1.0  0.08944  0.46524  0.42034  1.0000
  C   C14       1.0  0.07675  0.44647  0.39767  1.0000
  C   C15       1.0  0.07444  0.46399  0.37361  1.0000
  H   H14       1.0  0.09161  0.45169  0.43900  1.0000
  H   H15       1.0  0.06500  0.44971  0.35599  1.0000
  S   S7        1.0  0.28804  0.03259  0.34420  1.0000
  C   C16       1.0  0.32752  0.11473  0.35317  1.0000
  H   H16       1.0  0.04316  0.11277  0.37266  1.0000
  S   S8        1.0  0.29553  0.02249  0.02808  1.0000
  C   C17       1.0  0.23767  0.03269  0.34030  1.0000
  H   H17       1.0  0.31475  0.08550  0.38324  1.0000
  C   C18       1.0  0.31196  0.04780  0.14150  1.0000
  C   C19       1.0  0.02516  0.49466  0.39457  1.0000
  H   H18       1.0  0.32327  0.09005  0.11742  1.0000
  C   C20       1.0  0.25720  0.01678  0.33103  1.0000
  C   C21       1.0  0.31196  0.06529  0.11784  1.0000
  H   H19       1.0  0.31224  0.01073  0.18348  1.0000
  H   H20       1.0  0.24159  0.05510  0.35450  1.0000
  H   H21       1.0  0.32333  0.05964  0.15925  1.0000
  C   C22       1.0  0.32736  0.10667  0.37896  1.0000
  C   C23       1.0  0.03459  0.20576  0.40675  1.0000
  C   C24       1.0  0.08457  0.50003  0.37235  1.0000
  H   H22       1.0  0.27359  0.00499  0.07765  1.0000
  N   N2        1.0  0.29880  0.01544  0.14210  1.0000
  C   C25       1.0  0.28438  0.01718  0.09557  1.0000
  S   S9        1.0  0.13985  0.00397  0.35592  1.0000
  H   H23       1.0  0.01933  0.46603  0.39675  1.0000
  C   C26       1.0  0.09921  0.50151  0.41912  1.0000
  H   H24       1.0  0.00487  0.14967  0.35824  1.0000
  C   C27       1.0  0.13678  0.39698  0.86130  1.0000
  H   H25       1.0  0.01444  0.12731  0.93192  1.0000
  S   S10       1.0  0.08999  0.46461  0.84805  1.0000
  C   C28       1.0  0.12871  0.37023  0.84174  1.0000
  H   H26       1.0  0.16832  0.44220  0.89552  1.0000
  C   C29       1.0  0.07678  0.13645  0.94033  1.0000
  S   S11       1.0  0.04805  0.18959  0.82308  1.0000
  Fe  Fe6       1.0  0.01058  0.20153  0.87556  1.0000
  H   H27       1.0  0.02752  0.06535  0.95112  1.0000
  S   S12       1.0  0.04996  0.22278  0.88058  1.0000
  Fe  Fe7       1.0  0.03778  0.24401  0.83952  1.0000
  S   S13       1.0  0.05055  0.29636  0.82029  1.0000
  Fe  Fe8       1.0  0.05680  0.16705  0.86370  1.0000
  S   S14       1.0  0.09114  0.13181  0.87920  1.0000
  C   C30       1.0  0.11129  0.02945  0.91019  1.0000
  C   C31       1.0  0.14734  0.40689  0.81290  1.0000
  C   C32       1.0  0.07770  0.41869  0.83936  1.0000
  C   C33       1.0  0.07230  0.39551  0.85895  1.0000
  C   C34       1.0  0.06378  0.35830  0.85354  1.0000
  C   C35       1.0  0.06044  0.34359  0.82834  1.0000
  C   C36       1.0  0.06573  0.36685  0.80872  1.0000
  C   C37       1.0  0.07425  0.40407  0.81413  1.0000
  H   H28       1.0  0.07480  0.40639  0.87854  1.0000
  H   H29       1.0  0.05981  0.34099  0.86887  1.0000
  H   H30       1.0  0.06319  0.35594  0.78913  1.0000
  H   H31       1.0  0.07827  0.42135  0.79881  1.0000
  C   C38       1.0  0.08862  0.01195  0.91001  1.0000
  H   H32       1.0  0.07594  0.11623  0.82355  1.0000
  H   H33       1.0  0.07354  0.09302  0.79250  1.0000
  H   H34       1.0  0.04892  0.01825  0.90017  1.0000
  C   C39       1.0  0.06656  0.03155  0.90037  1.0000
  H   H35       1.0  0.11748  0.34655  0.84511  1.0000
  H   H36       1.0  0.15114  0.41160  0.79389  1.0000
  C   C40       1.0  0.11179  0.06614  0.90059  1.0000
  C   C41       1.0  0.08969  0.08562  0.89081  1.0000
  C   C42       1.0  0.06706  0.06809  0.89076  1.0000
  H   H37       1.0  0.12941  0.07950  0.90076  1.0000
  H   H38       1.0  0.04993  0.08265  0.88335  1.0000
  C   C43       1.0  0.04148  0.08524  0.94821  1.0000
  H   H39       1.0  0.04653  0.11210  0.80090  1.0000
  C   C44       1.0  0.03682  0.04837  0.81928  1.0000
  H   H40       1.0  0.12841  0.01470  0.91760  1.0000
  H   H41       1.0  0.04614  0.17274  0.92487  1.0000
  N   N3        1.0  0.15003  0.42768  0.85682  1.0000
  H   H42       1.0  0.13158  0.39376  0.87978  1.0000
  H   H43       1.0  0.24486  0.49465  0.85339  1.0000
  C   C45       1.0  0.08045  0.04139  0.83280  1.0000
  C   C46       1.0  0.15548  0.43277  0.83304  1.0000
  H   H44       1.0  0.10315  0.09414  0.95593  1.0000
  C   C47       1.0  0.07349  0.03964  0.96636  1.0000
  S   S15       1.0  0.01857  0.14493  0.86104  1.0000
  H   H45       1.0  0.09066  0.15585  0.93651  1.0000
  C   C48       1.0  0.08368  0.10140  0.95117  1.0000
  H   H46       1.0  0.12680  0.35562  0.80174  1.0000
  C   C49       1.0  0.13383  0.37547  0.81733  1.0000
  C   C50       1.0  0.15767  0.45561  0.87754  1.0000
  H   H47       1.0  0.32841  0.45003  0.70659  1.0000
  N   N4        1.0  0.06607  0.07618  0.95474  1.0000
  H   H48       1.0  0.14098  0.46918  0.88168  1.0000
  H   H49       1.0  0.16960  0.47788  0.87202  1.0000
  N   N5        1.0  0.06031  0.06164  0.82065  1.0000
  H   H50       1.0  0.24720  0.02690  0.99382  1.0000
  C   C51       1.0  0.06426  0.09746  0.80880  1.0000
  H   H51       1.0  0.16583  0.45724  0.82938  1.0000
  C   C52       1.0  0.05176  0.14577  0.93345  1.0000
  H   H52       1.0  0.02081  0.06448  0.80977  1.0000
  C   C53       1.0  0.03395  0.12011  0.93740  1.0000
  Fe  Fe9       1.0  0.00899  0.17031  0.82104  1.0000
  H   H53       1.0  0.09251  0.03206  0.96469  1.0000
  H   H54       1.0  0.06106  0.01711  0.95604  1.0000
  H   H55       1.0  0.09903  0.05248  0.83451  1.0000
  H   H56       1.0  0.32123  0.47754  0.74724  1.0000
  C   C54       1.0  0.07738  0.00669  0.84385  1.0000
  C   C55       1.0  0.03307  0.01391  0.83031  1.0000
  H   H57       1.0  0.01441  0.00376  0.82944  1.0000
  H   H58       1.0  0.07290  0.03977  0.98724  1.0000
  C   C56       1.0  0.31840  0.47608  0.70600  1.0000
  C   C57       1.0  0.31439  0.49191  0.72897  1.0000
  C   C58       1.0  0.31056  0.49502  0.68254  1.0000
  H   H59       1.0  0.31439  0.48379  0.66473  1.0000
  Fe  Fe10      1.0  0.12762  0.69400  0.42998  1.0000
  S   S16       1.0  0.13526  0.69185  0.47398  1.0000
  S   S17       1.0  0.12754  0.74079  0.40008  1.0000
  Fe  Fe11      1.0  0.12117  0.60817  0.42494  1.0000
  S   S18       1.0  0.12909  0.59990  0.46814  1.0000
  S   S19       1.0  0.10760  0.56546  0.39245  1.0000
  Fe  Fe12      1.0  0.10424  0.64930  0.46859  1.0000
  Fe  Fe13      1.0  0.15982  0.64241  0.47083  1.0000
  S   S20       1.0  0.04281  0.86771  0.16376  1.0000
  S   S21       1.0  0.09465  0.65519  0.42507  1.0000
  S   S22       1.0  0.15395  0.64696  0.42727  1.0000
  N   N6        1.0  0.19798  0.92823  0.36726  1.0000
  H   H60       1.0  0.28362  0.60493  0.46630  1.0000
  H   H61       1.0  0.10887  0.51560  0.43672  1.0000
  Fe  Fe14      1.0  0.11370  0.95530  0.35508  1.0000
  S   S23       1.0  0.11721  0.93427  0.31616  1.0000
  S   S24       1.0  0.11552  0.91831  0.39066  1.0000
  C   C59       1.0  0.04690  0.99105  0.19387  1.0000
  C   C60       1.0  0.06087  0.88213  0.32394  1.0000
  H   H62       1.0  0.06264  0.96597  0.16414  1.0000
  H   H63       1.0  0.02950  0.55789  0.34793  1.0000
  H   H64       1.0  0.21024  0.58090  0.47080  1.0000
  H   H65       1.0  0.28805  0.94791  0.04778  1.0000
  H   H66       1.0  0.27463  0.97445  0.11998  1.0000
  H   H67       1.0  0.06069  0.91985  0.36673  1.0000
  C   C61       1.0  0.27140  0.95574  0.03380  1.0000
  S   S25       1.0  0.00787  0.79752  0.11090  1.0000
  H   H68       1.0  0.05135  0.59314  0.38699  1.0000
  C   C62       1.0  0.06781  0.83046  0.35274  1.0000
  H   H69       1.0  0.15939  0.91873  0.36541  1.0000
  S   S26       1.0  0.20523  0.90619  0.00145  1.0000
  C   C63       1.0  0.03147  0.71403  0.08825  1.0000
  H   H70       1.0  0.18359  0.96161  0.39395  1.0000
  Fe  Fe15      1.0  0.08568  0.97228  0.29939  1.0000
  C   C64       1.0  0.04467  0.88782  0.19488  1.0000
  C   C65       1.0  0.02354  0.89440  0.20446  1.0000
  C   C66       1.0  0.02565  0.91334  0.22833  1.0000
  C   C67       1.0  0.04883  0.92599  0.24275  1.0000
  C   C68       1.0  0.07004  0.91842  0.23357  1.0000
  C   C69       1.0  0.06793  0.89941  0.20972  1.0000
  C   C70       1.0  0.22719  0.97498  0.30377  1.0000
  C   C71       1.0  0.02186  0.51024  0.36984  1.0000
  H   H71       1.0  0.08800  0.92794  0.24450  1.0000
  H   H72       1.0  0.00557  0.88538  0.19331  1.0000
  C   C72       1.0  0.02681  0.83763  0.03005  1.0000
  C   C73       1.0  0.04751  0.82724  0.04918  1.0000
  C   C74       1.0  0.07099  0.82550  0.04323  1.0000
  C   C75       1.0  0.07417  0.83526  0.01840  1.0000
  H   H73       1.0  0.06653  0.87269  0.28528  1.0000
  C   C76       1.0  0.19950  0.95536  0.38593  1.0000
  H   H74       1.0  0.04538  0.81993  0.06842  1.0000
  H   H75       1.0  0.08684  0.81668  0.05796  1.0000
  C   C77       1.0  0.25108  0.93082  0.02776  1.0000
  C   C78       1.0  0.05953  0.57185  0.43623  1.0000
  C   C79       1.0  0.27018  0.99050  0.02156  1.0000
  H   H76       1.0  0.17773  0.87742  0.36572  1.0000
  H   H77       1.0  0.21654  0.89966  0.34178  1.0000
  S   S27       1.0  0.33566  0.95827  0.32239  1.0000
  N   N7        1.0  0.06174  0.86719  0.34796  1.0000
  C   C80       1.0  0.12538  0.79040  0.39875  1.0000
  C   C81       1.0  0.12854  0.80867  0.37612  1.0000
  C   C82       1.0  0.12582  0.84774  0.37338  1.0000
  C   C83       1.0  0.12007  0.86915  0.39341  1.0000
  C   C84       1.0  0.11723  0.85100  0.41618  1.0000
  C   C85       1.0  0.11979  0.81186  0.41885  1.0000
  H   H78       1.0  0.13285  0.79233  0.36045  1.0000
  H   H79       1.0  0.12779  0.86108  0.35562  1.0000
  H   H80       1.0  0.11286  0.86727  0.43186  1.0000
  H   H81       1.0  0.11732  0.79828  0.43637  1.0000
  H   H82       1.0  0.22324  0.95256  0.28957  1.0000
  H   H83       1.0  0.32246  0.86348  0.02298  1.0000
  H   H84       1.0  0.03468  0.88876  0.36659  1.0000
  C   C86       1.0  0.24033  0.94004  0.36562  1.0000
  C   C87       1.0  0.02515  0.99734  0.20225  1.0000
  C   C88       1.0  0.02277  0.96072  0.15534  1.0000
  H   H85       1.0  0.07964  0.77923  0.33768  1.0000
  C   C89       1.0  0.24680  0.56356  0.49153  1.0000
  S   S28       1.0  0.07385  0.63586  0.48995  1.0000
  C   C90       1.0  0.09672  0.51917  0.39508  1.0000
  C   C91       1.0  0.06696  0.86049  0.30419  1.0000
  C   C92       1.0  0.25180  0.98801  0.31254  1.0000
  H   H86       1.0  0.25227  0.90391  0.03725  1.0000
  C   C93       1.0  0.24200  0.96799  0.38444  1.0000
  C   C94       1.0  0.02996  0.84740  0.00522  1.0000
  C   C95       1.0  0.04323  0.56599  0.38928  1.0000
  C   C96       1.0  0.33049  0.58394  0.47266  1.0000
  C   C97       1.0  0.17508  0.90651  0.35839  1.0000
  C   C98       1.0  0.07405  0.80801  0.33345  1.0000
  H   H87       1.0  0.28033  0.99754  0.17110  1.0000
  H   H88       1.0  0.24841  0.54260  0.47718  1.0000
  C   C99       1.0  0.07371  0.82325  0.30907  1.0000
  C   C100      1.0  0.04575  0.97264  0.17027  1.0000
  C   C101      1.0  0.21800  0.92044  0.35709  1.0000
  S   S29       1.0  0.05018  0.95271  0.27135  1.0000
  H   H89       1.0  0.07959  0.57214  0.43641  1.0000
  C   C102      1.0  0.29907  0.99697  0.16692  1.0000
  H   H90       1.0  0.08277  0.51334  0.35364  1.0000
  H   H91       1.0  0.32605  0.55695  0.48104  1.0000
  C   C103      1.0  0.22510  0.58527  0.48784  1.0000
  H   H92       1.0  0.02601  0.66127  0.12190  1.0000
  H   H93       1.0  0.25896  0.98430  0.39041  1.0000
  C   C104      1.0  0.28689  0.65065  0.49332  1.0000
  H   H94       1.0  0.08438  0.89436  0.20246  1.0000
  H   H95       1.0  0.07873  0.80628  0.29399  1.0000
  C   C105      1.0  0.03137  0.73449  0.06568  1.0000
  H   H96       1.0  0.05560  0.91105  0.31994  1.0000
  N   N8        1.0  0.00973  0.70162  0.09354  1.0000
  Fe  Fe16      1.0  0.00754  0.84960  0.13498  1.0000
  S   S30       1.0  0.17745  0.97089  0.30302  1.0000
  N   N9        1.0  0.32124  0.61493  0.48595  1.0000
  H   H97       1.0  0.04859  0.74463  0.06157  1.0000
  H   H98       1.0  0.05297  0.60120  0.43564  1.0000
  H   H99       1.0  0.05712  0.55970  0.45483  1.0000
  H   H100      1.0  0.00917  0.91887  0.23541  1.0000
  S   S31       1.0  0.10368  0.82961  0.01128  1.0000
  H   H101      1.0  0.16972  0.90606  0.33675  1.0000
  C   C106      1.0  0.29639  0.62213  0.48031  1.0000
  Fe  Fe17      1.0  0.14182  0.98492  0.31587  1.0000
  H   H102      1.0  0.04901  0.70853  0.10168  1.0000
  H   H103      1.0  0.22241  0.99797  0.40896  1.0000
  S   S32       1.0  0.08020  0.99024  0.33871  1.0000
  H   H104      1.0  0.32166  0.58397  0.45154  1.0000
  H   H105      1.0  0.25595  0.93462  0.35695  1.0000
  C   C107      1.0  0.05498  0.89022  0.36827  1.0000
  H   H106      1.0  0.06479  0.88087  0.38799  1.0000
  N   N10       1.0  0.04596  0.55077  0.41349  1.0000
  H   H107      1.0  0.06867  0.81859  0.37182  1.0000
  C   C108      1.0  0.03101  0.54610  0.36712  1.0000
  C   C109      1.0  0.22146  0.97582  0.39467  1.0000
  H   H108      1.0  0.26657  0.97559  0.30514  1.0000
  C   C110      1.0  0.22934  0.94014  0.00936  1.0000
  C   C111      1.0  0.28505  0.00013  0.11954  1.0000
  C   C112      1.0  0.20773  0.99038  0.31343  1.0000
  H   H109      1.0  0.26706  0.65559  0.48917  1.0000
  C   C113      1.0  0.01032  0.68113  0.11768  1.0000
  H   H110      1.0  0.01211  0.70124  0.13415  1.0000
  C   C114      1.0  0.31080  0.88236  0.00949  1.0000
  C   C115      1.0  0.03740  0.51539  0.41631  1.0000
  H   H111      1.0  0.30513  0.96750  0.16623  1.0000
  H   H112      1.0  0.02223  0.94492  0.13762  1.0000
  C   C116      1.0  0.31951  0.91805  0.00571  1.0000
  H   H113      1.0  0.04076  0.50247  0.43532  1.0000
  H   H114      1.0  0.06469  0.99905  0.20618  1.0000
  C   C117      1.0  0.24836  0.00003  0.00336  1.0000
  H   H115      1.0  0.00850  0.75883  0.03127  1.0000
  C   C118      1.0  0.00884  0.74261  0.04869  1.0000
  H   H116      1.0  0.33779  0.92685  0.01629  1.0000
  S   S33       1.0  0.29832  0.57653  0.81365  1.0000
  C   C119      1.0  0.10262  0.67426  0.58026  1.0000
  N   N11       1.0  0.30293  0.52572  0.72856  1.0000
  H   H117      1.0  0.11829  0.57811  0.52782  1.0000
  S   S34       1.0  0.10112  0.86391  0.93725  1.0000
  Fe  Fe18      1.0  0.16611  0.90192  0.97518  1.0000
  S   S35       1.0  0.15254  0.90787  0.93161  1.0000
  C   C120      1.0  0.05351  0.99297  0.84265  1.0000
  Fe  Fe19      1.0  0.11579  0.92351  0.94053  1.0000
  S   S36       1.0  0.08644  0.96590  0.92152  1.0000
  Fe  Fe20      1.0  0.13871  0.84818  0.93146  1.0000
  S   S37       1.0  0.15047  0.80452  0.90483  1.0000
  S   S38       1.0  0.13031  0.92158  0.98421  1.0000
  S   S39       1.0  0.15429  0.84162  0.97414  1.0000
  C   C121      1.0  0.15885  0.70465  0.93980  1.0000
  H   H118      1.0  0.05095  0.96660  0.85185  1.0000
  Fe  Fe21      1.0  0.11588  0.59973  0.83906  1.0000
  S   S40       1.0  0.14065  0.60309  0.81071  1.0000
  S   S41       1.0  0.10243  0.64750  0.86146  1.0000
  Fe  Fe22      1.0  0.15645  0.54789  0.82693  1.0000
  S   S42       1.0  0.29401  0.54233  0.51622  1.0000
  Fe  Fe23      1.0  0.11088  0.56806  0.78465  1.0000
  S   S43       1.0  0.10129  0.58412  0.74177  1.0000
  C   C122      1.0  0.26996  0.56124  0.82085  1.0000
  S   S44       1.0  0.08530  0.56722  0.81217  1.0000
  C   C123      1.0  0.24826  0.58179  0.81120  1.0000
  C   C124      1.0  0.22539  0.57102  0.81662  1.0000
  H   H119      1.0  0.24911  0.60632  0.79952  1.0000
  H   H120      1.0  0.20891  0.58717  0.80912  1.0000
  C   C125      1.0  0.02752  0.63351  0.69674  1.0000
  C   C126      1.0  0.02922  0.61764  0.72143  1.0000
  C   C127      1.0  0.05156  0.60196  0.73535  1.0000
  C   C128      1.0  0.07234  0.60149  0.72450  1.0000
  C   C129      1.0  0.07043  0.61643  0.69950  1.0000
  C   C130      1.0  0.04818  0.63257  0.68572  1.0000
  H   H121      1.0  0.02094  0.72766  0.76131  1.0000
  H   H122      1.0  0.05273  0.59032  0.75447  1.0000
  H   H123      1.0  0.08639  0.61603  0.69093  1.0000
  H   H124      1.0  0.04711  0.64463  0.66673  1.0000
  H   H125      1.0  0.08329  0.66327  0.57617  1.0000
  C   C131      1.0  0.13849  0.67344  0.56040  1.0000
  H   H126      1.0  0.09264  0.60966  0.55398  1.0000
  C   C132      1.0  0.22271  0.61254  0.50617  1.0000
  C   C133      1.0  0.13573  0.76261  0.89072  1.0000
  C   C134      1.0  0.11186  0.75235  0.89279  1.0000
  C   C135      1.0  0.10164  0.71762  0.88280  1.0000
  C   C136      1.0  0.11517  0.69260  0.87082  1.0000
  C   C137      1.0  0.13877  0.70327  0.86812  1.0000
  C   C138      1.0  0.14893  0.73813  0.87796  1.0000
  H   H127      1.0  0.10139  0.77099  0.90232  1.0000
  H   H128      1.0  0.08332  0.70971  0.88487  1.0000
  H   H129      1.0  0.14942  0.68439  0.85897  1.0000
  H   H130      1.0  0.16736  0.74586  0.87615  1.0000
  H   H131      1.0  0.24068  0.63866  0.54254  1.0000
  C   C139      1.0  0.24569  0.51898  0.84151  1.0000
  H   H132      1.0  0.15783  0.60746  0.52314  1.0000
  C   C140      1.0  0.14865  0.73267  0.95261  1.0000
  N   N12       1.0  0.11709  0.65662  0.56348  1.0000
  C   C141      1.0  0.06177  0.66456  0.51147  1.0000
  C   C142      1.0  0.30454  0.94240  0.98851  1.0000
  C   C143      1.0  0.06054  0.72234  0.53559  1.0000
  C   C144      1.0  0.04275  0.70695  0.54787  1.0000
  C   C145      1.0  0.03430  0.67042  0.54160  1.0000
  C   C146      1.0  0.04377  0.64938  0.52350  1.0000
  H   H133      1.0  0.29299  0.54451  0.66414  1.0000
  H   H134      1.0  0.09282  0.69441  0.95110  1.0000
  C   C147      1.0  0.10028  0.67442  0.76811  1.0000
  Fe  Fe24      1.0  0.33650  0.54925  0.82380  1.0000
  C   C148      1.0  0.26400  0.59599  0.53190  1.0000
  C   C149      1.0  0.22398  0.53957  0.83192  1.0000
  Fe  Fe25      1.0  0.11773  0.86156  0.98021  1.0000
  H   H135      1.0  0.27889  0.60046  0.54887  1.0000
  N   N13       1.0  0.05009  0.69077  0.75878  1.0000
  C   C150      1.0  0.08788  0.68772  0.74386  1.0000
  H   H136      1.0  0.01374  0.67839  0.76351  1.0000
  C   C151      1.0  0.24229  0.61768  0.52821  1.0000
  H   H137      1.0  0.15910  0.75837  0.95814  1.0000
  H   H138      1.0  0.11962  0.66659  0.77141  1.0000
  C   C152      1.0  0.24778  0.88325  0.96471  1.0000
  C   C153      1.0  0.28702  0.87146  0.99596  1.0000
  S   S45       1.0  0.19582  0.52495  0.83992  1.0000
  S   S46       1.0  0.13384  0.54729  0.85743  1.0000
  C   C154      1.0  0.26852  0.52964  0.83598  1.0000
  C   C155      1.0  0.12121  0.66858  0.93558  1.0000
  S   S47       1.0  0.03279  0.73328  0.57205  1.0000
  H   H139      1.0  0.10920  0.78216  0.95551  1.0000
  C   C156      1.0  0.02359  0.69925  0.75391  1.0000
  C   C157      1.0  0.06226  0.67859  0.78283  1.0000
  C   C158      1.0  0.30296  0.67144  0.51252  1.0000
  H   H140      1.0  0.05574  0.85397  0.98025  1.0000
  S   S48       1.0  0.19606  0.64140  0.50243  1.0000
  C   C159      1.0  0.08749  0.67019  0.78782  1.0000
  Fe  Fe26      1.0  0.33001  0.54689  0.54760  1.0000
  H   H141      1.0  0.05299  0.70538  0.72039  1.0000
  C   C160      1.0  0.33647  0.63775  0.86547  1.0000
  C   C161      1.0  0.26642  0.56881  0.51351  1.0000
  H   H142      1.0  0.10129  0.70491  0.57690  1.0000
  H   H143      1.0  0.28554  0.57087  0.70519  1.0000
  H   H144      1.0  0.23498  0.90728  0.95960  1.0000
  H   H145      1.0  0.01469  0.69788  0.73274  1.0000
  H   H146      1.0  0.28210  0.52877  0.75773  1.0000
  H   H147      1.0  0.05246  0.67472  0.79824  1.0000
  H   H148      1.0  0.02061  0.65824  0.55087  1.0000
  H   H149      1.0  0.17690  0.70873  0.93547  1.0000
  H   H150      1.0  0.31495  0.53649  0.76925  1.0000
  C   C162      1.0  0.33716  0.63529  0.50469  1.0000
  C   C163      1.0  0.05358  0.84670  0.99949  1.0000
  H   H151      1.0  0.17027  0.66946  0.54302  1.0000
  H   H152      1.0  0.09753  0.69010  0.72822  1.0000
  H   H153      1.0  0.15219  0.65124  0.92022  1.0000
  C   C164      1.0  0.11483  0.75901  0.96952  1.0000
  H   H154      1.0  0.11137  0.66900  0.60102  1.0000
  C   C165      1.0  0.29880  0.54157  0.75288  1.0000
  C   C166      1.0  0.15339  0.65608  0.54577  1.0000
  H   H155      1.0  0.01327  0.61792  0.73002  1.0000
  H   H156      1.0  0.29572  0.69301  0.52317  1.0000
  C   C167      1.0  0.14635  0.62126  0.53444  1.0000
  H   H157      1.0  0.09336  0.99112  0.85411  1.0000
  H   H158      1.0  0.23894  0.86430  0.97668  1.0000
  C   C168      1.0  0.12436  0.60455  0.53737  1.0000
  H   H159      1.0  0.09696  0.65992  0.80676  1.0000
  C   C169      1.0  0.14499  0.67244  0.93124  1.0000
  H   H160      1.0  0.26916  0.94998  0.96235  1.0000
  N   N14       1.0  0.12541  0.72850  0.95704  1.0000
  H   H161      1.0  0.24927  0.86852  0.94660  1.0000
  H   H162      1.0  0.06715  0.75062  0.54028  1.0000
  C   C170      1.0  0.07012  0.70120  0.51755  1.0000
  C   C171      1.0  0.06266  0.69607  0.73955  1.0000
  C   C172      1.0  0.29471  0.54414  0.70556  1.0000
  C   C173      1.0  0.10991  0.62264  0.55214  1.0000
  H   H163      1.0  0.14412  0.70046  0.56925  1.0000
  N   N15       1.0  0.27235  0.89560  0.97925  1.0000
  C   C174      1.0  0.29857  0.52922  0.68224  1.0000
  H   H164      1.0  0.01403  0.85529  0.99027  1.0000
  H   H165      1.0  0.10993  0.64437  0.92789  1.0000
  S   S49       1.0  0.12854  0.51289  0.79882  1.0000
  H   H166      1.0  0.28027  0.84373  0.99910  1.0000
  C   C175      1.0  0.11160  0.69713  0.94852  1.0000
  H   H167      1.0  0.31093  0.97066  0.98609  1.0000
  C   C176      1.0  0.28089  0.93058  0.97525  1.0000
  C   C177      1.0  0.22807  0.97494  0.99716  1.0000
  H   H168      1.0  0.29632  0.57238  0.75173  1.0000
  C   C178      1.0  0.32828  0.66382  0.51823  1.0000
  H   H169      1.0  0.28500  0.51354  0.84360  1.0000
  Fe  Fe27      1.0  0.10515  0.51445  0.82853  1.0000
  H   H170      1.0  0.33571  0.63604  0.82454  1.0000
  H   H171      1.0  0.03715  0.62109  0.51888  1.0000
  H   H172      1.0  0.12860  0.77006  0.98669  1.0000
  H   H173      1.0  0.09838  0.74993  0.97670  1.0000
  H   H174      1.0  0.21150  0.98248  0.98294  1.0000
  H   H175      1.0  0.32144  0.61756  0.86393  1.0000
  H   H176      1.0  0.08394  0.71321  0.50839  1.0000
  Fe  Fe28      1.0  0.47033  0.22488  0.46581  1.0000
  S   S50       1.0  0.45504  0.16629  0.45399  1.0000
  Fe  Fe29      1.0  0.49492  0.30094  0.45859  1.0000
  S   S51       1.0  0.50197  0.34598  0.43066  1.0000
  S   S52       1.0  0.50964  0.24269  0.46702  1.0000
  S   S53       1.0  0.45531  0.28162  0.45345  1.0000
  H   H177      1.0  0.58425  0.30818  0.09465  1.0000
  H   H178      1.0  0.39084  0.18842  0.40835  1.0000
  Fe  Fe30      1.0  0.37638  0.04761  0.33690  1.0000
  S   S54       1.0  0.39813  0.10248  0.34329  1.0000
  C   C179      1.0  0.36445  0.01751  0.22411  1.0000
  C   C180      1.0  0.61812  0.48955  0.23292  1.0000
  Fe  Fe31      1.0  0.62878  0.47110  0.11206  1.0000
  S   S55       1.0  0.61847  0.42356  0.08252  1.0000
  H   H179      1.0  0.62290  0.30766  0.03295  1.0000
  C   C181      1.0  0.40129  0.12746  0.02189  1.0000
  C   C182      1.0  0.45567  0.29421  0.05133  1.0000
  H   H180      1.0  0.61979  0.32898  0.07677  1.0000
  C   C183      1.0  0.43635  0.37772  0.44400  1.0000
  S   S56       1.0  0.51663  0.33379  0.05150  1.0000
  H   H181      1.0  0.55212  0.26609  0.06840  1.0000
  H   H182      1.0  0.34495  0.14694  0.32780  1.0000
  Fe  Fe32      1.0  0.38926  0.03538  0.06112  1.0000
  S   S57       1.0  0.42222  0.06733  0.05225  1.0000
  N   N16       1.0  0.35992  0.15185  0.39359  1.0000
  H   H183      1.0  0.55608  0.24473  0.02494  1.0000
  H   H184      1.0  0.63222  0.36266  0.34642  1.0000
  Fe  Fe33      1.0  0.61862  0.45226  0.40171  1.0000
  S   S58       1.0  0.35821  0.02168  0.36641  1.0000
  S   S59       1.0  0.60915  0.39786  0.41957  1.0000
  H   H185      1.0  0.46548  0.16938  0.01867  1.0000
  S   S60       1.0  0.64597  0.45007  0.37600  1.0000
  S   S61       1.0  0.60936  0.49992  0.13985  1.0000
  H   H186      1.0  0.36618  0.03598  0.24073  1.0000
  C   C184      1.0  0.43042  0.28661  0.04193  1.0000
  C   C185      1.0  0.42289  0.10927  0.03459  1.0000
  C   C186      1.0  0.44600  0.12464  0.03326  1.0000
  H   H187      1.0  0.41077  0.42328  0.46763  1.0000
  S   S62       1.0  0.37047  0.02778  0.14889  1.0000
  C   C187      1.0  0.34381  0.12558  0.39906  1.0000
  H   H188      1.0  0.46282  0.11075  0.04300  1.0000
  C   C188      1.0  0.62078  0.48705  0.27997  1.0000
  S   S63       1.0  0.60527  0.48521  0.30596  1.0000
  H   H189      1.0  0.37322  0.18019  0.36385  1.0000
  C   C189      1.0  0.46071  0.23243  0.06982  1.0000
  C   C190      1.0  0.58826  0.40410  0.07283  1.0000
  C   C191      1.0  0.57284  0.40051  0.09030  1.0000
  C   C192      1.0  0.55050  0.37998  0.08315  1.0000
  C   C193      1.0  0.54325  0.36317  0.05843  1.0000
  C   C194      1.0  0.55819  0.36804  0.04059  1.0000
  C   C195      1.0  0.58066  0.38821  0.04784  1.0000
  H   H190      1.0  0.57853  0.41242  0.10964  1.0000
  H   H191      1.0  0.53905  0.37647  0.09707  1.0000
  H   H192      1.0  0.55278  0.35546  0.02146  1.0000
  H   H193      1.0  0.59243  0.39091  0.03417  1.0000
  Fe  Fe34      1.0  0.62129  0.49064  0.34990  1.0000
  C   C196      1.0  0.65810  0.49010  0.26309  1.0000
  C   C197      1.0  0.43998  0.14893  0.42284  1.0000
  C   C198      1.0  0.43832  0.16980  0.40017  1.0000
  C   C199      1.0  0.42580  0.15491  0.37591  1.0000
  C   C200      1.0  0.41463  0.11925  0.37409  1.0000
  C   C201      1.0  0.41622  0.09847  0.39678  1.0000
  C   C202      1.0  0.42902  0.11313  0.42097  1.0000
  H   H194      1.0  0.44677  0.19730  0.40130  1.0000
  H   H195      1.0  0.42473  0.17114  0.35843  1.0000
  H   H196      1.0  0.40771  0.07102  0.39566  1.0000
  H   H197      1.0  0.43025  0.09676  0.43840  1.0000
  H   H198      1.0  0.38299  0.26730  0.04462  1.0000
  C   C203      1.0  0.53215  0.36163  0.42970  1.0000
  C   C204      1.0  0.53503  0.39540  0.41710  1.0000
  C   C205      1.0  0.55865  0.40776  0.41481  1.0000
  C   C206      1.0  0.57952  0.38598  0.42464  1.0000
  C   C207      1.0  0.57664  0.35241  0.43742  1.0000
  C   C208      1.0  0.55311  0.34043  0.44015  1.0000
  H   H199      1.0  0.51891  0.41196  0.40893  1.0000
  H   H200      1.0  0.56063  0.43360  0.40487  1.0000
  H   H201      1.0  0.59268  0.33542  0.44512  1.0000
  H   H202      1.0  0.55114  0.31439  0.44988  1.0000
  H   H203      1.0  0.47243  0.21064  0.08014  1.0000
  S   S64       1.0  0.49938  0.24106  0.01410  1.0000
  H   H204      1.0  0.58663  0.48615  0.25057  1.0000
  H   H205      1.0  0.56424  0.43963  0.31611  1.0000
  H   H206      1.0  0.49056  0.27241  0.07233  1.0000
  H   H207      1.0  0.55486  0.17925  0.49358  1.0000
  H   H208      1.0  0.53052  0.41419  0.33540  1.0000
  H   H209      1.0  0.38339  0.11584  0.02265  1.0000
  C   C209      1.0  0.43962  0.44936  0.49649  1.0000
  H   H210      1.0  0.38820  0.21791  0.04215  1.0000
  C   C210      1.0  0.60616  0.30955  0.06576  1.0000
  Fe  Fe35      1.0  0.46032  0.29552  0.49597  1.0000
  C   C211      1.0  0.56813  0.27434  0.06109  1.0000
  C   C212      1.0  0.36850  0.03132  0.20040  1.0000
  H   H211      1.0  0.41886  0.30756  0.03039  1.0000
  N   N17       1.0  0.42051  0.25297  0.04677  1.0000
  S   S65       1.0  0.63722  0.50053  0.42627  1.0000
  C   C213      1.0  0.60761  0.29777  0.04082  1.0000
  H   H212      1.0  0.65776  0.48806  0.30403  1.0000
  C   C214      1.0  0.56762  0.41592  0.32921  1.0000
  C   C215      1.0  0.43060  0.42517  0.47552  1.0000
  C   C216      1.0  0.39392  0.24609  0.03679  1.0000
  H   H213      1.0  0.60584  0.41184  0.32774  1.0000
  H   H214      1.0  0.42356  0.39274  0.42815  1.0000
  H   H215      1.0  0.62002  0.32430  0.36161  1.0000
  H   H216      1.0  0.53931  0.36108  0.36641  1.0000
  H   H217      1.0  0.63026  0.36642  0.37997  1.0000
  H   H218      1.0  0.38649  0.15179  0.42974  1.0000
  S   S66       1.0  0.35756  0.05390  0.07808  1.0000
  H   H219      1.0  0.42766  0.19878  0.06358  1.0000
  C   C217      1.0  0.44758  0.15784  0.01942  1.0000
  H   H220      1.0  0.65654  0.46616  0.05610  1.0000
  C   C218      1.0  0.58621  0.29786  0.07585  1.0000
  C   C219      1.0  0.47132  0.40400  0.47664  1.0000
  S   S67       1.0  0.34157  0.04513  0.30479  1.0000
  Fe  Fe36      1.0  0.50355  0.30344  0.01282  1.0000
  C   C220      1.0  0.43531  0.22594  0.06044  1.0000
  C   C221      1.0  0.64397  0.49100  0.23729  1.0000
  C   C222      1.0  0.57026  0.26286  0.03634  1.0000
  C   C223      1.0  0.59121  0.40010  0.33592  1.0000
  H   H221      1.0  0.60701  0.49004  0.21321  1.0000
  C   C224      1.0  0.48093  0.42733  0.49793  1.0000
  H   H222      1.0  0.37337  0.06048  0.19905  1.0000
  C   C225      1.0  0.54875  0.40168  0.34003  1.0000
  C   C226      1.0  0.60663  0.48735  0.25416  1.0000
  N   N18       1.0  0.59583  0.37077  0.35286  1.0000
  H   H223      1.0  0.48388  0.38622  0.46913  1.0000
  C   C227      1.0  0.57749  0.35683  0.36372  1.0000
  H   H224      1.0  0.46354  0.32087  0.04739  1.0000
  C   C228      1.0  0.55363  0.37180  0.35730  1.0000
  C   C229      1.0  0.36009  0.16006  0.36832  1.0000
  C   C230      1.0  0.62084  0.35526  0.36051  1.0000
  S   S68       1.0  0.65967  0.49532  0.21156  1.0000
  H   H225      1.0  0.58145  0.33482  0.37813  1.0000
  H   H226      1.0  0.38933  0.24755  0.01517  1.0000
  C   C231      1.0  0.47087  0.26692  0.06535  1.0000
  N   N19       1.0  0.58970  0.27483  0.02642  1.0000
  N   N20       1.0  0.44644  0.40318  0.46572  1.0000
  S   S69       1.0  0.66550  0.46949  0.14117  1.0000
  S   S70       1.0  0.59253  0.48824  0.37390  1.0000
  H   H227      1.0  0.36568  0.19126  0.42463  1.0000
  H   H228      1.0  0.45121  0.36534  0.43564  1.0000
  C   C232      1.0  0.42599  0.17598  0.00666  1.0000
  H   H229      1.0  0.42610  0.35449  0.45092  1.0000
  C   C233      1.0  0.40286  0.16057  0.00791  1.0000
  C   C234      1.0  0.37647  0.17187  0.41509  1.0000
  C   C235      1.0  0.64661  0.48838  0.28433  1.0000
  H   H230      1.0  0.50934  0.15576  0.47858  1.0000
  H   H231      1.0  0.34371  0.11897  0.41907  1.0000
  Fe  Fe37      1.0  0.36812  0.00722  0.10714  1.0000
  H   H232      1.0  0.46331  0.00667  0.05139  1.0000
  C   C236      1.0  0.36633  0.00787  0.17849  1.0000
  C   C237      1.0  0.34402  0.14148  0.34777  1.0000
  Fe  Fe38      1.0  0.66317  0.50062  0.39882  1.0000
  H   H233      1.0  0.59534  0.23177  0.00064  1.0000
  C   C238      1.0  0.51227  0.15134  0.49990  1.0000
  C   C239      1.0  0.59138  0.26222  0.00040  1.0000
  H   H234      1.0  0.57029  0.09819  0.67798  1.0000
  H   H235      1.0  0.37834  0.42850  0.52901  1.0000
  N   N21       1.0  0.59982  0.10028  0.71231  1.0000
  H   H236      1.0  0.45363  0.35657  0.84358  1.0000
  H   H237      1.0  0.40536  0.30964  0.84391  1.0000
  H   H238      1.0  0.42928  0.32801  0.87032  1.0000
  H   H239      1.0  0.54381  0.05897  0.96412  1.0000
  C   C240      1.0  0.39965  0.38315  0.51800  1.0000
  H   H240      1.0  0.42291  0.44778  0.79410  1.0000
  S   S71       1.0  0.59631  0.04031  0.87390  1.0000
  S   S72       1.0  0.64383  0.08846  0.86319  1.0000
  Fe  Fe39      1.0  0.61762  0.09190  0.89011  1.0000
  S   S73       1.0  0.59562  0.14508  0.89091  1.0000
  Fe  Fe40      1.0  0.62423  0.03468  0.84889  1.0000
  H   H241      1.0  0.62518  0.11007  0.78666  1.0000
  S   S74       1.0  0.64316  0.06196  0.92287  1.0000
  Fe  Fe41      1.0  0.51526  0.24005  0.97848  1.0000
  S   S75       1.0  0.54451  0.19494  0.98164  1.0000
  Fe  Fe42      1.0  0.48320  0.30592  0.95415  1.0000
  S   S76       1.0  0.47643  0.34602  0.91972  1.0000
  S   S77       1.0  0.52213  0.30216  0.97931  1.0000
  S   S78       1.0  0.47802  0.24318  0.95052  1.0000
  Fe  Fe43      1.0  0.64226  0.02574  0.66537  1.0000
  H   H242      1.0  0.50630  0.15001  0.91962  1.0000
  C   C241      1.0  0.58110  0.14102  0.51574  1.0000
  S   S79       1.0  0.38014  0.44349  0.87807  1.0000
  H   H243      1.0  0.56341  0.01623  0.90993  1.0000
  C   C242      1.0  0.42076  0.42470  0.80677  1.0000
  Fe  Fe44      1.0  0.60909  0.06953  0.62080  1.0000
  S   S80       1.0  0.57293  0.10183  0.61228  1.0000
  H   H244      1.0  0.51597  0.11355  0.96048  1.0000
  S   S81       1.0  0.64347  0.08439  0.65087  1.0000
  C   C243      1.0  0.45081  0.37670  0.91173  1.0000
  C   C244      1.0  0.42898  0.37009  0.92011  1.0000
  C   C245      1.0  0.40780  0.39187  0.91041  1.0000
  C   C246      1.0  0.40824  0.42064  0.89243  1.0000
  C   C247      1.0  0.43039  0.42833  0.88492  1.0000
  C   C248      1.0  0.45149  0.40628  0.89440  1.0000
  H   H245      1.0  0.42813  0.34735  0.93334  1.0000
  H   H246      1.0  0.39079  0.38577  0.91641  1.0000
  H   H247      1.0  0.43106  0.45050  0.87122  1.0000
  H   H248      1.0  0.46834  0.41173  0.88791  1.0000
  C   C249      1.0  0.58310  0.16017  0.91710  1.0000
  C   C250      1.0  0.58803  0.14161  0.94097  1.0000
  C   C251      1.0  0.57658  0.15333  0.96083  1.0000
  C   C252      1.0  0.55990  0.18330  0.95687  1.0000
  C   C253      1.0  0.55531  0.20231  0.93321  1.0000
  C   C254      1.0  0.56698  0.19084  0.91345  1.0000
  H   H249      1.0  0.60054  0.11813  0.94402  1.0000
  H   H250      1.0  0.58028  0.13860  0.97916  1.0000
  H   H251      1.0  0.54257  0.22550  0.92998  1.0000
  H   H252      1.0  0.56316  0.20539  0.89505  1.0000
  C   C255      1.0  0.58427  0.10992  0.53202  1.0000
  C   C256      1.0  0.59290  0.10089  0.75568  1.0000
  C   C257      1.0  0.52843  0.11528  0.90041  1.0000
  C   C258      1.0  0.46493  0.45019  0.50786  1.0000
  H   H253      1.0  0.51034  0.17856  0.50938  1.0000
  C   C259      1.0  0.64833  0.02545  0.78268  1.0000
  C   C260      1.0  0.60843  0.01250  0.75414  1.0000
  C   C261      1.0  0.39765  0.41717  0.81193  1.0000
  H   H254      1.0  0.38700  0.47056  0.70630  1.0000
  H   H255      1.0  0.65364  0.11582  0.75659  1.0000
  C   C262      1.0  0.42291  0.36577  0.52184  1.0000
  C   C263      1.0  0.44277  0.38065  0.54046  1.0000
  C   C264      1.0  0.43933  0.41257  0.55501  1.0000
  C   C265      1.0  0.41615  0.43027  0.55090  1.0000
  C   C266      1.0  0.39629  0.41536  0.53229  1.0000
  C   C267      1.0  0.56359  0.09231  0.53765  1.0000
  H   H256      1.0  0.46071  0.36748  0.54374  1.0000
  H   H257      1.0  0.45478  0.42377  0.56944  1.0000
  H   H258      1.0  0.55316  0.07789  0.88733  1.0000
  C   C268      1.0  0.55437  0.20327  0.55808  1.0000
  C   C269      1.0  0.53558  0.18286  0.56562  1.0000
  C   C270      1.0  0.54161  0.15228  0.58260  1.0000
  C   C271      1.0  0.56639  0.14138  0.59180  1.0000
  C   C272      1.0  0.58518  0.16192  0.58439  1.0000
  C   C273      1.0  0.57917  0.19294  0.56783  1.0000
  H   H259      1.0  0.51645  0.19089  0.55864  1.0000
  H   H260      1.0  0.52698  0.13680  0.58847  1.0000
  H   H261      1.0  0.60433  0.15409  0.59153  1.0000
  H   H262      1.0  0.59384  0.20879  0.56229  1.0000
  H   H263      1.0  0.58067  0.09663  0.76885  1.0000
  H   H264      1.0  0.58599  0.04381  0.93260  1.0000
  S   S82       1.0  0.63036  0.05123  0.59147  1.0000
  C   C274      1.0  0.62452  0.10713  0.72205  1.0000
  C   C275      1.0  0.63394  0.11158  0.74885  1.0000
  C   C276      1.0  0.61798  0.10843  0.76573  1.0000
  H   H265      1.0  0.60275  0.10029  0.54104  1.0000
  H   H266      1.0  0.63722  0.10800  0.70915  1.0000
  C   C277      1.0  0.65916  0.02502  0.76093  1.0000
  H   H267      1.0  0.57352  0.26693  0.98616  1.0000
  H   H268      1.0  0.52525  0.13203  0.88289  1.0000
  C   C278      1.0  0.56662  0.03303  0.92817  1.0000
  S   S83       1.0  0.46514  0.31106  0.98798  1.0000
  N   N22       1.0  0.54923  0.06423  0.92553  1.0000
  C   C279      1.0  0.53919  0.07421  0.94597  1.0000
  C   C280      1.0  0.54429  0.08459  0.90308  1.0000
  C   C281      1.0  0.52329  0.10484  0.94399  1.0000
  Fe  Fe45      1.0  0.66788  0.05413  0.89483  1.0000
  S   S84       1.0  0.47265  0.23696  0.50828  1.0000
  S   S85       1.0  0.60782  0.02214  0.80573  1.0000
  H   H269      1.0  0.39789  0.34137  0.86777  1.0000
  C   C282      1.0  0.62285  0.01933  0.77939  1.0000
  S   S86       1.0  0.41342  0.47159  0.56882  1.0000
  H   H270      1.0  0.59494  0.06514  0.67910  1.0000
  S   S87       1.0  0.60599  0.01194  0.63731  1.0000
  C   C283      1.0  0.51787  0.12539  0.92102  1.0000
  H   H271      1.0  0.56470  0.08977  0.72121  1.0000
  H   H272      1.0  0.42694  0.46607  0.50467  1.0000
  C   C284      1.0  0.43775  0.37327  0.83450  1.0000
  C   C285      1.0  0.44101  0.40274  0.81818  1.0000
  N   N23       1.0  0.41502  0.36634  0.83964  1.0000
  C   C286      1.0  0.39509  0.38782  0.82858  1.0000
  C   C287      1.0  0.61919  0.01266  0.73234  1.0000
  C   C288      1.0  0.41170  0.33469  0.85612  1.0000
  H   H273      1.0  0.59934  0.11406  0.67286  1.0000
  C   C289      1.0  0.59064  0.09407  0.68427  1.0000
  C   C290      1.0  0.53993  0.10599  0.52674  1.0000
  C   C291      1.0  0.58408  0.09674  0.72876  1.0000
  H   H274      1.0  0.52404  0.09297  0.53197  1.0000
  S   S88       1.0  0.37970  0.49211  0.75661  1.0000
  H   H275      1.0  0.38190  0.43432  0.80331  1.0000
  S   S89       1.0  0.54797  0.24124  0.53611  1.0000
  H   H276      1.0  0.56596  0.06922  0.55128  1.0000
  S   S90       1.0  0.65919  0.02055  0.70889  1.0000
  H   H277      1.0  0.45915  0.40868  0.81458  1.0000
  H   H278      1.0  0.38604  0.17427  0.99798  1.0000
  Fe  Fe46      1.0  0.51132  0.25712  0.50896  1.0000
  Fe  Fe47      1.0  0.46268  0.24807  0.98642  1.0000
  H   H279      1.0  0.65967  0.03067  0.80197  1.0000
  C   C292      1.0  0.64464  0.01906  0.73563  1.0000
  S   S91       1.0  0.34571  0.49075  0.81383  1.0000
  H   H280      1.0  0.47196  0.46772  0.52480  1.0000
  S   S92       1.0  0.42702  0.21902  0.99035  1.0000
  H   H281      1.0  0.37719  0.38293  0.83312  1.0000
  S   S93       1.0  0.66495  0.00230  0.63865  1.0000
  H   H282      1.0  0.60783  0.00754  0.71307  1.0000
  H   H283      1.0  0.38411  0.37168  0.50380  1.0000
  Fe  Fe48      1.0  0.66493  0.06039  0.62324  1.0000
  H   H284      1.0  0.37501  0.49962  0.66252  1.0000
  Fe  Fe49      1.0  0.37574  0.49348  0.85081  1.0000
  H   H285      1.0  0.56457  0.01345  0.94387  1.0000
  C   C293      1.0  0.37834  0.49773  0.70423  1.0000
  Fe  Fe50      1.0  0.62322  0.00957  0.90486  1.0000
  H   H286      1.0  0.59708  0.15587  0.51208  1.0000
  N   N24       1.0  0.53698  0.13626  0.51057  1.0000
  C   C294      1.0  0.55718  0.15402  0.50524  1.0000
  H   H287      1.0  0.50059  0.42711  0.50689  1.0000
  H   H288      1.0  0.49721  0.13243  0.50296  1.0000
  S   S94       1.0  0.42610  0.32624  0.50241  1.0000
  H   H289      1.0  0.58874  0.00751  0.75141  1.0000
  H   H290      1.0  0.60600  0.27738  0.99317  1.0000
  S   S95       1.0  0.49931  0.31704  0.50053  1.0000
  H   H291      1.0  0.35839  0.95182  0.16395  1.0000
  Fe  Fe51      1.0  0.37089  0.96697  0.35303  1.0000
  S   S96       1.0  0.38288  0.92083  0.38280  1.0000
  H   H292      1.0  0.47304  0.89924  0.07617  1.0000
  S   S97       1.0  0.40131  0.99110  0.09154  1.0000
  S   S98       1.0  0.49116  0.84487  0.04533  1.0000
  Fe  Fe52      1.0  0.62091  0.55360  0.12317  1.0000
  S   S99       1.0  0.59318  0.60150  0.11663  1.0000
  H   H293      1.0  0.35088  0.58578  0.47478  1.0000
  S   S100      1.0  0.56785  0.70524  0.01577  1.0000
  Fe  Fe53      1.0  0.48898  0.73572  0.48265  1.0000
  S   S101      1.0  0.50457  0.73949  0.44678  1.0000
  H   H294      1.0  0.43198  0.93489  0.45338  1.0000
  H   H295      1.0  0.50005  0.59478  0.41711  1.0000
  S   S102      1.0  0.53738  0.81136  0.47447  1.0000
  Fe  Fe54      1.0  0.49899  0.80165  0.44954  1.0000
  S   S103      1.0  0.48769  0.84135  0.41530  1.0000
  Fe  Fe55      1.0  0.54119  0.74869  0.47467  1.0000
  S   S104      1.0  0.57767  0.71914  0.47566  1.0000
  Fe  Fe56      1.0  0.64696  0.50318  0.16753  1.0000
  H   H296      1.0  0.43839  0.90280  0.49620  1.0000
  C   C295      1.0  0.41588  0.85339  0.03035  1.0000
  S   S105      1.0  0.39151  0.99316  0.32543  1.0000
  C   C296      1.0  0.47017  0.92896  0.45108  1.0000
  C   C297      1.0  0.45377  0.90666  0.48689  1.0000
  Fe  Fe57      1.0  0.37522  0.95298  0.06418  1.0000
  S   S106      1.0  0.38196  0.89612  0.04796  1.0000
  C   C298      1.0  0.49958  0.63309  0.03286  1.0000
  Fe  Fe58      1.0  0.61255  0.53722  0.39655  1.0000
  S   S107      1.0  0.58381  0.58118  0.40076  1.0000
  C   C299      1.0  0.58029  0.68305  0.45327  1.0000
  C   C300      1.0  0.60204  0.66167  0.45732  1.0000
  C   C301      1.0  0.60406  0.63133  0.44074  1.0000
  C   C302      1.0  0.58427  0.62216  0.41996  1.0000
  C   C303      1.0  0.56292  0.64441  0.41543  1.0000
  C   C304      1.0  0.56086  0.67453  0.43203  1.0000
  H   H297      1.0  0.61729  0.66823  0.47357  1.0000
  H   H298      1.0  0.62064  0.61455  0.44439  1.0000
  H   H299      1.0  0.54759  0.63775  0.39928  1.0000
  H   H300      1.0  0.54413  0.69094  0.42848  1.0000
  H   H301      1.0  0.59012  0.59968  0.18284  1.0000
  H   H302      1.0  0.60670  0.55743  0.17934  1.0000
  Fe  Fe59      1.0  0.50023  0.80644  0.01439  1.0000
  H   H303      1.0  0.58493  0.58225  0.22574  1.0000
  H   H304      1.0  0.35114  0.92726  0.20569  1.0000
  H   H305      1.0  0.46715  0.94276  0.43237  1.0000
  C   C305      1.0  0.51326  0.60137  0.43514  1.0000
  H   H306      1.0  0.60348  0.57765  0.27299  1.0000
  S   S108      1.0  0.65745  0.55839  0.15239  1.0000
  S   S109      1.0  0.63776  0.52452  0.09382  1.0000
  C   C306      1.0  0.41253  0.90040  0.39224  1.0000
  C   C307      1.0  0.43218  0.91098  0.38118  1.0000
  C   C308      1.0  0.45503  0.89233  0.38824  1.0000
  C   C309      1.0  0.45854  0.86344  0.40670  1.0000
  C   C310      1.0  0.43902  0.85330  0.41803  1.0000
  C   C311      1.0  0.41610  0.87160  0.41073  1.0000
  H   H307      1.0  0.42962  0.93304  0.36687  1.0000
  H   H308      1.0  0.47008  0.90037  0.37940  1.0000
  H   H309      1.0  0.44148  0.83111  0.43224  1.0000
  H   H310      1.0  0.40095  0.86315  0.41931  1.0000
  S   S110      1.0  0.48049  0.79732  0.48315  1.0000
  C   C312      1.0  0.57531  0.67817  0.04466  1.0000
  C   C313      1.0  0.56258  0.68175  0.06459  1.0000
  C   C314      1.0  0.56849  0.65841  0.08662  1.0000
  C   C315      1.0  0.58704  0.63113  0.08894  1.0000
  C   C316      1.0  0.59982  0.62768  0.06905  1.0000
  C   C317      1.0  0.59402  0.65114  0.04711  1.0000
  H   H311      1.0  0.54816  0.70242  0.06299  1.0000
  H   H312      1.0  0.55855  0.66145  0.10192  1.0000
  H   H313      1.0  0.61420  0.60697  0.07058  1.0000
  H   H314      1.0  0.60403  0.64820  0.03186  1.0000
  C   C318      1.0  0.46061  0.85815  0.04594  1.0000
  H   H315      1.0  0.49111  0.64533  0.44625  1.0000
  C   C319      1.0  0.41240  0.88191  0.04755  1.0000
  C   C320      1.0  0.43314  0.89854  0.06392  1.0000
  C   C321      1.0  0.45711  0.88650  0.06323  1.0000
  H   H316      1.0  0.43073  0.92033  0.07737  1.0000
  H   H317      1.0  0.49732  0.97145  0.03878  1.0000
  C   C322      1.0  0.44879  0.92624  0.00113  1.0000
  H   H318      1.0  0.53960  0.56036  0.42911  1.0000
  C   C323      1.0  0.64096  0.58067  0.26810  1.0000
  C   C324      1.0  0.57565  0.56952  0.47187  1.0000
  H   H319      1.0  0.58119  0.55788  0.45444  1.0000
  C   C325      1.0  0.50831  0.62982  0.45136  1.0000
  C   C326      1.0  0.51956  0.61168  0.04572  1.0000
  S   S111      1.0  0.35230  0.96108  0.25544  1.0000
  Fe  Fe60      1.0  0.35536  0.98883  0.29535  1.0000
  C   C327      1.0  0.53560  0.58190  0.44210  1.0000
  H   H320      1.0  0.55427  0.58694  0.04325  1.0000
  H   H321      1.0  0.50689  0.92190  0.42818  1.0000
  H   H322      1.0  0.64918  0.57747  0.28870  1.0000
  C   C328      1.0  0.54794  0.61878  0.48047  1.0000
  C   C329      1.0  0.51362  0.91888  0.44960  1.0000
  N   N25       1.0  0.40488  0.89167  0.29766  1.0000
  C   C330      1.0  0.42441  0.87138  0.31127  1.0000
  C   C331      1.0  0.38265  0.89112  0.30478  1.0000
  C   C332      1.0  0.42181  0.84942  0.33239  1.0000
  C   C333      1.0  0.37948  0.86980  0.32595  1.0000
  C   C334      1.0  0.39917  0.84869  0.33972  1.0000
  C   C335      1.0  0.40767  0.91487  0.27564  1.0000
  H   H323      1.0  0.44221  0.87226  0.30600  1.0000
  H   H324      1.0  0.36726  0.90753  0.29425  1.0000
  H   H325      1.0  0.43743  0.83392  0.34353  1.0000
  H   H326      1.0  0.36209  0.87049  0.33212  1.0000
  C   C336      1.0  0.49314  0.91596  0.00423  1.0000
  C   C337      1.0  0.36010  0.97023  0.18059  1.0000
  H   H327      1.0  0.57316  0.54609  0.48477  1.0000
  C   C338      1.0  0.43989  0.84177  0.02936  1.0000
  H   H328      1.0  0.39712  0.83284  0.35662  1.0000
  H   H329      1.0  0.52085  0.60268  0.06559  1.0000
  S   S112      1.0  0.63989  0.54158  0.37084  1.0000
  C   C339      1.0  0.53835  0.60275  0.03315  1.0000
  S   S113      1.0  0.53865  0.81075  0.00674  1.0000
  H   H330      1.0  0.39306  0.90760  0.25804  1.0000
  C   C340      1.0  0.64501  0.58506  0.22362  1.0000
  C   C341      1.0  0.60491  0.58327  0.23252  1.0000
  H   H331      1.0  0.52530  0.89340  0.45243  1.0000
  C   C342      1.0  0.61526  0.58083  0.25925  1.0000
  H   H332      1.0  0.52203  0.66090  0.48675  1.0000
  N   N26       1.0  0.61978  0.58581  0.21513  1.0000
  C   C343      1.0  0.45919  0.98412  0.03717  1.0000
  C   C344      1.0  0.65598  0.58276  0.25021  1.0000
  H   H333      1.0  0.62025  0.60275  0.17641  1.0000
  N   N27       1.0  0.55268  0.59094  0.46443  1.0000
  S   S114      1.0  0.50021  0.74358  0.01483  1.0000
  H   H334      1.0  0.39994  0.84023  0.01772  1.0000
  H   H335      1.0  0.44236  0.81980  0.01605  1.0000
  C   C345      1.0  0.35601  0.95640  0.20432  1.0000
  C   C346      1.0  0.35812  0.97993  0.22620  1.0000
  C   C347      1.0  0.42930  0.94547  0.00802  1.0000
  H   H336      1.0  0.42595  0.91126  0.27071  1.0000
  C   C348      1.0  0.43461  0.97459  0.02614  1.0000
  H   H337      1.0  0.48500  0.64064  0.04253  1.0000
  S   S115      1.0  0.46621  0.68294  0.48415  1.0000
  H   H338      1.0  0.65680  0.58489  0.20978  1.0000
  N   N28       1.0  0.49291  0.91472  0.46241  1.0000
  C   C349      1.0  0.45019  0.92476  0.46297  1.0000
  C   C350      1.0  0.47824  0.96418  0.02993  1.0000
  C   C351      1.0  0.52571  0.63860  0.47418  1.0000
  N   N29       1.0  0.47289  0.93556  0.01220  1.0000
  H   H339      1.0  0.40561  0.94490  0.28023  1.0000
  H   H340      1.0  0.51485  0.88711  0.49541  1.0000
  C   C352      1.0  0.49672  0.89776  0.48616  1.0000
  H   H341      1.0  0.52512  0.94357  0.45759  1.0000
  C   C353      1.0  0.60866  0.58642  0.18713  1.0000
  H   H342      1.0  0.50891  0.91151  0.02120  1.0000
  H   H343      1.0  0.56158  0.62634  0.49798  1.0000
  H   H344      1.0  0.59127  0.58766  0.48201  1.0000
  C   C354      1.0  0.53713  0.61605  0.00801  1.0000
  S   S116      1.0  0.34270  0.96488  0.08225  1.0000
  H   H345      1.0  0.43942  0.61776  0.49366  1.0000
  H   H346      1.0  0.41975  0.98948  0.03196  1.0000
  S   S117      1.0  0.36514  0.99606  0.03288  1.0000
  C   C355      1.0  0.47723  0.89340  0.49873  1.0000
  C   C356      1.0  0.49872  0.64531  0.00752  1.0000
  Fe  Fe61      1.0  0.53673  0.74766  0.00354  1.0000
  S   S118      1.0  0.33915  0.59598  0.57450  1.0000
  S   S119      1.0  0.51986  0.74863  0.96033  1.0000
  H   H347      1.0  0.45977  0.61108  0.62052  1.0000
  S   S120      1.0  0.48047  0.81012  0.97243  1.0000
  H   H348      1.0  0.66208  0.94122  0.92568  1.0000
  Fe  Fe62      1.0  0.48333  0.74730  0.97183  1.0000
  S   S121      1.0  0.45162  0.70549  0.95848  1.0000
  Fe  Fe63      1.0  0.51892  0.81149  0.96456  1.0000
  S   S122      1.0  0.52535  0.85310  0.93373  1.0000
  C   C357      1.0  0.36219  0.55082  0.72327  1.0000
  C   C358      1.0  0.62590  0.83037  0.56295  1.0000
  S   S123      1.0  0.39323  0.55878  0.59642  1.0000
  H   H349      1.0  0.48031  0.87935  0.51739  1.0000
  Fe  Fe64      1.0  0.37603  0.59657  0.56372  1.0000
  S   S124      1.0  0.39234  0.65371  0.55864  1.0000
  Fe  Fe65      1.0  0.35573  0.55430  0.60545  1.0000
  H   H350      1.0  0.39269  0.60841  0.66817  1.0000
  S   S125      1.0  0.36611  0.55026  0.53443  1.0000
  H   H351      1.0  0.64450  0.82596  0.53124  1.0000
  S   S126      1.0  0.61477  0.96839  0.93494  1.0000
  S   S127      1.0  0.52663  0.84268  0.54316  1.0000
  Fe  Fe66      1.0  0.39146  0.57221  0.84001  1.0000
  S   S128      1.0  0.41814  0.62158  0.84977  1.0000
  C   C359      1.0  0.43524  0.63985  0.50601  1.0000
  S   S129      1.0  0.36300  0.57527  0.80208  1.0000
  C   C360      1.0  0.61216  0.79030  0.52542  1.0000
  C   C361      1.0  0.40738  0.60907  0.65767  1.0000
  S   S130      1.0  0.62238  0.94458  0.58083  1.0000
  C   C362      1.0  0.42693  0.58387  0.66449  1.0000
  H   H352      1.0  0.41077  0.60519  0.52269  1.0000
  C   C363      1.0  0.55148  0.87530  0.55106  1.0000
  C   C364      1.0  0.56958  0.87779  0.53650  1.0000
  C   C365      1.0  0.59052  0.90100  0.54508  1.0000
  C   C366      1.0  0.59351  0.92214  0.56813  1.0000
  C   C367      1.0  0.57474  0.92122  0.58190  1.0000
  C   C368      1.0  0.55386  0.89781  0.57341  1.0000
  H   H353      1.0  0.42476  0.65487  0.60917  1.0000
  H   H354      1.0  0.60490  0.90169  0.53423  1.0000
  H   H355      1.0  0.57683  0.93723  0.59973  1.0000
  H   H356      1.0  0.53988  0.89625  0.58474  1.0000
  H   H357      1.0  0.35831  0.56504  0.74001  1.0000
  C   C369      1.0  0.62909  0.81642  0.53910  1.0000
  C   C370      1.0  0.41329  0.66114  0.53829  1.0000
  H   H358      1.0  0.40684  0.71903  0.89065  1.0000
  H   H359      1.0  0.40710  0.70971  0.85749  1.0000
  N   N30       1.0  0.60616  0.81903  0.57265  1.0000
  H   H360      1.0  0.38305  0.66888  0.60998  1.0000
  H   H361      1.0  0.46094  0.56461  0.65580  1.0000
  H   H362      1.0  0.51560  0.62624  0.95556  1.0000
  Fe  Fe67      1.0  0.38110  0.51151  0.56777  1.0000
  H   H363      1.0  0.36765  0.64339  0.63073  1.0000
  C   C371      1.0  0.35960  0.54867  0.67628  1.0000
  C   C372      1.0  0.36739  0.67901  0.89103  1.0000
  C   C373      1.0  0.35530  0.56711  0.69842  1.0000
  C   C374      1.0  0.44525  0.61050  0.63126  1.0000
  C   C375      1.0  0.60338  0.83319  0.59794  1.0000
  C   C376      1.0  0.58951  0.79335  0.55938  1.0000
  C   C377      1.0  0.55052  0.88476  0.93447  1.0000
  C   C378      1.0  0.55082  0.90642  0.91229  1.0000
  C   C379      1.0  0.57032  0.93195  0.91195  1.0000
  C   C380      1.0  0.58976  0.93632  0.93393  1.0000
  C   C381      1.0  0.58938  0.91489  0.95617  1.0000
  C   C382      1.0  0.56995  0.88924  0.95645  1.0000
  H   H364      1.0  0.53596  0.90309  0.89513  1.0000
  H   H365      1.0  0.57038  0.94787  0.89460  1.0000
  H   H366      1.0  0.60429  0.91793  0.97329  1.0000
  H   H367      1.0  0.57005  0.87281  0.97364  1.0000
  C   C383      1.0  0.42991  0.64030  0.88133  1.0000
  C   C384      1.0  0.41928  0.63145  0.90218  1.0000
  C   C385      1.0  0.42670  0.65097  0.92596  1.0000
  C   C386      1.0  0.44502  0.67910  0.92924  1.0000
  C   C387      1.0  0.45644  0.68682  0.90878  1.0000
  C   C388      1.0  0.44881  0.66759  0.88490  1.0000
  H   H368      1.0  0.40478  0.61044  0.89972  1.0000
  H   H369      1.0  0.41790  0.64465  0.94177  1.0000
  H   H370      1.0  0.47055  0.70842  0.91104  1.0000
  H   H371      1.0  0.45716  0.67461  0.86886  1.0000
  H   H372      1.0  0.61428  0.77908  0.50687  1.0000
  H   H373      1.0  0.49957  0.93201  0.98903  1.0000
  C   C389      1.0  0.59232  0.77859  0.53564  1.0000
  C   C390      1.0  0.37340  0.51572  0.72626  1.0000
  C   C391      1.0  0.51676  0.65029  0.96914  1.0000
  H   H374      1.0  0.61219  0.81377  0.61361  1.0000
  S   S131      1.0  0.52602  0.74191  0.51043  1.0000
  H   H375      1.0  0.37076  0.68059  0.82829  1.0000
  H   H376      1.0  0.35685  0.62937  0.50951  1.0000
  C   C392      1.0  0.34805  0.65310  0.88956  1.0000
  H   H377      1.0  0.42709  0.56366  0.67983  1.0000
  Fe  Fe68      1.0  0.37398  0.51695  0.79468  1.0000
  S   S132      1.0  0.36430  0.55055  0.86238  1.0000
  H   H378      1.0  0.57918  0.75824  0.52509  1.0000
  H   H379      1.0  0.34611  0.59388  0.69628  1.0000
  H   H380      1.0  0.61204  0.86138  0.60220  1.0000
  H   H381      1.0  0.44453  0.90312  0.98743  1.0000
  H   H382      1.0  0.58347  0.83629  0.59814  1.0000
  H   H383      1.0  0.56798  0.86078  0.51921  1.0000
  S   S133      1.0  0.40467  0.51531  0.83094  1.0000
  C   C393      1.0  0.38515  0.65853  0.63021  1.0000
  C   C394      1.0  0.37158  0.51416  0.67936  1.0000
  N   N31       1.0  0.37528  0.68871  0.86917  1.0000
  C   C395      1.0  0.39479  0.71708  0.87070  1.0000
  C   C396      1.0  0.44589  0.58447  0.65104  1.0000
  S   S134      1.0  0.34836  0.56919  0.64528  1.0000
  N   N32       1.0  0.51748  0.63700  0.99553  1.0000
  H   H384      1.0  0.63893  0.85111  0.57333  1.0000
  H   H385      1.0  0.50053  0.66849  0.96171  1.0000
  H   H386      1.0  0.34217  0.64484  0.90699  1.0000
  H   H387      1.0  0.53377  0.66697  0.96907  1.0000
  C   C397      1.0  0.44618  0.67535  0.50548  1.0000
  C   C398      1.0  0.36418  0.67349  0.84553  1.0000
  H   H388      1.0  0.57368  0.78466  0.56688  1.0000
  C   C399      1.0  0.42420  0.69664  0.53778  1.0000
  H   H389      1.0  0.38746  0.68278  0.64374  1.0000
  H   H390      1.0  0.48723  0.88761  0.99643  1.0000
  S   S135      1.0  0.34425  0.50427  0.57907  1.0000
  C   C400      1.0  0.34453  0.64803  0.84330  1.0000
  H   H391      1.0  0.41988  0.71886  0.54995  1.0000
  C   C401      1.0  0.44068  0.70371  0.52154  1.0000
  C   C402      1.0  0.41896  0.63268  0.52242  1.0000
  H   H392      1.0  0.38644  0.74481  0.86522  1.0000
  N   N33       1.0  0.40640  0.63350  0.63759  1.0000
  Fe  Fe69      1.0  0.51933  0.80386  0.50791  1.0000
  H   H393      1.0  0.44892  0.73116  0.52126  1.0000
  Fe  Fe70      1.0  0.62872  0.99419  0.60908  1.0000
  C   C403      1.0  0.42531  0.63515  0.62486  1.0000
  S   S136      1.0  0.64965  0.99951  0.87877  1.0000
  H   H394      1.0  0.48313  0.66197  0.99770  1.0000
  H   H395      1.0  0.37638  0.69079  0.90983  1.0000
  H   H396      1.0  0.66386  0.96502  0.97022  1.0000
  H   H397      1.0  0.55237  0.61051  0.99881  1.0000
  H   H398      1.0  0.34101  0.67949  0.53330  1.0000
  H   H399      1.0  0.41022  0.93714  0.00000  1.0000
  S   S137      1.0  0.86368  0.12917  0.03430  1.0000
  C   C404      1.0  0.94580  0.42237  0.45232  1.0000
  Fe  Fe71      1.0  0.89025  0.10044  0.01425  1.0000
  S   S138      1.0  0.91769  0.05266  0.02631  1.0000
  Fe  Fe72      1.0  0.87997  0.18361  0.02425  1.0000
  S   S139      1.0  0.89188  0.22807  0.05605  1.0000
  Fe  Fe73      1.0  0.98673  0.35963  0.33102  1.0000
  Fe  Fe74      1.0  0.87625  0.44010  0.10292  1.0000
  S   S140      1.0  0.87349  0.42418  0.14335  1.0000
  S   S141      1.0  0.86646  0.40078  0.06741  1.0000
  Fe  Fe75      1.0  0.90774  0.45974  0.15696  1.0000
  S   S142      1.0  0.94299  0.44109  0.18560  1.0000
  H   H400      1.0  0.93983  0.31663  0.18334  1.0000
  S   S143      1.0  0.91189  0.47279  0.11620  1.0000
  Fe  Fe76      1.0  0.86722  0.37463  0.47693  1.0000
  S   S144      1.0  0.87555  0.37095  0.43688  1.0000
  H   H401      1.0  0.95660  0.36070  0.18813  1.0000
  H   H402      1.0  0.78037  0.35701  0.45022  1.0000
  S   S145      1.0  0.78461  0.41775  0.49413  1.0000
  H   H403      1.0  0.92766  0.32747  0.23912  1.0000
  H   H404      1.0  0.72273  0.48212  0.05440  1.0000
  S   S146      1.0  0.98020  0.30061  0.34245  1.0000
  C   C405      1.0  0.76325  0.44491  0.47133  1.0000
  C   C406      1.0  0.73778  0.44130  0.47059  1.0000
  C   C407      1.0  0.71990  0.46018  0.45178  1.0000
  H   H405      1.0  0.73181  0.42327  0.48444  1.0000
  Fe  Fe77      1.0  0.99146  0.32092  0.38363  1.0000
  C   C408      1.0  0.77071  0.46861  0.45346  1.0000
  C   C409      1.0  0.96011  0.30765  0.26587  1.0000
  H   H406      1.0  0.85149  0.18344  0.07550  1.0000
  C   C410      1.0  0.74286  0.41660  0.39439  1.0000
  C   C411      1.0  0.69085  0.43602  0.09162  1.0000
  H   H407      1.0  0.97143  0.26501  0.00352  1.0000
  C   C412      1.0  0.84181  0.20825  0.08105  1.0000
  H   H408      1.0  0.81152  0.31437  0.03582  1.0000
  H   H409      1.0  0.70680  0.40325  0.12548  1.0000
  C   C413      1.0  0.92037  0.01743  0.05034  1.0000
  H   H410      1.0  0.75010  0.41307  0.12074  1.0000
  N   N34       1.0  0.82786  0.22734  0.05783  1.0000
  C   C414      1.0  0.95206  0.40330  0.27048  1.0000
  C   C415      1.0  0.92862  0.41348  0.25567  1.0000
  C   C416      1.0  0.92559  0.42601  0.22987  1.0000
  C   C417      1.0  0.94608  0.42869  0.21867  1.0000
  C   C418      1.0  0.96959  0.41890  0.23357  1.0000
  C   C419      1.0  0.97260  0.40619  0.25935  1.0000
  H   H411      1.0  0.91262  0.41133  0.26413  1.0000
  H   H412      1.0  0.90739  0.43326  0.21859  1.0000
  H   H413      1.0  0.98554  0.42086  0.22503  1.0000
  C   C420      1.0  0.94695  0.31994  0.42189  1.0000
  C   C421      1.0  0.93225  0.34321  0.40348  1.0000
  C   C422      1.0  0.91031  0.35833  0.40826  1.0000
  C   C423      1.0  0.90314  0.35099  0.43165  1.0000
  C   C424      1.0  0.91797  0.32802  0.45017  1.0000
  C   C425      1.0  0.93960  0.31216  0.44513  1.0000
  H   H414      1.0  0.93767  0.34932  0.38548  1.0000
  H   H415      1.0  0.89887  0.37592  0.39377  1.0000
  H   H416      1.0  0.91256  0.32197  0.46817  1.0000
  H   H417      1.0  0.95086  0.29414  0.45944  1.0000
  C   C426      1.0  0.88534  0.27648  0.05830  1.0000
  C   C427      1.0  0.87226  0.29690  0.03707  1.0000
  C   C428      1.0  0.86691  0.33496  0.04020  1.0000
  C   C429      1.0  0.87450  0.35309  0.06449  1.0000
  C   C430      1.0  0.88765  0.33267  0.08566  1.0000
  C   C431      1.0  0.89307  0.29466  0.08252  1.0000
  H   H418      1.0  0.86596  0.28340  0.01836  1.0000
  H   H419      1.0  0.85676  0.35053  0.02369  1.0000
  H   H420      1.0  0.89366  0.34622  0.10443  1.0000
  H   H421      1.0  0.90329  0.27923  0.09907  1.0000
  C   C432      1.0  0.98400  0.32073  0.22596  1.0000
  C   C433      1.0  0.76847  0.48827  0.15856  1.0000
  H   H422      1.0  0.71056  0.39791  0.40709  1.0000
  S   S147      1.0  0.95428  0.38554  0.30223  1.0000
  C   C434      1.0  0.94531  0.34069  0.19679  1.0000
  H   H423      1.0  0.98969  0.21847  0.35671  1.0000
  H   H424      1.0  0.85661  0.22672  0.09251  1.0000
  C   C435      1.0  0.91593  0.45375  0.47257  1.0000
  N   N35       1.0  0.69535  0.45796  0.07201  1.0000
  C   C436      1.0  0.90117  0.00868  0.06259  1.0000
  H   H425      1.0  0.99353  0.32602  0.21051  1.0000
  H   H426      1.0  0.81642  0.40357  0.40782  1.0000
  H   H427      1.0  0.93698  0.25128  0.02550  1.0000
  Fe  Fe78      1.0  0.85243  0.47806  0.14328  1.0000
  H   H428      1.0  0.77238  0.47386  0.17702  1.0000
  H   H429      1.0  0.73473  0.35832  0.44245  1.0000
  C   C437      1.0  0.71907  0.46344  0.06923  1.0000
  C   C438      1.0  0.81241  0.28405  0.03591  1.0000
  C   C439      1.0  0.97601  0.37954  0.47605  1.0000
  C   C440      1.0  0.73049  0.39552  0.40972  1.0000
  H   H430      1.0  0.83500  0.28183  0.07471  1.0000
  H   H431      1.0  0.81747  0.17654  0.03661  1.0000
  C   C441      1.0  0.82571  0.26544  0.05791  1.0000
  C   C442      1.0  0.74404  0.37330  0.42954  1.0000
  S   S148      1.0  0.85692  0.43286  0.48664  1.0000
  H   H432      1.0  0.70039  0.45661  0.45125  1.0000
  C   C443      1.0  0.74421  0.50082  0.14796  1.0000
  N   N36       1.0  0.78187  0.39321  0.41857  1.0000
  H   H433      1.0  0.79020  0.47208  0.45397  1.0000
  H   H434      1.0  0.81602  0.41295  0.44135  1.0000
  H   H435      1.0  0.75787  0.45167  0.08445  1.0000
  H   H436      1.0  0.88456  0.02541  0.05879  1.0000
  H   H437      1.0  0.93722  0.43565  0.43408  1.0000
  H   H438      1.0  0.92838  0.35615  0.19845  1.0000
  C   C444      1.0  0.71041  0.41936  0.10935  1.0000
  H   H439      1.0  0.77824  0.43286  0.38784  1.0000
  H   H440      1.0  0.97249  0.39292  0.43563  1.0000
  H   H441      1.0  0.99568  0.29022  0.28849  1.0000
  C   C445      1.0  0.96572  0.39828  0.45306  1.0000
  H   H442      1.0  0.99412  0.24134  0.38774  1.0000
  C   C446      1.0  0.76989  0.37267  0.43383  1.0000
  C   C447      1.0  0.98540  0.30054  0.26985  1.0000
  H   H443      1.0  0.82915  0.19929  0.09344  1.0000
  S   S149      1.0  0.81809  0.47935  0.16047  1.0000
  C   C448      1.0  0.80903  0.39391  0.42458  1.0000
  C   C449      1.0  0.73465  0.42472  0.10663  1.0000
  C   C450      1.0  0.72730  0.48342  0.43365  1.0000
  S   S150      1.0  0.97507  0.30132  0.41705  1.0000
  S   S151      1.0  0.85308  0.49206  0.10217  1.0000
  H   H444      1.0  0.95070  0.30386  0.28163  1.0000
  C   C451      1.0  0.78767  0.49434  0.14559  1.0000
  H   H445      1.0  0.81665  0.36554  0.42964  1.0000
  H   H446      1.0  0.72963  0.49580  0.15814  1.0000
  C   C452      1.0  0.76873  0.41522  0.39916  1.0000
  C   C453      1.0  0.75282  0.48793  0.43487  1.0000
  C   C454      1.0  0.94718  0.32115  0.24177  1.0000
  S   S152      1.0  0.90861  0.15468  0.00727  1.0000
  C   C455      1.0  0.67495  0.47766  0.05479  1.0000
  N   N37       1.0  0.95920  0.32772  0.22225  1.0000
  C   C456      1.0  0.73902  0.44642  0.08622  1.0000
  H   H447      1.0  0.73252  0.43544  0.37986  1.0000
  N   N38       1.0  0.93681  0.42834  0.47407  1.0000
  H   H448      1.0  0.99074  0.39846  0.27053  1.0000
  C   C457      1.0  0.81622  0.20681  0.03656  1.0000
  S   S153      1.0  0.99508  0.38057  0.37250  1.0000
  H   H449      1.0  0.92025  0.48150  0.46528  1.0000
  C   C458      1.0  0.99748  0.30714  0.24982  1.0000
  H   H450      1.0  0.89916  0.44187  0.45920  1.0000
  H   H451      1.0  0.97745  0.19779  0.38254  1.0000
  C   C459      1.0  0.99326  0.21356  0.37803  1.0000
  H   H452      1.0  0.91159  0.45833  0.49191  1.0000
  H   H453      1.0  0.67811  0.49114  0.26669  1.0000
  S   S154      1.0  0.83461  0.34699  0.48834  1.0000
  H   H454      1.0  0.99085  0.35972  0.47648  1.0000
  C   C460      1.0  0.80273  0.22449  0.01425  1.0000
  C   C461      1.0  0.80099  0.26338  0.01390  1.0000
  C   C462      1.0  0.93327  0.25489  0.00453  1.0000
  C   C463      1.0  0.96655  0.38546  0.49808  1.0000
  C   C464      1.0  0.94687  0.41023  0.49677  1.0000
  H   H455      1.0  0.67638  0.47535  0.03421  1.0000
  H   H456      1.0  0.95681  0.00193  0.04623  1.0000
  H   H457      1.0  0.67208  0.43203  0.09400  1.0000
  S   S155      1.0  0.87481  0.02449  0.66493  1.0000
  S   S156      1.0  0.71034  0.05591  0.90266  1.0000
  C   C465      1.0  0.77633  0.13613  0.57512  1.0000
  C   C466      1.0  0.77156  0.02453  0.68401  1.0000
  H   H458      1.0  0.78999  0.03283  0.68222  1.0000
  S   S157      1.0  0.88906  0.17159  0.93074  1.0000
  H   H459      1.0  0.76082  0.13664  0.58451  1.0000
  H   H460      1.0  0.95038  0.49482  0.63327  1.0000
  S   S158      1.0  0.89311  0.36437  0.51558  1.0000
  S   S159      1.0  0.84941  0.39808  0.54140  1.0000
  Fe  Fe79      1.0  0.88113  0.42132  0.52615  1.0000
  S   S160      1.0  0.91421  0.45565  0.54828  1.0000
  Fe  Fe80      1.0  0.85971  0.34153  0.52826  1.0000
  S   S161      1.0  0.85738  0.29653  0.55851  1.0000
  Fe  Fe81      1.0  0.89814  0.01479  0.63547  1.0000
  Fe  Fe82      1.0  0.87868  0.08740  0.60579  1.0000
  S   S162      1.0  0.85390  0.10126  0.63252  1.0000
  S   S163      1.0  0.88195  0.12266  0.57083  1.0000
  Fe  Fe83      1.0  0.88652  0.08502  0.66468  1.0000
  S   S164      1.0  0.89559  0.12688  0.69821  1.0000
  Fe  Fe84      1.0  0.84416  0.04019  0.63049  1.0000
  S   S165      1.0  0.91181  0.07479  0.63779  1.0000
  H   H461      1.0  0.91384  0.29866  0.91796  1.0000
  C   C467      1.0  0.75142  0.09184  0.62814  1.0000
  C   C468      1.0  0.77470  0.07571  0.62872  1.0000
  H   H462      1.0  0.75028  0.12143  0.63200  1.0000
  H   H463      1.0  0.79134  0.09280  0.63305  1.0000
  C   C469      1.0  0.96701  0.12935  0.76310  1.0000
  C   C470      1.0  0.96289  0.10055  0.74433  1.0000
  C   C471      1.0  0.94111  0.09931  0.72442  1.0000
  C   C472      1.0  0.92315  0.12691  0.72312  1.0000
  C   C473      1.0  0.92731  0.15588  0.74176  1.0000
  C   C474      1.0  0.94915  0.15715  0.76167  1.0000
  H   H464      1.0  0.97659  0.07890  0.74527  1.0000
  H   H465      1.0  0.93813  0.07685  0.71023  1.0000
  H   H466      1.0  0.91351  0.17735  0.74093  1.0000
  H   H467      1.0  0.95207  0.17945  0.77598  1.0000
  C   C475      1.0  0.86412  0.24812  0.56104  1.0000
  C   C476      1.0  0.85874  0.22821  0.58206  1.0000
  C   C477      1.0  0.86422  0.18990  0.58542  1.0000
  C   C478      1.0  0.87512  0.17101  0.56769  1.0000
  C   C479      1.0  0.88026  0.19077  0.54652  1.0000
  C   C480      1.0  0.87485  0.22917  0.54321  1.0000
  H   H468      1.0  0.85025  0.24262  0.59583  1.0000
  H   H469      1.0  0.85997  0.17501  0.60169  1.0000
  H   H470      1.0  0.88856  0.17636  0.53260  1.0000
  H   H471      1.0  0.87905  0.24411  0.52693  1.0000
  H   H472      1.0  0.88563  0.25222  0.95126  1.0000
  C   C481      1.0  0.81755  0.06535  0.55454  1.0000
  H   H473      1.0  0.90204  0.25124  0.91252  1.0000
  C   C482      1.0  0.91960  0.17478  0.92588  1.0000
  C   C483      1.0  0.92310  0.17890  0.90047  1.0000
  C   C484      1.0  0.94683  0.18621  0.89606  1.0000
  C   C485      1.0  0.96721  0.19000  0.91713  1.0000
  C   C486      1.0  0.96382  0.18488  0.94249  1.0000
  C   C487      1.0  0.94018  0.17695  0.94686  1.0000
  H   H474      1.0  0.90728  0.17728  0.88411  1.0000
  H   H475      1.0  0.94919  0.19017  0.87644  1.0000
  H   H476      1.0  0.97948  0.18775  0.95889  1.0000
  H   H477      1.0  0.93777  0.17394  0.96650  1.0000
  C   C488      1.0  0.73360  0.07843  0.92691  1.0000
  C   C489      1.0  0.72818  0.09728  0.94821  1.0000
  C   C490      1.0  0.74755  0.11237  0.96784  1.0000
  C   C491      1.0  0.77252  0.10908  0.96638  1.0000
  C   C492      1.0  0.77788  0.09068  0.94491  1.0000
  C   C493      1.0  0.75855  0.07537  0.92539  1.0000
  H   H478      1.0  0.70911  0.09987  0.94968  1.0000
  S   S166      1.0  0.79624  0.12699  0.99237  1.0000
  H   H479      1.0  0.79694  0.08792  0.94342  1.0000
  H   H480      1.0  0.76298  0.06092  0.90899  1.0000
  C   C494      1.0  0.72963  0.06993  0.62284  1.0000
  C   C495      1.0  0.91806  0.26884  0.92253  1.0000
  C   C496      1.0  0.81572  0.13362  0.55090  1.0000
  C   C497      1.0  0.78708  0.10211  0.57079  1.0000
  S   S167      1.0  0.80491  0.01571  0.62312  1.0000
  H   H481      1.0  0.93959  0.41461  0.51398  1.0000
  H   H482      1.0  0.94796  0.14352  0.68027  1.0000
  H   H483      1.0  0.75939  0.08080  0.68714  1.0000
  C   C498      1.0  0.80546  0.16815  0.55495  1.0000
  N   N39       1.0  0.92341  0.26318  0.95076  1.0000
  C   C499      1.0  0.77632  0.03756  0.62344  1.0000
  H   H484      1.0  0.83103  0.13288  0.54124  1.0000
  Fe  Fe85      1.0  0.88044  0.15607  0.96948  1.0000
  N   N40       1.0  0.91459  0.21127  0.64403  1.0000
  C   C500      1.0  0.92042  0.20425  0.62062  1.0000
  C   C501      1.0  0.92431  0.18980  0.66525  1.0000
  C   C502      1.0  0.93630  0.17499  0.61801  1.0000
  C   C503      1.0  0.94063  0.16080  0.66345  1.0000
  C   C504      1.0  0.94660  0.15336  0.63966  1.0000
  C   C505      1.0  0.89662  0.24032  0.64613  1.0000
  H   H485      1.0  0.91244  0.22083  0.60365  1.0000
  H   H486      1.0  0.91914  0.19452  0.68365  1.0000
  Fe  Fe86      1.0  0.83789  0.13290  0.99439  1.0000
  H   H487      1.0  0.81591  0.04473  0.56983  1.0000
  C   C506      1.0  0.90910  0.25156  0.98972  1.0000
  H   H488      1.0  0.90248  0.25582  0.66485  1.0000
  H   H489      1.0  0.89471  0.26108  0.63015  1.0000
  H   H490      1.0  0.87820  0.22719  0.64520  1.0000
  C   C507      1.0  0.75454  0.01571  0.61816  1.0000
  H   H491      1.0  0.80790  0.05400  0.53527  1.0000
  H   H492      1.0  0.67889  0.02974  0.76375  1.0000
  H   H493      1.0  0.71629  0.09652  0.68165  1.0000
  S   S168      1.0  0.85283  0.18912  0.98581  1.0000
  H   H494      1.0  0.77962  0.07632  0.57678  1.0000
  C   C508      1.0  0.74276  0.01296  0.97846  1.0000
  H   H495      1.0  0.71292  0.07421  0.71163  1.0000
  H   H496      1.0  0.94010  0.16866  0.59918  1.0000
  C   C509      1.0  0.94719  0.26696  0.96515  1.0000
  C   C510      1.0  0.73135  0.03168  0.61810  1.0000
  H   H497      1.0  0.74314  0.12658  0.98432  1.0000
  C   C511      1.0  0.78574  0.16936  0.56730  1.0000
  C   C512      1.0  0.75413  0.05150  0.68669  1.0000
  H   H498      1.0  0.69357  0.06088  0.68058  1.0000
  H   H499      1.0  0.71476  0.01449  0.61393  1.0000
  H   H500      1.0  0.93404  0.26040  0.91435  1.0000
  S   S169      1.0  0.70078  0.09157  0.62216  1.0000
  H   H501      1.0  0.83765  0.06852  0.55499  1.0000
  H   H502      1.0  0.89414  0.24535  0.99919  1.0000
  H   H503      1.0  0.81295  0.19380  0.54871  1.0000
  H   H504      1.0  0.77774  0.19600  0.57072  1.0000
  H   H505      1.0  0.95864  0.13019  0.63786  1.0000
  N   N41       1.0  0.80681  0.10129  0.55927  1.0000
  S   S170      1.0  0.86689  0.02681  0.60112  1.0000
  C   C513      1.0  0.90444  0.25575  0.96270  1.0000
  H   H506      1.0  0.97416  0.37065  0.51597  1.0000
  S   S171      1.0  0.86338  0.10018  0.97502  1.0000
  C   C514      1.0  0.71257  0.06971  0.69072  1.0000
  S   S172      1.0  0.99763  0.22592  0.83516  1.0000
  S   S173      1.0  0.99468  0.12889  0.78787  1.0000
  N   N42       1.0  0.73060  0.04116  0.68787  1.0000
  H   H507      1.0  0.96226  0.27261  0.95564  1.0000
  S   S174      1.0  0.99674  0.20425  0.91309  1.0000
  H   H508      1.0  0.79088  0.27743  0.99657  1.0000
  H   H509      1.0  0.73772  0.03864  0.98794  1.0000
  C   C515      1.0  0.72404  0.00418  0.68747  1.0000
  C   C516      1.0  0.95251  0.26260  0.99222  1.0000
  H   H510      1.0  0.75517  0.02202  0.96575  1.0000
  H   H511      1.0  0.79389  0.20800  0.99728  1.0000
  Fe  Fe87      1.0  0.82596  0.40470  0.50069  1.0000
  S   S175      1.0  0.70869  0.53587  0.10985  1.0000
  S   S176      1.0  0.95119  0.81837  0.08029  1.0000
  Fe  Fe88      1.0  0.88874  0.52365  0.11899  1.0000
  S   S177      1.0  0.97013  0.83729  0.14269  1.0000
  Fe  Fe89      1.0  0.96916  0.78670  0.11650  1.0000
  S   S178      1.0  0.96170  0.72805  0.13138  1.0000
  Fe  Fe90      1.0  0.95534  0.86977  0.10584  1.0000
  S   S179      1.0  0.92518  0.91358  0.10257  1.0000
  S   S180      1.0  0.88667  0.51245  0.16042  1.0000
  H   H512      1.0  0.67595  0.58092  0.25675  1.0000
  H   H513      1.0  0.81740  0.56184  0.15021  1.0000
  S   S181      1.0  0.89208  0.58227  0.10174  1.0000
  H   H514      1.0  0.87878  0.62959  0.14274  1.0000
  Fe  Fe91      1.0  0.98999  0.83276  0.07674  1.0000
  S   S182      1.0  0.99283  0.88560  0.10016  1.0000
  H   H515      1.0  0.81544  0.60647  0.11273  1.0000
  H   H516      1.0  0.96912  0.73783  0.04182  1.0000
  N   N43       1.0  0.92330  0.94924  0.00085  1.0000
  H   H517      1.0  0.83845  0.57484  0.10560  1.0000
  C   C517      1.0  0.86921  0.61298  0.15459  1.0000
  H   H518      1.0  0.98575  0.98905  0.19385  1.0000
  H   H519      1.0  0.99300  0.66462  0.11648  1.0000
  H   H520      1.0  0.97668  0.95616  0.12694  1.0000
  C   C518      1.0  0.91345  0.89246  0.03299  1.0000
  C   C519      1.0  0.94193  0.68798  0.12266  1.0000
  C   C520      1.0  0.94570  0.65648  0.13904  1.0000
  C   C521      1.0  0.93095  0.62381  0.13288  1.0000
  C   C522      1.0  0.91213  0.62209  0.11015  1.0000
  C   C523      1.0  0.90833  0.65361  0.09380  1.0000
  C   C524      1.0  0.92312  0.68625  0.09992  1.0000
  H   H521      1.0  0.96017  0.65733  0.15668  1.0000
  H   H522      1.0  0.93416  0.59997  0.14573  1.0000
  H   H523      1.0  0.89377  0.65278  0.07622  1.0000
  H   H524      1.0  0.91983  0.71010  0.08711  1.0000
  C   C525      1.0  0.92427  0.95455  0.08351  1.0000
  C   C526      1.0  0.97777  0.95310  0.14812  1.0000
  H   H525      1.0  0.96175  0.96849  0.15230  1.0000
  C   C527      1.0  0.94369  0.96395  0.07179  1.0000
  H   H526      1.0  0.88811  0.97050  0.08827  1.0000
  H   H527      1.0  0.95998  0.94667  0.07482  1.0000
  C   C528      1.0  0.88048  0.60763  0.18086  1.0000
  H   H528      1.0  0.88863  0.97216  0.00400  1.0000
  H   H529      1.0  0.94919  0.87102  0.03088  1.0000
  C   C529      1.0  0.84571  0.56909  0.18503  1.0000
  H   H530      1.0  0.83657  0.55081  0.19639  1.0000
  H   H531      1.0  0.90999  0.87110  0.04632  1.0000
  H   H532      1.0  0.97023  0.70127  0.08178  1.0000
  C   C530      1.0  0.78237  0.51322  0.12181  1.0000
  C   C531      1.0  0.98751  0.71006  0.07720  1.0000
  C   C532      1.0  0.75825  0.52657  0.11152  1.0000
  C   C533      1.0  0.83561  0.60090  0.11605  1.0000
  H   H533      1.0  0.84433  0.62419  0.10734  1.0000
  N   N44       1.0  0.84671  0.59685  0.14388  1.0000
  C   C534      1.0  0.83498  0.57517  0.15874  1.0000
  H   H534      1.0  0.97562  0.92304  0.15239  1.0000
  H   H535      1.0  0.87952  0.92172  0.03243  1.0000
  H   H536      1.0  0.87741  0.58028  0.21636  1.0000
  C   C535      1.0  0.90320  0.97746  0.07921  1.0000
  C   C536      1.0  0.89628  0.92084  0.02513  1.0000
  C   C537      1.0  0.98674  0.73066  0.05455  1.0000
  H   H537      1.0  0.89855  0.61989  0.18907  1.0000
  C   C538      1.0  0.86863  0.58547  0.19614  1.0000
  H   H538      1.0  0.79690  0.51799  0.11153  1.0000
  S   S183      1.0  0.70553  0.50577  0.40834  1.0000
  C   C539      1.0  0.73900  0.52023  0.12443  1.0000
  Fe  Fe92      1.0  0.67355  0.52429  0.12439  1.0000
  C   C540      1.0  0.93552  0.89261  0.02453  1.0000
  H   H539      1.0  0.75439  0.54153  0.09328  1.0000
  C   C541      1.0  0.94179  0.99530  0.05546  1.0000
  C   C542      1.0  0.00246  0.98511  0.18679  1.0000
  H   H540      1.0  0.75876  0.50611  0.42109  1.0000
  N   N45       1.0  0.00148  0.96740  0.16353  1.0000
  S   S184      1.0  0.99657  0.83620  0.03588  1.0000
  C   C543      1.0  0.94022  0.92144  0.00844  1.0000
  H   H541      1.0  0.95772  0.92175  0.00248  1.0000
  C   C544      1.0  0.90156  0.94926  0.00901  1.0000
  H   H542      1.0  0.67561  0.50771  0.06046  1.0000
  C   C545      1.0  0.88431  0.57142  0.59949  1.0000
  C   C546      1.0  0.69868  0.96160  0.92503  1.0000
  S   S185      1.0  0.94961  0.69104  0.62527  1.0000
  H   H543      1.0  0.73547  0.94725  0.68358  1.0000
  S   S186      1.0  0.96273  0.72381  0.57287  1.0000
  Fe  Fe93      1.0  0.95967  0.74727  0.61166  1.0000
  S   S187      1.0  0.93225  0.79539  0.61150  1.0000
  Fe  Fe94      1.0  0.95524  0.66702  0.58775  1.0000
  S   S188      1.0  0.92378  0.63204  0.56333  1.0000
  H   H544      1.0  0.88057  0.51669  0.52780  1.0000
  C   C547      1.0  0.67861  0.95565  0.93641  1.0000
  Fe  Fe95      1.0  0.99046  0.68160  0.64067  1.0000
  H   H545      1.0  0.87751  0.54833  0.58545  1.0000
  S   S189      1.0  0.92859  0.97047  0.63750  1.0000
  C   C548      1.0  0.95795  0.55321  0.64231  1.0000
  H   H546      1.0  0.91706  0.62295  0.62209  1.0000
  H   H547      1.0  0.95941  0.57161  0.57920  1.0000
  C   C549      1.0  0.89786  0.52850  0.53878  1.0000
  H   H548      1.0  0.75559  0.98616  0.61410  1.0000
  H   H549      1.0  0.95484  0.50274  0.57296  1.0000
  H   H550      1.0  0.70142  0.99875  0.99431  1.0000
  C   C550      1.0  0.92420  0.59473  0.62487  1.0000
  H   H551      1.0  0.93539  0.96917  0.96781  1.0000
  C   C551      1.0  0.94310  0.52299  0.63127  1.0000
  C   C552      1.0  0.93159  0.84335  0.62100  1.0000
  C   C553      1.0  0.90875  0.86217  0.61554  1.0000
  C   C554      1.0  0.90732  0.90072  0.62099  1.0000
  C   C555      1.0  0.92880  0.92112  0.63205  1.0000
  C   C556      1.0  0.95161  0.90214  0.63795  1.0000
  C   C557      1.0  0.95302  0.86354  0.63257  1.0000
  H   H552      1.0  0.89201  0.84687  0.60673  1.0000
  H   H553      1.0  0.88963  0.91471  0.61639  1.0000
  H   H554      1.0  0.96834  0.91752  0.64663  1.0000
  H   H555      1.0  0.97071  0.84957  0.63712  1.0000
  C   C558      1.0  0.92265  0.58330  0.55703  1.0000
  C   C559      1.0  0.90061  0.56750  0.54213  1.0000
  H   H556      1.0  0.73484  0.98611  0.92969  1.0000
  C   C560      1.0  0.94233  0.55980  0.56777  1.0000
  H   H557      1.0  0.88532  0.58553  0.53365  1.0000
  H   H558      1.0  0.88322  0.59750  0.58785  1.0000
  H   H559      1.0  0.94415  0.99788  0.99695  1.0000
  C   C561      1.0  0.94845  0.58930  0.63919  1.0000
  C   C562      1.0  0.74092  0.97649  0.68452  1.0000
  H   H560      1.0  0.90760  0.50583  0.60825  1.0000
  C   C563      1.0  0.96752  0.88478  0.57806  1.0000
  H   H561      1.0  0.90797  0.91388  0.55879  1.0000
  C   C564      1.0  0.92926  0.98008  0.98503  1.0000
  Fe  Fe96      1.0  0.00260  0.71261  0.59164  1.0000
  C   C565      1.0  0.92391  0.89569  0.56128  1.0000
  H   H562      1.0  0.93874  0.80523  0.55355  1.0000
  H   H563      1.0  0.95989  0.61295  0.64768  1.0000
  C   C566      1.0  0.91886  0.52941  0.61719  1.0000
  H   H564      1.0  0.97684  0.54883  0.65318  1.0000
  C   C567      1.0  0.70082  0.98826  0.97487  1.0000
  N   N46       1.0  0.96442  0.84813  0.57035  1.0000
  H   H565      1.0  0.94961  0.93772  0.58078  1.0000
  H   H566      1.0  0.98474  0.80820  0.59579  1.0000
  C   C568      1.0  0.93966  0.52079  0.56423  1.0000
  N   N47       1.0  0.90983  0.56501  0.61392  1.0000
  C   C569      1.0  0.91728  0.50494  0.55012  1.0000
  H   H567      1.0  0.77796  0.96582  0.67975  1.0000
  C   C570      1.0  0.92091  0.85828  0.55353  1.0000
  N   N48       1.0  0.72044  0.99396  0.96357  1.0000
  C   C571      1.0  0.94148  0.83474  0.55830  1.0000
  C   C572      1.0  0.94735  0.90913  0.57356  1.0000
  H   H568      1.0  0.90261  0.84709  0.54502  1.0000
  H   H569      1.0  0.70557  0.99601  0.68921  1.0000
  C   C573      1.0  0.71962  0.98077  0.93901  1.0000
  S   S190      1.0  0.99552  0.65377  0.60380  1.0000
  C   C574      1.0  0.67962  0.96911  0.96146  1.0000
  H   H570      1.0  0.87191  0.57387  0.61321  1.0000
  H   H571      1.0  0.98429  0.80044  0.56185  1.0000
  C   C575      1.0  0.76477  0.98684  0.68258  1.0000
  H   H572      1.0  0.69779  0.95230  0.90524  1.0000
  H   H573      1.0  0.75327  0.99401  0.99354  1.0000
  C   C576      1.0  0.98525  0.82223  0.57717  1.0000
  S   S191      1.0  0.99978  0.65634  0.68140  1.0000
  S   S192      1.0  0.00027  0.73982  0.62984  1.0000
  H   H574      1.0  0.98542  0.89503  0.58872  1.0000
  H   H575      1.0  0.00336  0.83683  0.57937  1.0000
  H   H576      1.0  0.91306  0.99852  0.97795  1.0000
