data_image0
_chemical_formula_structural       FeSHFeS2FeSFeS3C2HCHC2FeSCSH2SHFeS2FeS2FeSFeS3C4SHCHCHC4H3CH2FeC2HNHCH2CH2C2HSC5H2C6H3C2H2CHC3HFeH2CHC2H2C2HCH2C3N2HCSH3C2HCH3CHC3H4CH2C2H6C2HFeSCFeSHFeSFeCSCHFeCHCSFeS2FeS2FeSFeS3FeSH2SC5NCHC2SC2SCFeH2NH2CSCSC2H2SHC7H2C6H6C2NSC7H4CNC5H3CH2SFeHCH2C4SH6C2HCHCH2SHNC6H4CH4CH2SCNH2CHC2H3C2HCH4CH8CHC3HC2H5SFeS2FeS2FeSFeS3CHCSHSFeSFeSCFeS2FeHSFeHFeS2C2H2C2H4CH2C4HCH2C3H3NCFeH2CHCH2CH5C6H4C6HCH2C2HCHCH4CNCHFeCHCH2SHCNC6H5CH7C2SC3HCH2NC2HC3S2HNC2H5CHCNCH2SNHC4H3FeS2FeS2FeSFeS4FeSHC3SFeSHFeSFeS4CHC2HCSC2HFeC8H2C7H3C6H6FeHNHCHCHC2H2CHSH5CHCHNHC4H3NHNC5H6CH2NCHC3SCH2NHC2HCSCH4C3HCSHCH2C3HCHCHC2HCHCH3SH2FeCHSFeHCSHCH3CHFeSHCNFeS2FeSNFeSFeS3FeSHFeSHFeSFeS2FeSFeSC3SC4H2CHC4HC8H5NCHC4H3C4HSH2CHC2SC3HCS2C4H3NHC2H2C2HC2H4SHC5H2CSH3CH6C2SH2SCH2C3H4CFeH2CHCH3CH2C3HCNH3CHCH4FeSCFeS2FeSFeS3C2H2C2H2Fe2S2FeS2FeHFeS3CSHCFeSCHCHFeHC4H2SH2CH3C2HCH2C3SC2HC9H6CNHSCNC6SH2CH4CH4C2HCH3C2NC6H8NHNC6H6SH2FeC3SCH2C4NC2H2C2HSCSHCH2SCFeCH2CSHFeS2FeS2FeSFeS4CSCSCFeSFeSHFeSHFeSHFeSFeHSCHNHSH2C2HCH3CSHC2HCHC2H2C2HC4HCH2C8H4C6HCSH5C2HC2H2CHC2HC4HCSCH3CNCH3SCNFeHSNC2H6NCH3C4H3CH4CHCHFeC2HSH2CH4C2FeS2FeSCFeHS2FeSCFeS2FeS2FeSFeS3HSFeCH2FeSC6HCH2C6H2CHCHSHCH2CFeC2HSNCH3C6H5NC5H3C2HCH3NC4H2C5H2CH2CHSH3S2HCH2CHCHCH2C3HC2HCH3S2CH3NH3CH3CSCHC2H3NC2H3CH4NH3C2HC3HCH4C4H2CHC2FeS2FeSHFeCFeCS2CHCFeS2FeS2FeSFeS3FeSFeS3NC3HC2HC4HCH2C4H2C4H2NHC6H4C6H5C4NCHSH3CH2NC6H8NC6H10CFeHNHCH3CNHCHSH3C5H3CSH3CSCSHCHCHCSCHCHFeCS2H2CHFeC3H2CH2CH3SCHFeSHFeSHFeSFeS3FeS2FeS2FeHFeS3FeS2HSHC2HC3HC9H4C6H4C5H2C3H3CH3CHFeH6SH2FeH3C2SCHCH3FeC5HSNHCH4CH2CHSHNC6H3C2HSCNC6HCSNH2CH5CH2CSCH2CFeS2FeS2FeSFeCS2HFeSFeS3H2SFeHSFeS2FeCFeCS2CHCH3C3H5C7H3CH2C3HC2SH3NHC2SCHNC2HC6H4CHC4H2C3HC4H2FeCH5NC3SH2CH3NH2C5SC3HC3H3NC5HC2H4CHC2H3CH4C2H3C2NHCFeS2FeS2FeSFeS3CHFeS3FeS2FeC2FeSFeCS2HCS2NC4H4NC5H2SHCHC4NHNC2HCH2NHC6H4C4H4FeCHCSH2CNC6H8S2H2CH2NC6H8C2H2CH3CH5CHCHSC2FeCSCH2FeHNHCHSH2C3H2C2HCH2CHC3HC3HFeSHFeS2FeSFeSCSHNCFeS2FeS2FeSFeS3FeSHSHSH2C3H2NC4H4CHCHC2HCHC8H2C2H4CH3C2NHNC3HC3HC2FeC3HC2H3C2NC2NH2CFeCSH2CH2C2SHC2HCH2FeHCHC2HCSCHCH5CHCH4C2S2HCHCHCH4CH4SHC2H2CHNHSH2FeS2FeS2FeSFeS4HFeSCFeSHFeS2FeS2FeCFeS4HFeSNH2C10H2C4HC4H2C2HC5H3C6H4C6H5CNC5H5CHCHCSHCSH2CH2CH4CH2C2H2CH2CH5CH2CNC6H8CHCH2NCHCHCHNH2CH2NSHC3SFeH2C2NCFeSFe2SCFeSFeS3FeSFeS2FeS2FeSFeS3HS2H2C2HC4HCH2C4HCHNH2C2HC4NCH2C7H7CHSC2HCH2CSH4CHCH2SNC3H2S2H5C3H2C2HCH3C2HNCH2C2HCN2HCHCHC2SHC2HCHSHFeC2H2C2HC2HFeCH3C2HC2H2NHCH4SC2SHCFeSCFeS2FeSFeS3FeS2FeS2FeCFeS3FeHNHCSH3CHCHC2NHC6SHC3HC8H4FeC2HC4H3C3H3CHCH2NC2SC2H2C2HSNHCHC4HCHSHCHC2H3SH2SCNH2SNCH2C2HC2H3CH3FeH2CH3FeCHC5H2FeH4CH2CH3SHCHC3HC2H2
_chemical_formula_sum              "Fe192 S384 H1152 C1152 N96"
_cell_length_a       78.237
_cell_length_b       78.7366
_cell_length_c       36.4522
_cell_angle_alpha    88.4973
_cell_angle_beta     88.6181
_cell_angle_gamma    87.8058

_space_group_name_H-M_alt    "P 1"
_space_group_IT_number       1

loop_
  _space_group_symop_operation_xyz
  'x, y, z'

loop_
  _atom_site_type_symbol
  _atom_site_label
  _atom_site_symmetry_multiplicity
  _atom_site_fract_x
  _atom_site_fract_y
  _atom_site_fract_z
  _atom_site_occupancy
  Fe  Fe1       1.0  0.00925  0.11175  0.21798  1.0000
  S   S1        1.0  0.03433  0.10679  0.18749  1.0000
  H   H1        1.0  0.23641  0.09834  0.17718  1.0000
  Fe  Fe2       1.0  0.01924  0.08542  0.28041  1.0000
  S   S2        1.0  0.04492  0.07903  0.25396  1.0000
  S   S3        1.0  0.00821  0.07505  0.33545  1.0000
  Fe  Fe3       1.0  0.04707  0.10718  0.24226  1.0000
  S   S4        1.0  0.07041  0.12295  0.25505  1.0000
  Fe  Fe4       1.0  0.03038  0.07913  0.20117  1.0000
  S   S5        1.0  0.03633  0.05954  0.15766  1.0000
  S   S6        1.0  0.02205  0.11383  0.27245  1.0000
  S   S7        1.0  0.00469  0.08381  0.22811  1.0000
  C   C1        1.0  0.00258  0.09362  0.11941  1.0000
  C   C2        1.0  0.23990  0.15806  0.35955  1.0000
  H   H2        1.0  0.22545  0.11711  0.73315  1.0000
  C   C3        1.0  0.07012  0.11282  0.34067  1.0000
  H   H3        1.0  0.02621  0.07162  0.05589  1.0000
  C   C4        1.0  0.18509  0.00316  0.86638  1.0000
  C   C5        1.0  0.15895  0.17984  0.09906  1.0000
  Fe  Fe5       1.0  0.22469  0.04086  0.86624  1.0000
  S   S8        1.0  0.20540  0.02748  0.83038  1.0000
  C   C6        1.0  0.20984  0.05966  0.75693  1.0000
  S   S9        1.0  0.22163  0.07494  0.98488  1.0000
  H   H4        1.0  0.22455  0.09156  0.70185  1.0000
  H   H5        1.0  0.09803  0.14397  0.27376  1.0000
  S   S10       1.0  0.22113  0.06910  0.87559  1.0000
  H   H6        1.0  0.23070  0.11697  0.37792  1.0000
  Fe  Fe6       1.0  0.21039  0.13540  0.17131  1.0000
  S   S11       1.0  0.18517  0.14921  0.16155  1.0000
  S   S12       1.0  0.22747  0.12407  0.12394  1.0000
  Fe  Fe7       1.0  0.20870  0.14319  0.25598  1.0000
  S   S13       1.0  0.18287  0.15692  0.25008  1.0000
  S   S14       1.0  0.22162  0.13717  0.31284  1.0000
  Fe  Fe8       1.0  0.17550  0.13598  0.21325  1.0000
  S   S15       1.0  0.15046  0.12159  0.20873  1.0000
  Fe  Fe9       1.0  0.19414  0.16938  0.19859  1.0000
  S   S16       1.0  0.18587  0.19758  0.18959  1.0000
  S   S17       1.0  0.20056  0.12121  0.22173  1.0000
  S   S18       1.0  0.22025  0.15657  0.20585  1.0000
  C   C7        1.0  0.19272  0.21489  0.16072  1.0000
  C   C8        1.0  0.20717  0.21364  0.13742  1.0000
  C   C9        1.0  0.20526  0.06912  0.78765  1.0000
  C   C10       1.0  0.23316  0.14207  0.35381  1.0000
  S   S19       1.0  0.01616  0.00609  0.43338  1.0000
  H   H7        1.0  0.21461  0.20179  0.13638  1.0000
  C   C11       1.0  0.05881  0.12487  0.35648  1.0000
  H   H8        1.0  0.22049  0.06055  0.70186  1.0000
  C   C12       1.0  0.22301  0.08959  0.02200  1.0000
  H   H9        1.0  0.15937  0.16191  0.05532  1.0000
  C   C13       1.0  0.23993  0.10141  0.20481  1.0000
  C   C14       1.0  0.22492  0.11110  0.08434  1.0000
  C   C15       1.0  0.21088  0.10082  0.08025  1.0000
  C   C16       1.0  0.21003  0.09012  0.04960  1.0000
  H   H10       1.0  0.20074  0.10090  0.10096  1.0000
  H   H11       1.0  0.03426  0.01842  0.36900  1.0000
  H   H12       1.0  0.05021  0.01172  0.47012  1.0000
  C   C17       1.0  0.02282  0.04285  0.35311  1.0000
  H   H13       1.0  0.14446  0.13985  0.09298  1.0000
  H   H14       1.0  0.20811  0.04603  0.75752  1.0000
  Fe  Fe10      1.0  0.23376  0.06440  0.93039  1.0000
  C   C18       1.0  0.99522  0.02904  0.10378  1.0000
  C   C19       1.0  0.16810  0.99524  0.80226  1.0000
  H   H15       1.0  0.07974  0.08896  0.28928  1.0000
  N   N1        1.0  0.14668  0.17015  0.15660  1.0000
  H   H16       1.0  0.19917  0.08214  0.04731  1.0000
  C   C20       1.0  0.18946  0.01166  0.83345  1.0000
  H   H17       1.0  0.06660  0.99186  0.65297  1.0000
  H   H18       1.0  0.15701  0.19467  0.14757  1.0000
  C   C21       1.0  0.01015  0.05535  0.36103  1.0000
  H   H19       1.0  0.00406  0.10293  0.14039  1.0000
  H   H20       1.0  0.03363  0.12924  0.38061  1.0000
  C   C22       1.0  0.01306  0.02500  0.40550  1.0000
  C   C23       1.0  0.01509  0.07627  0.07147  1.0000
  H   H21       1.0  0.99772  0.05962  0.04649  1.0000
  S   S20       1.0  0.23573  0.03573  0.92259  1.0000
  C   C24       1.0  0.00331  0.04846  0.15113  1.0000
  C   C25       1.0  0.02039  0.04720  0.13894  1.0000
  C   C26       1.0  0.23793  0.11056  0.05677  1.0000
  C   C27       1.0  0.01236  0.02744  0.09223  1.0000
  C   C28       1.0  0.02488  0.03647  0.10976  1.0000
  H   H22       1.0  0.01594  0.01959  0.06917  1.0000
  H   H23       1.0  0.03807  0.03541  0.10020  1.0000
  C   C29       1.0  0.09261  0.12231  0.24155  1.0000
  C   C30       1.0  0.09982  0.11008  0.21805  1.0000
  C   C31       1.0  0.11748  0.11007  0.20857  1.0000
  C   C32       1.0  0.12826  0.12224  0.22237  1.0000
  C   C33       1.0  0.12105  0.13444  0.24601  1.0000
  C   C34       1.0  0.10339  0.13445  0.25548  1.0000
  H   H24       1.0  0.09182  0.10063  0.20703  1.0000
  H   H25       1.0  0.12283  0.10054  0.19030  1.0000
  H   H26       1.0  0.12907  0.14377  0.25736  1.0000
  C   C35       1.0  0.15423  0.18261  0.13573  1.0000
  C   C36       1.0  0.14715  0.15199  0.10460  1.0000
  H   H27       1.0  0.13634  0.14545  0.15755  1.0000
  H   H28       1.0  0.14563  0.16104  0.21194  1.0000
  C   C37       1.0  0.18087  0.00753  0.80143  1.0000
  H   H29       1.0  0.02932  0.09336  0.10322  1.0000
  C   C38       1.0  0.02432  0.02789  0.37536  1.0000
  C   C39       1.0  0.07727  0.08444  0.31806  1.0000
  C   C40       1.0  0.18326  0.23050  0.16149  1.0000
  H   H30       1.0  0.23605  0.18639  0.56289  1.0000
  Fe  Fe11      1.0  0.00101  0.99129  0.47812  1.0000
  H   H31       1.0  0.12883  0.17639  0.19931  1.0000
  H   H32       1.0  0.99970  0.05657  0.17371  1.0000
  C   C41       1.0  0.04958  0.09153  0.34873  1.0000
  H   H33       1.0  0.03152  0.04474  0.33000  1.0000
  C   C42       1.0  0.21212  0.22781  0.11554  1.0000
  C   C43       1.0  0.23507  0.19984  0.55285  1.0000
  H   H34       1.0  0.16165  0.99234  0.77740  1.0000
  H   H35       1.0  0.16549  0.18956  0.08310  1.0000
  C   C44       1.0  0.04838  0.00354  0.49515  1.0000
  C   C45       1.0  0.15550  0.16435  0.08354  1.0000
  H   H36       1.0  0.23811  0.16808  0.33899  1.0000
  C   C46       1.0  0.14266  0.15519  0.14122  1.0000
  H   H37       1.0  0.08248  0.11682  0.33012  1.0000
  H   H38       1.0  0.19148  0.00612  0.89127  1.0000
  C   C47       1.0  0.03806  0.10319  0.36527  1.0000
  C   C48       1.0  0.20811  0.08656  0.78729  1.0000
  C   C49       1.0  0.01684  0.08846  0.09808  1.0000
  N   N2        1.0  0.06537  0.09646  0.33653  1.0000
  N   N3        1.0  0.21497  0.09443  0.75678  1.0000
  H   H39       1.0  0.07208  0.07152  0.31703  1.0000
  C   C50       1.0  0.04267  0.11999  0.36881  1.0000
  S   S21       1.0  0.99937  0.99563  0.53954  1.0000
  H   H40       1.0  0.04561  0.07862  0.34519  1.0000
  H   H41       1.0  0.15045  0.18294  0.20670  1.0000
  H   H42       1.0  0.08961  0.08346  0.33251  1.0000
  C   C51       1.0  0.14262  0.17284  0.19552  1.0000
  C   C52       1.0  0.24031  0.09474  0.26973  1.0000
  H   H43       1.0  0.20502  0.09371  0.81177  1.0000
  C   C53       1.0  0.99895  0.05251  0.39127  1.0000
  H   H44       1.0  0.17207  0.23170  0.17937  1.0000
  H   H45       1.0  0.02547  0.09929  0.37447  1.0000
  H   H46       1.0  0.06243  0.13798  0.35823  1.0000
  C   C54       1.0  0.23579  0.12938  0.38144  1.0000
  H   H47       1.0  0.22435  0.11607  0.78213  1.0000
  C   C55       1.0  0.00027  0.03742  0.41316  1.0000
  C   C56       1.0  0.21675  0.06780  0.72583  1.0000
  C   C57       1.0  0.21748  0.11279  0.75702  1.0000
  H   H48       1.0  0.19978  0.06288  0.81184  1.0000
  H   H49       1.0  0.23702  0.08655  0.29301  1.0000
  H   H50       1.0  0.20494  0.11985  0.75650  1.0000
  H   H51       1.0  0.05703  0.00786  0.51646  1.0000
  C   C58       1.0  0.99911  0.06955  0.06621  1.0000
  H   H52       1.0  0.18406  0.01397  0.77575  1.0000
  H   H53       1.0  0.22336  0.22665  0.09780  1.0000
  C   C59       1.0  0.21904  0.08535  0.72605  1.0000
  C   C60       1.0  0.23691  0.10011  0.02577  1.0000
  H   H54       1.0  0.22976  0.07870  0.22962  1.0000
  H   H55       1.0  0.23420  0.20776  0.57771  1.0000
  H   H56       1.0  0.03487  0.00551  0.50476  1.0000
  H   H57       1.0  0.22322  0.20198  0.53698  1.0000
  H   H58       1.0  0.99752  0.15868  0.21818  1.0000
  H   H59       1.0  0.24186  0.06037  0.05392  1.0000
  C   C61       1.0  0.23620  0.09039  0.23424  1.0000
  C   C62       1.0  0.17231  0.99088  0.86721  1.0000
  H   H60       1.0  0.17649  0.47276  0.37254  1.0000
  Fe  Fe12      1.0  0.01221  0.33936  0.02996  1.0000
  S   S22       1.0  0.03325  0.34381  0.06941  1.0000
  C   C63       1.0  0.00881  0.34798  0.89398  1.0000
  Fe  Fe13      1.0  0.01346  0.37626  0.99643  1.0000
  S   S23       1.0  0.03433  0.38320  0.03417  1.0000
  H   H61       1.0  0.99938  0.42773  0.21109  1.0000
  Fe  Fe14      1.0  0.04671  0.35732  0.02236  1.0000
  S   S24       1.0  0.07509  0.35491  0.00412  1.0000
  Fe  Fe15      1.0  0.01956  0.36919  0.07823  1.0000
  C   C64       1.0  0.18814  0.24464  0.13941  1.0000
  S   S25       1.0  0.02651  0.35123  0.98164  1.0000
  C   C65       1.0  0.21795  0.27797  0.17338  1.0000
  H   H62       1.0  0.18067  0.25648  0.14038  1.0000
  Fe  Fe16      1.0  0.00358  0.48037  0.29549  1.0000
  C   C66       1.0  0.05992  0.48162  0.21974  1.0000
  H   H63       1.0  0.03555  0.43721  0.69663  1.0000
  C   C67       1.0  0.20265  0.24341  0.11627  1.0000
  S   S26       1.0  0.01206  0.45671  0.16817  1.0000
  Fe  Fe17      1.0  0.17113  0.31485  0.06064  1.0000
  S   S27       1.0  0.18959  0.33551  0.04700  1.0000
  S   S28       1.0  0.14226  0.31848  0.07355  1.0000
  Fe  Fe18      1.0  0.20014  0.28838  0.07522  1.0000
  S   S29       1.0  0.22035  0.30773  0.06308  1.0000
  S   S30       1.0  0.21000  0.26100  0.08887  1.0000
  Fe  Fe19      1.0  0.20393  0.32597  0.09697  1.0000
  S   S31       1.0  0.21529  0.34541  0.13573  1.0000
  Fe  Fe20      1.0  0.20496  0.31593  0.01362  1.0000
  S   S32       1.0  0.21910  0.32499  0.95962  1.0000
  S   S33       1.0  0.18497  0.30611  0.11216  1.0000
  S   S34       1.0  0.18531  0.29575  0.02430  1.0000
  Fe  Fe21      1.0  0.22210  0.42394  0.38501  1.0000
  S   S35       1.0  0.20162  0.44583  0.38464  1.0000
  H   H64       1.0  0.00002  0.24965  0.09306  1.0000
  H   H65       1.0  0.21544  0.32157  0.80201  1.0000
  S   S36       1.0  0.21780  0.39590  0.39383  1.0000
  C   C68       1.0  0.18869  0.41539  0.30661  1.0000
  C   C69       1.0  0.21586  0.35290  0.18197  1.0000
  C   C70       1.0  0.20587  0.34615  0.21088  1.0000
  C   C71       1.0  0.00813  0.48929  0.43178  1.0000
  C   C72       1.0  0.21767  0.36587  0.25461  1.0000
  N   N4        1.0  0.04604  0.47067  0.74674  1.0000
  C   C73       1.0  0.22675  0.36615  0.18981  1.0000
  H   H66       1.0  0.22066  0.26399  0.17435  1.0000
  C   C74       1.0  0.04297  0.47797  0.78300  1.0000
  C   C75       1.0  0.04995  0.46726  0.22322  1.0000
  S   S37       1.0  0.99692  0.39523  0.96196  1.0000
  C   C76       1.0  0.22452  0.34626  0.78722  1.0000
  C   C77       1.0  0.03701  0.48811  0.35458  1.0000
  S   S38       1.0  0.00857  0.44381  0.81957  1.0000
  C   C78       1.0  0.00069  0.40894  0.92288  1.0000
  Fe  Fe22      1.0  0.23119  0.39237  0.33843  1.0000
  H   H67       1.0  0.02685  0.40064  0.91262  1.0000
  H   H68       1.0  0.03435  0.48543  0.58194  1.0000
  N   N5        1.0  0.23187  0.28702  0.15478  1.0000
  H   H69       1.0  0.02916  0.44477  0.28664  1.0000
  H   H70       1.0  0.04471  0.43272  0.25903  1.0000
  C   C79       1.0  0.01805  0.48435  0.46184  1.0000
  S   S39       1.0  0.01215  0.37811  0.13526  1.0000
  C   C80       1.0  0.21747  0.30612  0.73804  1.0000
  S   S40       1.0  0.14232  0.47883  0.48816  1.0000
  C   C81       1.0  0.01636  0.40894  0.90353  1.0000
  C   C82       1.0  0.20675  0.35262  0.24673  1.0000
  H   H71       1.0  0.01619  0.47221  0.47579  1.0000
  H   H72       1.0  0.06623  0.47971  0.66582  1.0000
  S   S41       1.0  0.99613  0.46627  0.72794  1.0000
  H   H73       1.0  0.22848  0.36775  0.59063  1.0000
  C   C83       1.0  0.01345  0.39975  0.14572  1.0000
  C   C84       1.0  0.23096  0.35662  0.75891  1.0000
  C   C85       1.0  0.05146  0.45753  0.67718  1.0000
  C   C86       1.0  0.01308  0.43464  0.16127  1.0000
  C   C87       1.0  0.02110  0.42857  0.12911  1.0000
  C   C88       1.0  0.02124  0.41120  0.12128  1.0000
  C   C89       1.0  0.04812  0.48333  0.38301  1.0000
  H   H74       1.0  0.02697  0.43738  0.10979  1.0000
  H   H75       1.0  0.02723  0.40671  0.09615  1.0000
  C   C90       1.0  0.09353  0.34440  0.02369  1.0000
  C   C91       1.0  0.09295  0.33583  0.05780  1.0000
  C   C92       1.0  0.10793  0.32785  0.07220  1.0000
  C   C93       1.0  0.12372  0.32824  0.05282  1.0000
  C   C94       1.0  0.12434  0.33685  0.01875  1.0000
  C   C95       1.0  0.10936  0.34488  0.00438  1.0000
  H   H76       1.0  0.08094  0.33533  0.07306  1.0000
  H   H77       1.0  0.10723  0.32125  0.09857  1.0000
  H   H78       1.0  0.13634  0.33731  0.00343  1.0000
  H   H79       1.0  0.11001  0.35143  0.97795  1.0000
  H   H80       1.0  0.04655  0.47136  0.39776  1.0000
  H   H81       1.0  0.19745  0.33596  0.20574  1.0000
  C   C96       1.0  0.05599  0.47907  0.72139  1.0000
  C   C97       1.0  0.00647  0.27535  0.10310  1.0000
  N   N6        1.0  0.04739  0.45944  0.25677  1.0000
  S   S42       1.0  0.00022  0.31329  0.02423  1.0000
  C   C98       1.0  0.21981  0.32979  0.77958  1.0000
  C   C99       1.0  0.18504  0.45452  0.41396  1.0000
  C   C100      1.0  0.18206  0.44843  0.44986  1.0000
  C   C101      1.0  0.16875  0.45582  0.47179  1.0000
  C   C102      1.0  0.15814  0.46931  0.45818  1.0000
  C   C103      1.0  0.16098  0.47525  0.42211  1.0000
  C   C104      1.0  0.17436  0.46793  0.40028  1.0000
  H   H82       1.0  0.19010  0.43812  0.46086  1.0000
  H   H83       1.0  0.16673  0.45112  0.49966  1.0000
  H   H84       1.0  0.19894  0.40595  0.29840  1.0000
  H   H85       1.0  0.01687  0.32160  0.90078  1.0000
  C   C105      1.0  0.06763  0.48770  0.25069  1.0000
  N   N7        1.0  0.17978  0.41000  0.34053  1.0000
  C   C106      1.0  0.18008  0.39321  0.35128  1.0000
  C   C107      1.0  0.17081  0.42185  0.36084  1.0000
  C   C108      1.0  0.17208  0.38807  0.38427  1.0000
  C   C109      1.0  0.16272  0.41719  0.39403  1.0000
  C   C110      1.0  0.16349  0.40019  0.40590  1.0000
  H   H86       1.0  0.99871  0.48090  0.42168  1.0000
  H   H87       1.0  0.22014  0.29337  0.91631  1.0000
  H   H88       1.0  0.18692  0.38374  0.33490  1.0000
  C   C111      1.0  0.05528  0.46503  0.28704  1.0000
  H   H89       1.0  0.15625  0.42680  0.41074  1.0000
  H   H90       1.0  0.15753  0.39645  0.43191  1.0000
  S   S43       1.0  0.99780  0.36380  0.04180  1.0000
  Fe  Fe23      1.0  0.99863  0.46892  0.21706  1.0000
  H   H91       1.0  0.20558  0.30262  0.75320  1.0000
  C   C112      1.0  0.99663  0.26096  0.10837  1.0000
  H   H92       1.0  0.05506  0.47781  0.79833  1.0000
  H   H93       1.0  0.02720  0.44457  0.23795  1.0000
  C   C113      1.0  0.04154  0.44889  0.70340  1.0000
  C   C114      1.0  0.05888  0.47263  0.68629  1.0000
  C   C115      1.0  0.03664  0.44461  0.26026  1.0000
  C   C116      1.0  0.24263  0.27869  0.13049  1.0000
  S   S44       1.0  0.23429  0.42051  0.32848  1.0000
  H   H94       1.0  0.01898  0.35098  0.87438  1.0000
  H   H95       1.0  0.05319  0.45271  0.64968  1.0000
  H   H96       1.0  0.17950  0.41702  0.28397  1.0000
  H   H97       1.0  0.05331  0.45879  0.31363  1.0000
  H   H98       1.0  0.22942  0.32911  0.68921  1.0000
  H   H99       1.0  0.19895  0.34724  0.26866  1.0000
  C   C117      1.0  0.23493  0.29891  0.86644  1.0000
  C   C118      1.0  0.01849  0.41970  0.87218  1.0000
  H   H100      1.0  0.03118  0.44890  0.75844  1.0000
  C   C119      1.0  0.22883  0.31896  0.91601  1.0000
  H   H101      1.0  0.99981  0.39692  0.19749  1.0000
  C   C120      1.0  0.03905  0.45562  0.73836  1.0000
  H   H102      1.0  0.19508  0.42759  0.31058  1.0000
  H   H103      1.0  0.23349  0.28641  0.85556  1.0000
  S   S45       1.0  0.21797  0.37359  0.30073  1.0000
  H   H104      1.0  0.17287  0.37482  0.39324  1.0000
  N   N8        1.0  0.15991  0.35687  0.11401  1.0000
  C   C121      1.0  0.14371  0.35805  0.10061  1.0000
  C   C122      1.0  0.17253  0.36651  0.09865  1.0000
  C   C123      1.0  0.13999  0.36842  0.06988  1.0000
  C   C124      1.0  0.16929  0.37698  0.06779  1.0000
  C   C125      1.0  0.15293  0.37781  0.05318  1.0000
  C   C126      1.0  0.16353  0.34550  0.14556  1.0000
  H   H105      1.0  0.13369  0.35041  0.11279  1.0000
  H   H106      1.0  0.18537  0.36571  0.10946  1.0000
  H   H107      1.0  0.12726  0.36876  0.05856  1.0000
  H   H108      1.0  0.17951  0.38410  0.05488  1.0000
  C   C127      1.0  0.22730  0.30283  0.90114  1.0000
  H   H109      1.0  0.15882  0.35150  0.17128  1.0000
  H   H110      1.0  0.15720  0.33320  0.14249  1.0000
  H   H111      1.0  0.17748  0.34247  0.14776  1.0000
  H   H112      1.0  0.20593  0.28031  0.15813  1.0000
  C   C128      1.0  0.22776  0.33389  0.71678  1.0000
  H   H113      1.0  0.17043  0.43514  0.35211  1.0000
  H   H114      1.0  0.21565  0.30396  0.70842  1.0000
  S   S46       1.0  0.02060  0.47446  0.34392  1.0000
  C   C129      1.0  0.00507  0.43069  0.85973  1.0000
  N   N9        1.0  0.22148  0.32380  0.74473  1.0000
  H   H115      1.0  0.00901  0.30160  0.11671  1.0000
  H   H116      1.0  0.22816  0.29752  0.74766  1.0000
  C   C130      1.0  0.00760  0.33152  0.90872  1.0000
  H   H117      1.0  0.22361  0.35072  0.81516  1.0000
  C   C131      1.0  0.23251  0.35046  0.72340  1.0000
  C   C132      1.0  0.00558  0.42318  0.18618  1.0000
  H   H118      1.0  0.15030  0.38557  0.02878  1.0000
  H   H119      1.0  0.04395  0.46266  0.19905  1.0000
  H   H120      1.0  0.03067  0.41952  0.85747  1.0000
  C   C133      1.0  0.00583  0.40575  0.17843  1.0000
  C   C134      1.0  0.22769  0.37257  0.22570  1.0000
  H   H121      1.0  0.21598  0.28219  0.20205  1.0000
  C   C135      1.0  0.23343  0.30401  0.16033  1.0000
  H   H122      1.0  0.22455  0.31081  0.17854  1.0000
  H   H123      1.0  0.99455  0.40407  0.03800  1.0000
  H   H124      1.0  0.01848  0.48722  0.64181  1.0000
  H   H125      1.0  0.01727  0.27525  0.08382  1.0000
  C   C136      1.0  0.99718  0.36072  0.90550  1.0000
  H   H126      1.0  0.15300  0.48562  0.41118  1.0000
  H   H127      1.0  0.23617  0.38272  0.23093  1.0000
  H   H128      1.0  0.03340  0.47083  0.79967  1.0000
  H   H129      1.0  0.23458  0.37154  0.16793  1.0000
  H   H130      1.0  0.99826  0.37369  0.89501  1.0000
  H   H131      1.0  0.22944  0.38040  0.52737  1.0000
  H   H132      1.0  0.23776  0.35828  0.70118  1.0000
  H   H133      1.0  0.24107  0.26535  0.12511  1.0000
  C   C137      1.0  0.06550  0.47924  0.28449  1.0000
  H   H134      1.0  0.23500  0.36930  0.76456  1.0000
  C   C138      1.0  0.23826  0.33096  0.89527  1.0000
  C   C139      1.0  0.23980  0.37198  0.53656  1.0000
  C   C140      1.0  0.23930  0.36475  0.57260  1.0000
  H   H135      1.0  0.23967  0.34346  0.90618  1.0000
  C   C141      1.0  0.00185  0.29017  0.12165  1.0000
  C   C142      1.0  0.99471  0.32805  0.93484  1.0000
  H   H136      1.0  0.99415  0.31532  0.94688  1.0000
  H   H137      1.0  0.99843  0.43504  0.03009  1.0000
  H   H138      1.0  0.07134  0.48392  0.30881  1.0000
  H   H139      1.0  0.06142  0.48811  0.19329  1.0000
  H   H140      1.0  0.06966  0.49017  0.41464  1.0000
  S   S47       1.0  0.01284  0.49010  0.24071  1.0000
  Fe  Fe24      1.0  0.14119  0.66566  0.46245  1.0000
  S   S48       1.0  0.12860  0.69173  0.47114  1.0000
  S   S49       1.0  0.12373  0.64271  0.46848  1.0000
  Fe  Fe25      1.0  0.17465  0.68148  0.43417  1.0000
  S   S50       1.0  0.16384  0.70827  0.44015  1.0000
  S   S51       1.0  0.20152  0.67169  0.41522  1.0000
  Fe  Fe26      1.0  0.15336  0.69939  0.49591  1.0000
  S   S52       1.0  0.15869  0.71595  0.54691  1.0000
  Fe  Fe27      1.0  0.13973  0.69875  0.41504  1.0000
  S   S53       1.0  0.12183  0.71383  0.37461  1.0000
  S   S54       1.0  0.16519  0.67279  0.49055  1.0000
  S   S55       1.0  0.15126  0.67258  0.40581  1.0000
  C   C143      1.0  0.17274  0.52864  0.43636  1.0000
  H   H141      1.0  0.12840  0.72053  0.66885  1.0000
  C   C144      1.0  0.13906  0.72472  0.65195  1.0000
  S   S56       1.0  0.07550  0.70923  0.11362  1.0000
  H   H142      1.0  0.21369  0.71561  0.50425  1.0000
  S   S57       1.0  0.04258  0.71735  0.16959  1.0000
  Fe  Fe28      1.0  0.07135  0.72055  0.16993  1.0000
  S   S58       1.0  0.09042  0.70898  0.21279  1.0000
  Fe  Fe29      1.0  0.04672  0.70746  0.11222  1.0000
  S   S59       1.0  0.03724  0.68387  0.08325  1.0000
  C   C145      1.0  0.12123  0.70537  0.13314  1.0000
  Fe  Fe30      1.0  0.11412  0.53894  0.49322  1.0000
  S   S60       1.0  0.11524  0.51598  0.53239  1.0000
  S   S61       1.0  0.13008  0.56220  0.50464  1.0000
  Fe  Fe31      1.0  0.09370  0.51968  0.43872  1.0000
  H   H143      1.0  0.09639  0.73416  0.33566  1.0000
  S   S62       1.0  0.07952  0.52325  0.38532  1.0000
  Fe  Fe32      1.0  0.08729  0.51272  0.52047  1.0000
  H   H144      1.0  0.08368  0.73267  0.27393  1.0000
  Fe  Fe33      1.0  0.12183  0.50054  0.48216  1.0000
  S   S63       1.0  0.08581  0.53677  0.48516  1.0000
  S   S64       1.0  0.12199  0.52345  0.44394  1.0000
  C   C146      1.0  0.21642  0.68863  0.49616  1.0000
  C   C147      1.0  0.12202  0.72920  0.17470  1.0000
  H   H145      1.0  0.12520  0.72019  0.19680  1.0000
  H   H146      1.0  0.12639  0.71862  0.95542  1.0000
  C   C148      1.0  0.06329  0.50950  0.37390  1.0000
  C   C149      1.0  0.05229  0.51420  0.34517  1.0000
  H   H147      1.0  0.05046  0.53064  0.44577  1.0000
  H   H148      1.0  0.22463  0.68984  0.47194  1.0000
  H   H149      1.0  0.05389  0.52616  0.33042  1.0000
  H   H150      1.0  0.03062  0.50737  0.31361  1.0000
  C   C150      1.0  0.05288  0.50384  0.59476  1.0000
  H   H151      1.0  0.99358  0.55514  0.15289  1.0000
  H   H152      1.0  0.03999  0.68332  0.00228  1.0000
  C   C151      1.0  0.03460  0.50593  0.66327  1.0000
  C   C152      1.0  0.04899  0.51577  0.65564  1.0000
  C   C153      1.0  0.05808  0.51475  0.62170  1.0000
  C   C154      1.0  0.17990  0.51240  0.44320  1.0000
  H   H153      1.0  0.01237  0.69499  0.01431  1.0000
  C   C155      1.0  0.15043  0.73618  0.66651  1.0000
  H   H154      1.0  0.06906  0.52248  0.61636  1.0000
  H   H155      1.0  0.03220  0.73714  0.00184  1.0000
  C   C156      1.0  0.01837  0.67167  0.08131  1.0000
  C   C157      1.0  0.01815  0.65816  0.05667  1.0000
  C   C158      1.0  0.03071  0.49502  0.47321  1.0000
  H   H156      1.0  0.02938  0.65527  0.03978  1.0000
  H   H157      1.0  0.06110  0.49126  0.72769  1.0000
  H   H158      1.0  0.21857  0.72861  0.85406  1.0000
  N   N10       1.0  0.16816  0.51276  0.50475  1.0000
  C   C159      1.0  0.03912  0.50358  0.33560  1.0000
  Fe  Fe34      1.0  0.07225  0.73574  0.08977  1.0000
  H   H159      1.0  0.99548  0.59131  0.19799  1.0000
  H   H160      1.0  0.02607  0.52695  0.41081  1.0000
  C   C160      1.0  0.00357  0.64818  0.05378  1.0000
  H   H161      1.0  0.15403  0.53531  0.51991  1.0000
  C   C161      1.0  0.15500  0.72364  0.59305  1.0000
  H   H162      1.0  0.04359  0.52667  0.49308  1.0000
  H   H163      1.0  0.05316  0.52430  0.67616  1.0000
  C   C162      1.0  0.21144  0.67262  0.50850  1.0000
  H   H164      1.0  0.20712  0.71241  0.87987  1.0000
  H   H165      1.0  0.15785  0.54962  0.45926  1.0000
  H   H166      1.0  0.17423  0.53475  0.40951  1.0000
  H   H167      1.0  0.10721  0.72060  0.01077  1.0000
  H   H168      1.0  0.16959  0.68210  0.57791  1.0000
  C   C163      1.0  0.12621  0.62021  0.47692  1.0000
  C   C164      1.0  0.14137  0.61242  0.48986  1.0000
  C   C165      1.0  0.14231  0.59471  0.49784  1.0000
  C   C166      1.0  0.12826  0.58441  0.49247  1.0000
  C   C167      1.0  0.11322  0.59215  0.47878  1.0000
  C   C168      1.0  0.11219  0.60990  0.47140  1.0000
  H   H169      1.0  0.15226  0.62008  0.49445  1.0000
  H   H170      1.0  0.15400  0.58898  0.50854  1.0000
  H   H171      1.0  0.10225  0.58452  0.47466  1.0000
  H   H172      1.0  0.10034  0.61570  0.46161  1.0000
  C   C169      1.0  0.11379  0.71249  0.32894  1.0000
  C   C170      1.0  0.10088  0.72430  0.31725  1.0000
  C   C171      1.0  0.09361  0.72349  0.28209  1.0000
  C   C172      1.0  0.09912  0.71082  0.25777  1.0000
  C   C173      1.0  0.11212  0.69909  0.26932  1.0000
  C   C174      1.0  0.11939  0.69990  0.30449  1.0000
  H   H173      1.0  0.07357  0.69293  0.42375  1.0000
  C   C175      1.0  0.16353  0.53698  0.46423  1.0000
  H   H174      1.0  0.11659  0.68920  0.25098  1.0000
  H   H175      1.0  0.12928  0.69069  0.31277  1.0000
  C   C176      1.0  0.22092  0.68075  0.39832  1.0000
  C   C177      1.0  0.22333  0.69829  0.39728  1.0000
  H   H176      1.0  0.06971  0.68641  0.97931  1.0000
  C   C178      1.0  0.10917  0.73176  0.99348  1.0000
  H   H177      1.0  0.21293  0.70692  0.40553  1.0000
  C   C179      1.0  0.00370  0.67507  0.10303  1.0000
  H   H178      1.0  0.00355  0.68537  0.12212  1.0000
  H   H179      1.0  0.08081  0.71531  0.96737  1.0000
  H   H180      1.0  0.21550  0.66144  0.49326  1.0000
  H   H181      1.0  0.18205  0.69528  0.60551  1.0000
  C   C180      1.0  0.01669  0.70821  0.01672  1.0000
  N   N11       1.0  0.03352  0.51005  0.45481  1.0000
  C   C181      1.0  0.04723  0.52063  0.46665  1.0000
  H   H182      1.0  0.17697  0.73940  0.59060  1.0000
  Fe  Fe35      1.0  0.00112  0.49385  0.73370  1.0000
  C   C182      1.0  0.17761  0.50467  0.47789  1.0000
  H   H183      1.0  0.11318  0.73062  0.08483  1.0000
  C   C183      1.0  0.23935  0.70469  0.38614  1.0000
  H   H184      1.0  0.01615  0.71123  0.04638  1.0000
  H   H185      1.0  0.07516  0.49899  0.24860  1.0000
  S   S65       1.0  0.04382  0.73349  0.08566  1.0000
  H   H186      1.0  0.19632  0.65880  0.54810  1.0000
  C   C184      1.0  0.14134  0.71846  0.61584  1.0000
  N   N12       1.0  0.09204  0.68229  0.38656  1.0000
  C   C185      1.0  0.10174  0.66920  0.40164  1.0000
  C   C186      1.0  0.08758  0.68202  0.35051  1.0000
  C   C187      1.0  0.10780  0.65569  0.38016  1.0000
  C   C188      1.0  0.09340  0.66870  0.32822  1.0000
  C   C189      1.0  0.10367  0.65551  0.34318  1.0000
  C   C190      1.0  0.08575  0.69628  0.40962  1.0000
  H   H187      1.0  0.10497  0.66920  0.43041  1.0000
  H   H188      1.0  0.07991  0.69241  0.33848  1.0000
  H   H189      1.0  0.11573  0.64548  0.39223  1.0000
  H   H190      1.0  0.09024  0.66883  0.29939  1.0000
  H   H191      1.0  0.10846  0.64519  0.32620  1.0000
  C   C191      1.0  0.16576  0.50454  0.54097  1.0000
  H   H192      1.0  0.09534  0.69911  0.43043  1.0000
  H   H193      1.0  0.08382  0.70823  0.39303  1.0000
  H   H194      1.0  0.24107  0.71825  0.38589  1.0000
  H   H195      1.0  0.13244  0.70963  0.60562  1.0000
  H   H196      1.0  0.17440  0.73472  0.88966  1.0000
  H   H197      1.0  0.05906  0.51265  0.47075  1.0000
  H   H198      1.0  0.13493  0.70120  0.13397  1.0000
  C   C192      1.0  0.06148  0.69761  0.98357  1.0000
  C   C193      1.0  0.12010  0.73068  0.96195  1.0000
  S   S66       1.0  0.06375  0.50187  0.55124  1.0000
  C   C194      1.0  0.16137  0.52881  0.49848  1.0000
  C   C195      1.0  0.11525  0.73495  0.11233  1.0000
  C   C196      1.0  0.16635  0.73515  0.60756  1.0000
  H   H199      1.0  0.19449  0.71257  0.55870  1.0000
  C   C197      1.0  0.06773  0.71381  0.97708  1.0000
  H   H200      1.0  0.00347  0.50856  0.38981  1.0000
  H   H201      1.0  0.00372  0.63785  0.03477  1.0000
  N   N13       1.0  0.19482  0.68546  0.55744  1.0000
  C   C198      1.0  0.20058  0.67125  0.53940  1.0000
  C   C199      1.0  0.19949  0.70125  0.54519  1.0000
  H   H202      1.0  0.11611  0.70222  0.10607  1.0000
  C   C200      1.0  0.21034  0.70307  0.51441  1.0000
  C   C201      1.0  0.06118  0.49400  0.39273  1.0000
  C   C202      1.0  0.18264  0.68375  0.58843  1.0000
  S   S67       1.0  0.02428  0.50714  0.70749  1.0000
  S   S68       1.0  0.09413  0.49569  0.47297  1.0000
  H   H203      1.0  0.18627  0.67269  0.60649  1.0000
  N   N14       1.0  0.03419  0.71004  0.00214  1.0000
  C   C203      1.0  0.02364  0.51516  0.42577  1.0000
  C   C204      1.0  0.04460  0.69595  0.99631  1.0000
  H   H204      1.0  0.00348  0.61311  0.15663  1.0000
  H   H205      1.0  0.23304  0.65622  0.38813  1.0000
  H   H206      1.0  0.11392  0.69800  0.15432  1.0000
  H   H207      1.0  0.18698  0.50569  0.42170  1.0000
  H   H208      1.0  0.19667  0.72581  0.84521  1.0000
  C   C205      1.0  0.01078  0.50488  0.41387  1.0000
  H   H209      1.0  0.18306  0.49196  0.48284  1.0000
  C   C206      1.0  0.20613  0.72542  0.86752  1.0000
  N   N15       1.0  0.11933  0.72361  0.14016  1.0000
  C   C207      1.0  0.23468  0.66980  0.38738  1.0000
  H   H210      1.0  0.00754  0.71682  0.00173  1.0000
  H   H211      1.0  0.17449  0.50987  0.56088  1.0000
  S   S69       1.0  0.99924  0.49214  0.79575  1.0000
  N   N16       1.0  0.20120  0.73773  0.89572  1.0000
  H   H212      1.0  0.15229  0.50649  0.55087  1.0000
  C   C208      1.0  0.05713  0.72810  0.98363  1.0000
  C   C209      1.0  0.03850  0.49396  0.60242  1.0000
  C   C210      1.0  0.02942  0.49497  0.63637  1.0000
  C   C211      1.0  0.04027  0.72597  0.99613  1.0000
  H   H213      1.0  0.03854  0.49110  0.49641  1.0000
  H   H214      1.0  0.03788  0.49131  0.77986  1.0000
  H   H215      1.0  0.16813  0.49054  0.53985  1.0000
  Fe  Fe36      1.0  0.10306  0.95354  0.73967  1.0000
  S   S70       1.0  0.09539  0.92761  0.75945  1.0000
  S   S71       1.0  0.08897  0.96970  0.69540  1.0000
  Fe  Fe37      1.0  0.12916  0.95687  0.80248  1.0000
  S   S72       1.0  0.12242  0.93114  0.82674  1.0000
  S   S73       1.0  0.14802  0.97073  0.83823  1.0000
  Fe  Fe38      1.0  0.12341  0.92168  0.76913  1.0000
  S   S74       1.0  0.13923  0.89746  0.75376  1.0000
  Fe  Fe39      1.0  0.09509  0.93898  0.81549  1.0000
  S   S75       1.0  0.07211  0.93330  0.85209  1.0000
  S   S76       1.0  0.13151  0.94711  0.74477  1.0000
  S   S77       1.0  0.10147  0.96515  0.79577  1.0000
  S   S78       1.0  0.01213  0.96445  0.48536  1.0000
  Fe  Fe40      1.0  0.00904  0.96827  0.54626  1.0000
  S   S79       1.0  0.02870  0.95512  0.58509  1.0000
  H   H216      1.0  0.16815  0.91647  0.86681  1.0000
  C   C212      1.0  0.18046  0.94290  0.75005  1.0000
  C   C213      1.0  0.00161  0.84550  0.15781  1.0000
  C   C214      1.0  0.11336  0.75235  0.11901  1.0000
  S   S80       1.0  0.17042  0.78228  0.76608  1.0000
  Fe  Fe41      1.0  0.14749  0.75916  0.85030  1.0000
  S   S81       1.0  0.16380  0.78183  0.85693  1.0000
  H   H217      1.0  0.02458  0.77302  0.22225  1.0000
  Fe  Fe42      1.0  0.15062  0.79299  0.80651  1.0000
  S   S82       1.0  0.13651  0.81925  0.80937  1.0000
  Fe  Fe43      1.0  0.18246  0.76966  0.81651  1.0000
  S   S83       1.0  0.21141  0.76389  0.82195  1.0000
  S   S84       1.0  0.13347  0.77062  0.80164  1.0000
  S   S85       1.0  0.08664  0.74948  0.04177  1.0000
  S   S86       1.0  0.02013  0.76515  0.14423  1.0000
  C   C215      1.0  0.00982  0.84303  0.19120  1.0000
  H   H218      1.0  0.00226  0.91442  0.14317  1.0000
  C   C216      1.0  0.02234  0.83007  0.19507  1.0000
  C   C217      1.0  0.04115  0.94671  0.01770  1.0000
  H   H219      1.0  0.18621  0.95704  0.83575  1.0000
  C   C218      1.0  0.22813  0.77045  0.85040  1.0000
  S   S87       1.0  0.01042  0.98282  0.04551  1.0000
  C   C219      1.0  0.22545  0.78269  0.87733  1.0000
  C   C220      1.0  0.05428  0.97420  0.51619  1.0000
  H   H220      1.0  0.21298  0.78897  0.88050  1.0000
  Fe  Fe44      1.0  0.15414  0.75915  0.76393  1.0000
  C   C221      1.0  0.07231  0.96530  0.66474  1.0000
  C   C222      1.0  0.06328  0.97898  0.64736  1.0000
  C   C223      1.0  0.04991  0.97620  0.62303  1.0000
  C   C224      1.0  0.04557  0.95962  0.61518  1.0000
  C   C225      1.0  0.05473  0.94594  0.63221  1.0000
  C   C226      1.0  0.06789  0.94873  0.65706  1.0000
  C   C227      1.0  0.12296  0.74497  0.93870  1.0000
  C   C228      1.0  0.14965  0.79008  0.67958  1.0000
  H   H221      1.0  0.05155  0.93304  0.62639  1.0000
  H   H222      1.0  0.07473  0.93805  0.66994  1.0000
  C   C229      1.0  0.04411  0.97416  0.92037  1.0000
  C   C230      1.0  0.05646  0.95101  0.47415  1.0000
  C   C231      1.0  0.06819  0.96548  0.88037  1.0000
  C   C232      1.0  0.06115  0.94960  0.87637  1.0000
  C   C233      1.0  0.04533  0.94625  0.89342  1.0000
  C   C234      1.0  0.03684  0.95847  0.91539  1.0000
  C   C235      1.0  0.06949  0.94519  0.97059  1.0000
  H   H223      1.0  0.08041  0.96819  0.86747  1.0000
  H   H224      1.0  0.03979  0.93400  0.89032  1.0000
  H   H225      1.0  0.02488  0.95558  0.92905  1.0000
  C   C236      1.0  0.13835  0.87581  0.77001  1.0000
  C   C237      1.0  0.15078  0.86376  0.75730  1.0000
  C   C238      1.0  0.15059  0.84649  0.76919  1.0000
  C   C239      1.0  0.13787  0.84097  0.79392  1.0000
  C   C240      1.0  0.12543  0.85301  0.80653  1.0000
  C   C241      1.0  0.12569  0.87029  0.79486  1.0000
  H   H226      1.0  0.16065  0.86781  0.73809  1.0000
  H   H227      1.0  0.16029  0.83750  0.75921  1.0000
  H   H228      1.0  0.11550  0.84896  0.82561  1.0000
  H   H229      1.0  0.11601  0.87929  0.80493  1.0000
  H   H230      1.0  0.18823  0.77062  0.96916  1.0000
  H   H231      1.0  0.06918  0.98619  0.98471  1.0000
  Fe  Fe45      1.0  0.01080  0.98289  0.98386  1.0000
  H   H232      1.0  0.06529  0.98991  0.90577  1.0000
  N   N17       1.0  0.17388  0.93424  0.82334  1.0000
  H   H233      1.0  0.05315  0.95825  0.41719  1.0000
  C   C242      1.0  0.03852  0.96772  0.72580  1.0000
  H   H234      1.0  0.11667  0.77160  0.93049  1.0000
  C   C243      1.0  0.05963  0.97776  0.90218  1.0000
  H   H235      1.0  0.03792  0.98134  0.72053  1.0000
  C   C244      1.0  0.01422  0.78105  0.21161  1.0000
  C   C245      1.0  0.00928  0.77938  0.17527  1.0000
  H   H236      1.0  0.11384  0.77151  0.16008  1.0000
  H   H237      1.0  0.17312  0.75003  0.65410  1.0000
  C   C246      1.0  0.21358  0.74536  0.91464  1.0000
  H   H238      1.0  0.15686  0.93691  0.86889  1.0000
  S   S88       1.0  0.13705  0.74267  0.89918  1.0000
  H   H239      1.0  0.03577  0.80918  0.16911  1.0000
  H   H240      1.0  0.02838  0.82775  0.22131  1.0000
  H   H241      1.0  0.17912  0.93483  0.88047  1.0000
  H   H242      1.0  0.02460  0.93136  0.69041  1.0000
  H   H243      1.0  0.23662  0.79617  0.92117  1.0000
  C   C247      1.0  0.02243  0.81080  0.10215  1.0000
  H   H244      1.0  0.21904  0.76372  0.95526  1.0000
  C   C248      1.0  0.05146  0.97995  0.45231  1.0000
  H   H245      1.0  0.12158  0.75069  0.21026  1.0000
  N   N18       1.0  0.06585  0.95957  0.99009  1.0000
  H   H246      1.0  0.04296  0.98689  0.61049  1.0000
  C   C249      1.0  0.10376  0.76153  0.97933  1.0000
  C   C250      1.0  0.02639  0.81957  0.16547  1.0000
  C   C251      1.0  0.05735  0.97224  0.77688  1.0000
  C   C252      1.0  0.23891  0.78672  0.90044  1.0000
  H   H247      1.0  0.05824  0.94788  0.53297  1.0000
  H   H248      1.0  0.99945  0.83668  0.10296  1.0000
  H   H249      1.0  0.14786  0.79214  0.64965  1.0000
  N   N19       1.0  0.05179  0.98552  0.48755  1.0000
  H   H250      1.0  0.10980  0.76123  0.09695  1.0000
  N   N20       1.0  0.13299  0.79015  0.69890  1.0000
  C   C253      1.0  0.12851  0.80260  0.72323  1.0000
  C   C254      1.0  0.12193  0.77762  0.69215  1.0000
  C   C255      1.0  0.11267  0.80253  0.74190  1.0000
  C   C256      1.0  0.10613  0.77700  0.71081  1.0000
  C   C257      1.0  0.10151  0.78956  0.73588  1.0000
  H   H251      1.0  0.06144  0.92022  0.95720  1.0000
  H   H252      1.0  0.13724  0.81254  0.72891  1.0000
  H   H253      1.0  0.12550  0.76773  0.67289  1.0000
  H   H254      1.0  0.10930  0.81229  0.76160  1.0000
  H   H255      1.0  0.09769  0.76669  0.70621  1.0000
  H   H256      1.0  0.08940  0.78914  0.75094  1.0000
  C   C258      1.0  0.10081  0.74722  0.00241  1.0000
  H   H257      1.0  0.04852  0.98238  0.78774  1.0000
  H   H258      1.0  0.05788  0.93751  0.46909  1.0000
  N   N21       1.0  0.04819  0.96089  0.75366  1.0000
  C   C259      1.0  0.04966  0.94364  0.75920  1.0000
  H   H259      1.0  0.03112  0.81730  0.08228  1.0000
  C   C260      1.0  0.04113  0.93275  0.73674  1.0000
  C   C261      1.0  0.02964  0.95722  0.70311  1.0000
  C   C262      1.0  0.03102  0.93962  0.70859  1.0000
  S   S89       1.0  0.03501  0.98894  0.95149  1.0000
  C   C263      1.0  0.05200  0.96038  0.01370  1.0000
  H   H260      1.0  0.16729  0.92014  0.73813  1.0000
  H   H261      1.0  0.04254  0.91908  0.74095  1.0000
  N   N22       1.0  0.01809  0.82189  0.13299  1.0000
  H   H262      1.0  0.00624  0.85088  0.21439  1.0000
  C   C264      1.0  0.00577  0.79321  0.23428  1.0000
  C   C265      1.0  0.05885  0.93131  0.97381  1.0000
  H   H263      1.0  0.08030  0.94459  0.95139  1.0000
  C   C266      1.0  0.05673  0.95681  0.50995  1.0000
  S   S90       1.0  0.06986  0.74746  0.14590  1.0000
  C   C267      1.0  0.16848  0.92409  0.79637  1.0000
  H   H264      1.0  0.19215  0.96499  0.77093  1.0000
  H   H265      1.0  0.00975  0.79434  0.26231  1.0000
  H   H266      1.0  0.05754  0.93817  0.78092  1.0000
  H   H267      1.0  0.02224  0.96263  0.68053  1.0000
  C   C268      1.0  0.16415  0.74131  0.64379  1.0000
  C   C269      1.0  0.18249  0.94864  0.81445  1.0000
  C   C270      1.0  0.16931  0.93037  0.86181  1.0000
  H   H268      1.0  0.16128  0.91288  0.80330  1.0000
  C   C271      1.0  0.05384  0.96264  0.44506  1.0000
  S   S91       1.0  0.16699  0.74619  0.81242  1.0000
  H   H269      1.0  0.16587  0.75580  0.93620  1.0000
  C   C272      1.0  0.12001  0.74647  0.18247  1.0000
  H   H270      1.0  0.09747  0.77361  0.98574  1.0000
  H   H271      1.0  0.18270  0.94645  0.72143  1.0000
  C   C273      1.0  0.11469  0.76044  0.94780  1.0000
  C   C274      1.0  0.16364  0.98685  0.83527  1.0000
  C   C275      1.0  0.17934  0.75291  0.93049  1.0000
  H   H272      1.0  0.15655  0.77761  0.68423  1.0000
  C   C276      1.0  0.17183  0.92816  0.75938  1.0000
  H   H273      1.0  0.06788  0.97815  0.76065  1.0000
  C   C277      1.0  0.20912  0.75727  0.94137  1.0000
  H   H274      1.0  0.15793  0.80009  0.68946  1.0000
  C   C278      1.0  0.18584  0.95324  0.77773  1.0000
  C   C279      1.0  0.11563  0.75809  0.15439  1.0000
  H   H275      1.0  0.04900  0.97186  0.02880  1.0000
  C   C280      1.0  0.00599  0.83478  0.12874  1.0000
  H   H276      1.0  0.03597  0.92164  0.99978  1.0000
  C   C281      1.0  0.04455  0.93215  0.99743  1.0000
  H   H277      1.0  0.04890  0.98883  0.42966  1.0000
  H   H278      1.0  0.06301  0.96531  0.80089  1.0000
  H   H279      1.0  0.01068  0.80730  0.08804  1.0000
  S   S92       1.0  0.00166  0.93885  0.08358  1.0000
  H   H280      1.0  0.02878  0.79861  0.11158  1.0000
  H   H281      1.0  0.16907  0.98451  0.89296  1.0000
  Fe  Fe46      1.0  0.04135  0.74383  0.14286  1.0000
  C   C282      1.0  0.19188  0.76116  0.94904  1.0000
  H   H282      1.0  0.05398  0.97850  0.54421  1.0000
  S   S93       1.0  0.99684  0.95867  0.98147  1.0000
  Fe  Fe47      1.0  0.99424  0.95994  0.04278  1.0000
  H   H283      1.0  0.22702  0.74272  0.90821  1.0000
  C   C283      1.0  0.99568  0.78997  0.16219  1.0000
  S   S94       1.0  0.14667  0.74383  0.71267  1.0000
  H   H284      1.0  0.03001  0.94751  0.03598  1.0000
  C   C284      1.0  0.07701  0.97410  0.98653  1.0000
  H   H285      1.0  0.08540  0.97440  0.01059  1.0000
  H   H286      1.0  0.08508  0.97357  0.96103  1.0000
  H   H287      1.0  0.06208  0.74075  0.97975  1.0000
  C   C285      1.0  0.18426  0.74106  0.90395  1.0000
  H   H288      1.0  0.25744  0.07213  0.74440  1.0000
  Fe  Fe48      1.0  0.48008  0.00210  0.28472  1.0000
  S   S95       1.0  0.46622  0.02400  0.31558  1.0000
  H   H289      1.0  0.35461  0.11730  0.62542  1.0000
  C   C286      1.0  0.27900  0.21026  0.48659  1.0000
  N   N23       1.0  0.32848  0.11698  0.64330  1.0000
  Fe  Fe49      1.0  0.46655  0.08848  0.49026  1.0000
  S   S96       1.0  0.44583  0.08158  0.53133  1.0000
  S   S97       1.0  0.48114  0.06790  0.45659  1.0000
  Fe  Fe50      1.0  0.46846  0.12523  0.52106  1.0000
  S   S98       1.0  0.44747  0.12062  0.56320  1.0000
  N   N24       1.0  0.25169  0.12091  0.24623  1.0000
  Fe  Fe51      1.0  0.46103  0.09510  0.57226  1.0000
  S   S99       1.0  0.46968  0.08567  0.62822  1.0000
  Fe  Fe52      1.0  0.43377  0.10764  0.51869  1.0000
  S   S100      1.0  0.40537  0.11052  0.50343  1.0000
  S   S101      1.0  0.48263  0.10049  0.53258  1.0000
  S   S102      1.0  0.45389  0.11386  0.47506  1.0000
  Fe  Fe53      1.0  0.27473  0.14974  0.51982  1.0000
  S   S103      1.0  0.29351  0.16959  0.53542  1.0000
  H   H290      1.0  0.32315  0.08339  0.56938  1.0000
  Fe  Fe54      1.0  0.27589  0.13324  0.59960  1.0000
  S   S104      1.0  0.29426  0.15219  0.61851  1.0000
  H   H291      1.0  0.42640  0.01843  0.80905  1.0000
  Fe  Fe55      1.0  0.27835  0.17218  0.58837  1.0000
  S   S105      1.0  0.26748  0.19682  0.61422  1.0000
  Fe  Fe56      1.0  0.30846  0.14822  0.56440  1.0000
  S   S106      1.0  0.33769  0.14715  0.57225  1.0000
  S   S107      1.0  0.29079  0.12814  0.54628  1.0000
  Fe  Fe57      1.0  0.47694  0.99648  0.72266  1.0000
  S   S108      1.0  0.26004  0.06880  0.90574  1.0000
  Fe  Fe58      1.0  0.26153  0.04048  0.89577  1.0000
  S   S109      1.0  0.28748  0.02570  0.90203  1.0000
  C   C287      1.0  0.25480  0.04631  0.01095  1.0000
  C   C288      1.0  0.28135  0.06825  0.01782  1.0000
  C   C289      1.0  0.34232  0.11164  0.62240  1.0000
  S   S110      1.0  0.26274  0.15333  0.46120  1.0000
  C   C290      1.0  0.31284  0.11027  0.63863  1.0000
  C   C291      1.0  0.48702  0.05187  0.55010  1.0000
  C   C292      1.0  0.26485  0.10604  0.68523  1.0000
  C   C293      1.0  0.25880  0.09795  0.76156  1.0000
  H   H292      1.0  0.46934  0.05672  0.27157  1.0000
  H   H293      1.0  0.48420  0.06588  0.68739  1.0000
  C   C294      1.0  0.26163  0.11476  0.74907  1.0000
  H   H294      1.0  0.40819  0.00247  0.85419  1.0000
  C   C295      1.0  0.27645  0.21647  0.62608  1.0000
  C   C296      1.0  0.29353  0.22017  0.61825  1.0000
  C   C297      1.0  0.29046  0.00207  0.96099  1.0000
  C   C298      1.0  0.48758  0.04183  0.40831  1.0000
  H   H295      1.0  0.30190  0.21076  0.60521  1.0000
  C   C299      1.0  0.25350  0.05882  0.03731  1.0000
  C   C300      1.0  0.32445  0.99243  0.94232  1.0000
  C   C301      1.0  0.38659  0.12005  0.52428  1.0000
  C   C302      1.0  0.38706  0.12946  0.55627  1.0000
  C   C303      1.0  0.37201  0.13774  0.57018  1.0000
  C   C304      1.0  0.35620  0.13648  0.55286  1.0000
  C   C305      1.0  0.35566  0.12678  0.52134  1.0000
  C   C306      1.0  0.37077  0.11875  0.50705  1.0000
  H   H296      1.0  0.39908  0.13058  0.56991  1.0000
  H   H297      1.0  0.37262  0.14517  0.59463  1.0000
  H   H298      1.0  0.34365  0.12564  0.50766  1.0000
  H   H299      1.0  0.37022  0.11153  0.48228  1.0000
  H   H300      1.0  0.33098  0.14306  0.65359  1.0000
  N   N25       1.0  0.42940  0.16389  0.51478  1.0000
  C   C307      1.0  0.31520  0.00466  0.92075  1.0000
  H   H301      1.0  0.29146  0.07715  0.02018  1.0000
  C   C308      1.0  0.47284  0.04134  0.68712  1.0000
  C   C309      1.0  0.47509  0.05813  0.67433  1.0000
  C   C310      1.0  0.46580  0.06487  0.64448  1.0000
  C   C311      1.0  0.45393  0.05486  0.62796  1.0000
  H   H302      1.0  0.29820  0.09289  0.60840  1.0000
  H   H303      1.0  0.44206  0.03058  0.62864  1.0000
  H   H304      1.0  0.28255  0.23090  0.52319  1.0000
  C   C312      1.0  0.47008  0.03518  0.35644  1.0000
  C   C313      1.0  0.45860  0.04855  0.36675  1.0000
  C   C314      1.0  0.46155  0.05848  0.39759  1.0000
  C   C315      1.0  0.47615  0.05527  0.41849  1.0000
  H   H305      1.0  0.24884  0.11845  0.05920  1.0000
  S   S111      1.0  0.47331  0.99398  0.78375  1.0000
  H   H306      1.0  0.44735  0.05132  0.35064  1.0000
  H   H307      1.0  0.45262  0.06873  0.40492  1.0000
  C   C316      1.0  0.40598  0.15030  0.46859  1.0000
  H   H308      1.0  0.24697  0.10010  0.00489  1.0000
  C   C317      1.0  0.29814  0.00960  0.92980  1.0000
  C   C318      1.0  0.42295  0.00552  0.80374  1.0000
  S   S112      1.0  0.25883  0.15342  0.57202  1.0000
  C   C319      1.0  0.45133  0.03824  0.64140  1.0000
  C   C320      1.0  0.42348  0.14845  0.46082  1.0000
  C   C321      1.0  0.25429  0.19364  0.50066  1.0000
  H   H309      1.0  0.31935  0.13162  0.68901  1.0000
  C   C322      1.0  0.48036  0.05342  0.25289  1.0000
  S   S113      1.0  0.26748  0.11041  0.63670  1.0000
  S   S114      1.0  0.45797  0.01016  0.68528  1.0000
  C   C323      1.0  0.42893  0.99757  0.77176  1.0000
  C   C324      1.0  0.33033  0.13072  0.66911  1.0000
  C   C325      1.0  0.41225  0.16558  0.52286  1.0000
  C   C326      1.0  0.40028  0.15903  0.49963  1.0000
  H   H310      1.0  0.40770  0.17181  0.54761  1.0000
  H   H311      1.0  0.38670  0.16006  0.50642  1.0000
  H   H312      1.0  0.44772  0.15976  0.55629  1.0000
  N   N26       1.0  0.28263  0.05574  0.99240  1.0000
  H   H313      1.0  0.24661  0.18288  0.49475  1.0000
  C   C327      1.0  0.26954  0.04493  0.98861  1.0000
  C   C328      1.0  0.47417  0.02464  0.55840  1.0000
  H   H314      1.0  0.46571  0.01509  0.54925  1.0000
  H   H315      1.0  0.26654  0.13182  0.70254  1.0000
  C   C329      1.0  0.29780  0.05409  0.96816  1.0000
  C   C330      1.0  0.26682  0.06990  0.04082  1.0000
  H   H316      1.0  0.24975  0.12559  0.18841  1.0000
  C   C331      1.0  0.31072  0.09797  0.61229  1.0000
  C   C332      1.0  0.41270  0.99663  0.82890  1.0000
  H   H317      1.0  0.34218  0.12863  0.68504  1.0000
  H   H318      1.0  0.29435  0.05757  0.93943  1.0000
  H   H319      1.0  0.37108  0.00399  0.07945  1.0000
  H   H320      1.0  0.26794  0.13646  0.27606  1.0000
  S   S115      1.0  0.25072  0.04383  0.83889  1.0000
  H   H321      1.0  0.25668  0.22511  0.56064  1.0000
  C   C333      1.0  0.26874  0.19679  0.47854  1.0000
  C   C334      1.0  0.24471  0.13257  0.41400  1.0000
  C   C335      1.0  0.47639  0.03951  0.53746  1.0000
  C   C336      1.0  0.26235  0.08917  0.69777  1.0000
  C   C337      1.0  0.25985  0.21722  0.53728  1.0000
  H   H322      1.0  0.29048  0.21255  0.47022  1.0000
  H   H323      1.0  0.44870  0.15371  0.47832  1.0000
  C   C338      1.0  0.44189  0.17043  0.53970  1.0000
  S   S116      1.0  0.48242  0.00516  0.22327  1.0000
  H   H324      1.0  0.30182  0.11460  0.65493  1.0000
  H   H325      1.0  0.43601  0.17995  0.55856  1.0000
  H   H326      1.0  0.45237  0.17666  0.52388  1.0000
  C   C339      1.0  0.32471  0.09263  0.59048  1.0000
  H   H327      1.0  0.46988  0.04158  0.51163  1.0000
  H   H328      1.0  0.27730  0.00539  0.96823  1.0000
  H   H329      1.0  0.26252  0.07913  0.67807  1.0000
  H   H330      1.0  0.32134  0.01032  0.89674  1.0000
  H   H331      1.0  0.39688  0.14435  0.45145  1.0000
  H   H332      1.0  0.27216  0.18853  0.45591  1.0000
  C   C340      1.0  0.25140  0.14856  0.41986  1.0000
  C   C341      1.0  0.43509  0.15540  0.48430  1.0000
  S   S117      1.0  0.48051  0.15146  0.51402  1.0000
  H   H333      1.0  0.26584  0.14248  0.22843  1.0000
  H   H334      1.0  0.42804  0.14121  0.43739  1.0000
  S   S118      1.0  0.25328  0.09406  0.80923  1.0000
  C   C342      1.0  0.48454  0.03179  0.37769  1.0000
  H   H335      1.0  0.44665  0.05998  0.60510  1.0000
  H   H336      1.0  0.30294  0.04072  0.96865  1.0000
  C   C343      1.0  0.25947  0.08513  0.73553  1.0000
  C   C344      1.0  0.26468  0.11878  0.71137  1.0000
  C   C345      1.0  0.46093  0.03137  0.67067  1.0000
  H   H337      1.0  0.31311  0.23867  0.62159  1.0000
  H   H338      1.0  0.26561  0.08003  0.06046  1.0000
  H   H339      1.0  0.27031  0.03539  0.96773  1.0000
  H   H340      1.0  0.25085  0.11364  0.30304  1.0000
  C   C346      1.0  0.25886  0.13744  0.25304  1.0000
  Fe  Fe59      1.0  0.24759  0.07168  0.85012  1.0000
  H   H341      1.0  0.24837  0.14671  0.26062  1.0000
  H   H342      1.0  0.26122  0.12484  0.76871  1.0000
  C   C347      1.0  0.26579  0.22898  0.64296  1.0000
  H   H343      1.0  0.30820  0.06232  0.97627  1.0000
  C   C348      1.0  0.34065  0.09946  0.59558  1.0000
  H   H344      1.0  0.25256  0.22633  0.64920  1.0000
  H   H345      1.0  0.48020  0.03618  0.70985  1.0000
  H   H346      1.0  0.35157  0.09574  0.57825  1.0000
  C   C349      1.0  0.24819  0.11009  0.27522  1.0000
  H   H347      1.0  0.43690  0.00459  0.75232  1.0000
  H   H348      1.0  0.47656  0.04212  0.23783  1.0000
  C   C350      1.0  0.36716  0.99166  0.08982  1.0000
  C   C351      1.0  0.27455  0.22057  0.51614  1.0000
  C   C352      1.0  0.29985  0.23605  0.62757  1.0000
  H   H349      1.0  0.48089  0.01083  0.60829  1.0000
  C   C353      1.0  0.48277  0.02219  0.59134  1.0000
  N   N27       1.0  0.25011  0.20370  0.52979  1.0000
  H   H350      1.0  0.48772  0.06452  0.31914  1.0000
  H   H351      1.0  0.48872  0.06334  0.53357  1.0000
  H   H352      1.0  0.48253  0.06412  0.23313  1.0000
  C   C354      1.0  0.24753  0.11681  0.21137  1.0000
  H   H353      1.0  0.25388  0.17367  0.39573  1.0000
  C   C355      1.0  0.24890  0.16122  0.39206  1.0000
  H   H354      1.0  0.34502  0.99124  0.05559  1.0000
  H   H355      1.0  0.24418  0.03811  0.00706  1.0000
  H   H356      1.0  0.49193  0.23539  0.59790  1.0000
  H   H357      1.0  0.24634  0.12259  0.43473  1.0000
  Fe  Fe60      1.0  0.46803  0.34695  0.73659  1.0000
  S   S119      1.0  0.44661  0.34661  0.69633  1.0000
  C   C356      1.0  0.35883  0.45751  0.21743  1.0000
  Fe  Fe61      1.0  0.45234  0.37853  0.77670  1.0000
  S   S120      1.0  0.42969  0.37970  0.73942  1.0000
  S   S121      1.0  0.45150  0.40192  0.81369  1.0000
  Fe  Fe62      1.0  0.42880  0.35133  0.74491  1.0000
  S   S122      1.0  0.40514  0.33534  0.75709  1.0000
  Fe  Fe63      1.0  0.44891  0.37514  0.69369  1.0000
  S   S123      1.0  0.44438  0.39241  0.64376  1.0000
  S   S124      1.0  0.45010  0.35021  0.78597  1.0000
  S   S125      1.0  0.47159  0.37536  0.73016  1.0000
  C   C357      1.0  0.33127  0.47221  0.21500  1.0000
  C   C358      1.0  0.28362  0.43670  0.46567  1.0000
  H   H358      1.0  0.30423  0.41189  0.40277  1.0000
  H   H359      1.0  0.29672  0.44205  0.41409  1.0000
  C   C359      1.0  0.29608  0.38494  0.44376  1.0000
  C   C360      1.0  0.42565  0.48079  0.15080  1.0000
  H   H360      1.0  0.42753  0.41269  0.51480  1.0000
  H   H361      1.0  0.48722  0.39762  0.92471  1.0000
  Fe  Fe64      1.0  0.47149  0.47708  0.48243  1.0000
  Fe  Fe65      1.0  0.28716  0.29275  0.68293  1.0000
  S   S126      1.0  0.26013  0.30266  0.69373  1.0000
  S   S127      1.0  0.29810  0.26832  0.65607  1.0000
  Fe  Fe66      1.0  0.30251  0.32550  0.71050  1.0000
  S   S128      1.0  0.27628  0.33741  0.72347  1.0000
  S   S129      1.0  0.32652  0.34163  0.71031  1.0000
  Fe  Fe67      1.0  0.26951  0.31179  0.74820  1.0000
  H   H362      1.0  0.25336  0.33639  0.84580  1.0000
  Fe  Fe68      1.0  0.26860  0.32771  0.66850  1.0000
  S   S130      1.0  0.25097  0.34475  0.63144  1.0000
  S   S131      1.0  0.29633  0.30046  0.73834  1.0000
  S   S132      1.0  0.29496  0.31725  0.65459  1.0000
  C   C361      1.0  0.45114  0.40024  0.53202  1.0000
  S   S133      1.0  0.25703  0.38916  0.36452  1.0000
  H   H363      1.0  0.24733  0.32654  0.14615  1.0000
  C   C362      1.0  0.49022  0.41316  0.61973  1.0000
  Fe  Fe69      1.0  0.25933  0.41768  0.35804  1.0000
  S   S134      1.0  0.28637  0.42687  0.34262  1.0000
  C   C363      1.0  0.47502  0.42254  0.91880  1.0000
  H   H364      1.0  0.44245  0.42294  0.59958  1.0000
  C   C364      1.0  0.48558  0.42740  0.59766  1.0000
  H   H365      1.0  0.32893  0.29489  0.69918  1.0000
  Fe  Fe70      1.0  0.24395  0.39423  0.41933  1.0000
  H   H366      1.0  0.36045  0.48793  0.12127  1.0000
  C   C365      1.0  0.25257  0.35366  0.58551  1.0000
  C   C366      1.0  0.25357  0.36817  0.51249  1.0000
  C   C367      1.0  0.26687  0.35712  0.52542  1.0000
  C   C368      1.0  0.26642  0.34997  0.56154  1.0000
  H   H367      1.0  0.27756  0.35389  0.50726  1.0000
  H   H368      1.0  0.27671  0.34145  0.57070  1.0000
  S   S135      1.0  0.46936  0.47705  0.54411  1.0000
  H   H369      1.0  0.27091  0.42713  0.51476  1.0000
  H   H370      1.0  0.26376  0.25424  0.66550  1.0000
  C   C369      1.0  0.46129  0.40952  0.85376  1.0000
  H   H371      1.0  0.46103  0.44572  0.90458  1.0000
  H   H372      1.0  0.47648  0.39123  0.54569  1.0000
  H   H373      1.0  0.44891  0.43438  0.84814  1.0000
  C   C370      1.0  0.46428  0.43283  0.89666  1.0000
  C   C371      1.0  0.45740  0.42632  0.86457  1.0000
  H   H374      1.0  0.31809  0.47379  0.22478  1.0000
  C   C372      1.0  0.28924  0.24852  0.64477  1.0000
  H   H375      1.0  0.46459  0.44183  0.57356  1.0000
  H   H376      1.0  0.47543  0.38638  0.86778  1.0000
  C   C373      1.0  0.46043  0.40597  0.62741  1.0000
  C   C374      1.0  0.45579  0.42024  0.60547  1.0000
  C   C375      1.0  0.46831  0.43095  0.59066  1.0000
  S   S136      1.0  0.25502  0.37692  0.46642  1.0000
  C   C376      1.0  0.44142  0.43697  0.68678  1.0000
  C   C377      1.0  0.47768  0.40253  0.63481  1.0000
  H   H377      1.0  0.27869  0.39711  0.50238  1.0000
  C   C378      1.0  0.46245  0.42270  0.72659  1.0000
  C   C379      1.0  0.41380  0.48852  0.38041  1.0000
  C   C380      1.0  0.46744  0.42448  0.48879  1.0000
  C   C381      1.0  0.38320  0.33766  0.74477  1.0000
  C   C382      1.0  0.37189  0.32487  0.75573  1.0000
  C   C383      1.0  0.35450  0.32589  0.74591  1.0000
  C   C384      1.0  0.34810  0.33988  0.72532  1.0000
  C   C385      1.0  0.35934  0.35284  0.71507  1.0000
  C   C386      1.0  0.37678  0.35172  0.72449  1.0000
  H   H378      1.0  0.37665  0.31397  0.77163  1.0000
  H   H379      1.0  0.34604  0.31587  0.75427  1.0000
  H   H380      1.0  0.35456  0.36375  0.69923  1.0000
  H   H381      1.0  0.38523  0.36170  0.71586  1.0000
  H   H382      1.0  0.37822  0.46741  0.18104  1.0000
  H   H383      1.0  0.44216  0.43434  0.47550  1.0000
  C   C387      1.0  0.44138  0.41251  0.51264  1.0000
  N   N28       1.0  0.35469  0.48191  0.17715  1.0000
  H   H384      1.0  0.28735  0.38098  0.42218  1.0000
  S   S137      1.0  0.45107  0.46775  0.44555  1.0000
  C   C388      1.0  0.29728  0.41521  0.42785  1.0000
  N   N29       1.0  0.47692  0.41271  0.50870  1.0000
  C   C389      1.0  0.31232  0.47680  0.30547  1.0000
  C   C390      1.0  0.29436  0.47579  0.30521  1.0000
  C   C391      1.0  0.28615  0.46085  0.31717  1.0000
  C   C392      1.0  0.29582  0.44650  0.32903  1.0000
  C   C393      1.0  0.31378  0.44752  0.32943  1.0000
  C   C394      1.0  0.32197  0.46257  0.31810  1.0000
  S   S138      1.0  0.47240  0.48156  0.96778  1.0000
  H   H385      1.0  0.27237  0.46035  0.31652  1.0000
  H   H386      1.0  0.32145  0.43656  0.33850  1.0000
  C   C395      1.0  0.47224  0.39930  0.87557  1.0000
  H   H387      1.0  0.29411  0.37641  0.46817  1.0000
  H   H388      1.0  0.27997  0.44991  0.47043  1.0000
  H   H389      1.0  0.33953  0.27742  0.67552  1.0000
  H   H390      1.0  0.30954  0.38307  0.43388  1.0000
  C   C396      1.0  0.27211  0.24487  0.65227  1.0000
  H   H391      1.0  0.43414  0.44410  0.70832  1.0000
  H   H392      1.0  0.36721  0.44753  0.22882  1.0000
  H   H393      1.0  0.48139  0.39151  0.65154  1.0000
  H   H394      1.0  0.47361  0.43395  0.47142  1.0000
  C   C397      1.0  0.27855  0.42395  0.49050  1.0000
  C   C398      1.0  0.24629  0.31301  0.14199  1.0000
  H   H395      1.0  0.32603  0.29215  0.65077  1.0000
  C   C399      1.0  0.28301  0.40696  0.48332  1.0000
  H   H396      1.0  0.38748  0.33216  0.65109  1.0000
  H   H397      1.0  0.44494  0.39094  0.54987  1.0000
  H   H398      1.0  0.33575  0.46309  0.31870  1.0000
  C   C400      1.0  0.48918  0.43883  0.69065  1.0000
  C   C401      1.0  0.29308  0.43233  0.43418  1.0000
  N   N30       1.0  0.40662  0.36481  0.83508  1.0000
  C   C402      1.0  0.40911  0.34797  0.84457  1.0000
  C   C403      1.0  0.41769  0.37653  0.84645  1.0000
  C   C404      1.0  0.42281  0.34255  0.86651  1.0000
  C   C405      1.0  0.43137  0.37158  0.86884  1.0000
  C   C406      1.0  0.43396  0.35447  0.87878  1.0000
  C   C407      1.0  0.39258  0.37024  0.81100  1.0000
  H   H399      1.0  0.40067  0.33857  0.83464  1.0000
  H   H400      1.0  0.41615  0.38981  0.83790  1.0000
  H   H401      1.0  0.42491  0.32915  0.87331  1.0000
  H   H402      1.0  0.44012  0.38094  0.87772  1.0000
  H   H403      1.0  0.44479  0.35045  0.89539  1.0000
  H   H404      1.0  0.38219  0.36096  0.81201  1.0000
  H   H405      1.0  0.38686  0.38275  0.81914  1.0000
  H   H406      1.0  0.39743  0.37121  0.78217  1.0000
  N   N31       1.0  0.29226  0.40280  0.45227  1.0000
  H   H407      1.0  0.35869  0.34032  0.62718  1.0000
  N   N32       1.0  0.34997  0.30193  0.66543  1.0000
  C   C408      1.0  0.36568  0.29744  0.67917  1.0000
  C   C409      1.0  0.34743  0.31710  0.64685  1.0000
  C   C410      1.0  0.37948  0.30810  0.67366  1.0000
  C   C411      1.0  0.36094  0.32805  0.64077  1.0000
  C   C412      1.0  0.37706  0.32349  0.65430  1.0000
  C   C413      1.0  0.33546  0.29107  0.67315  1.0000
  H   H408      1.0  0.36750  0.28576  0.69526  1.0000
  H   H409      1.0  0.33475  0.32112  0.63785  1.0000
  H   H410      1.0  0.39179  0.30482  0.68559  1.0000
  H   H411      1.0  0.47100  0.48290  0.22278  1.0000
  H   H412      1.0  0.42784  0.46943  0.16762  1.0000
  H   H413      1.0  0.45209  0.41622  0.74060  1.0000
  S   S139      1.0  0.47702  0.46035  0.04615  1.0000
  H   H414      1.0  0.48169  0.41060  0.76094  1.0000
  H   H415      1.0  0.33682  0.45055  0.25054  1.0000
  Fe  Fe71      1.0  0.48403  0.45622  0.98632  1.0000
  C   C414      1.0  0.43502  0.48280  0.11744  1.0000
  C   C415      1.0  0.25732  0.30462  0.11722  1.0000
  C   C416      1.0  0.33797  0.48360  0.18882  1.0000
  S   S140      1.0  0.25329  0.30531  0.80117  1.0000
  C   C417      1.0  0.47223  0.44203  0.68032  1.0000
  H   H416      1.0  0.44430  0.47306  0.10889  1.0000
  H   H417      1.0  0.26697  0.31160  0.10197  1.0000
  C   C418      1.0  0.47921  0.41942  0.73808  1.0000
  C   C419      1.0  0.46901  0.40051  0.52966  1.0000
  C   C420      1.0  0.47894  0.40574  0.90793  1.0000
  C   C421      1.0  0.34182  0.45920  0.22961  1.0000
  N   N33       1.0  0.45916  0.43379  0.69791  1.0000
  C   C422      1.0  0.48282  0.48814  0.17012  1.0000
  C   C423      1.0  0.42615  0.47728  0.39630  1.0000
  H   H418      1.0  0.43524  0.42469  0.68259  1.0000
  H   H419      1.0  0.42792  0.46452  0.38621  1.0000
  C   C424      1.0  0.24446  0.31088  0.84586  1.0000
  C   C425      1.0  0.44956  0.42468  0.49074  1.0000
  H   H420      1.0  0.44066  0.44437  0.66043  1.0000
  S   S141      1.0  0.48348  0.42974  0.96069  1.0000
  C   C426      1.0  0.36502  0.46891  0.19064  1.0000
  S   S142      1.0  0.24746  0.42264  0.41393  1.0000
  H   H421      1.0  0.26364  0.28079  0.09134  1.0000
  C   C427      1.0  0.43617  0.48244  0.42522  1.0000
  H   H422      1.0  0.46971  0.45080  0.65745  1.0000
  H   H423      1.0  0.28671  0.48666  0.29552  1.0000
  S   S143      1.0  0.49095  0.32786  0.74221  1.0000
  C   C428      1.0  0.25548  0.28736  0.11132  1.0000
  Fe  Fe72      1.0  0.46745  0.48645  0.02850  1.0000
  C   C429      1.0  0.24607  0.32697  0.86080  1.0000
  H   H424      1.0  0.48328  0.31538  0.66889  1.0000
  H   H425      1.0  0.40609  0.48438  0.35833  1.0000
  C   C430      1.0  0.49266  0.42741  0.71970  1.0000
  S   S144      1.0  0.40227  0.49000  0.20516  1.0000
  H   H426      1.0  0.49317  0.47869  0.17356  1.0000
  Fe  Fe73      1.0  0.29780  0.69176  0.33461  1.0000
  S   S145      1.0  0.31641  0.71172  0.31647  1.0000
  S   S146      1.0  0.27329  0.70257  0.36308  1.0000
  Fe  Fe74      1.0  0.32195  0.66318  0.30503  1.0000
  S   S147      1.0  0.34196  0.68147  0.28484  1.0000
  S   S148      1.0  0.32123  0.63391  0.30331  1.0000
  Fe  Fe75      1.0  0.33710  0.69417  0.33981  1.0000
  S   S149      1.0  0.35852  0.70587  0.37276  1.0000
  Fe  Fe76      1.0  0.31986  0.69803  0.26295  1.0000
  S   S150      1.0  0.31627  0.71392  0.20830  1.0000
  S   S151      1.0  0.31836  0.67501  0.36087  1.0000
  S   S152      1.0  0.30007  0.67896  0.28026  1.0000
  S   S153      1.0  0.49278  0.49860  0.03542  1.0000
  C   C431      1.0  0.42009  0.50982  0.10680  1.0000
  S   S154      1.0  0.42877  0.72884  0.57141  1.0000
  C   C432      1.0  0.25312  0.69373  0.37522  1.0000
  S   S155      1.0  0.40375  0.71114  0.63409  1.0000
  C   C433      1.0  0.25061  0.67621  0.37568  1.0000
  Fe  Fe77      1.0  0.43179  0.71663  0.62804  1.0000
  S   S156      1.0  0.45548  0.69837  0.63011  1.0000
  Fe  Fe78      1.0  0.40049  0.72476  0.57903  1.0000
  S   S157      1.0  0.38135  0.71254  0.54058  1.0000
  H   H427      1.0  0.48630  0.56159  0.48809  1.0000
  Fe  Fe79      1.0  0.38406  0.50607  0.24213  1.0000
  S   S158      1.0  0.39266  0.52843  0.27285  1.0000
  H   H428      1.0  0.32974  0.49393  0.17840  1.0000
  Fe  Fe80      1.0  0.34913  0.50607  0.28372  1.0000
  S   S159      1.0  0.35554  0.52866  0.31719  1.0000
  H   H429      1.0  0.44939  0.66299  0.59781  1.0000
  Fe  Fe81      1.0  0.36620  0.54026  0.26508  1.0000
  S   S160      1.0  0.36614  0.56882  0.24973  1.0000
  Fe  Fe82      1.0  0.38150  0.51560  0.32303  1.0000
  H   H430      1.0  0.35010  0.57154  0.40275  1.0000
  S   S161      1.0  0.35824  0.51859  0.23026  1.0000
  C   C434      1.0  0.32656  0.65855  0.18978  1.0000
  H   H431      1.0  0.46751  0.51730  0.10762  1.0000
  N   N34       1.0  0.36173  0.58929  0.36557  1.0000
  H   H432      1.0  0.44133  0.50304  0.46048  1.0000
  S   S162      1.0  0.47750  0.52422  0.57241  1.0000
  H   H433      1.0  0.28476  0.69421  0.20224  1.0000
  H   H434      1.0  0.37503  0.49612  0.15353  1.0000
  C   C435      1.0  0.41093  0.50795  0.14049  1.0000
  C   C436      1.0  0.34978  0.60327  0.37584  1.0000
  H   H435      1.0  0.34369  0.70592  0.15322  1.0000
  C   C437      1.0  0.41116  0.50492  0.39384  1.0000
  H   H436      1.0  0.29430  0.71680  0.43441  1.0000
  H   H437      1.0  0.41921  0.52270  0.43333  1.0000
  H   H438      1.0  0.43349  0.51344  0.21407  1.0000
  C   C438      1.0  0.49179  0.53277  0.60327  1.0000
  S   S163      1.0  0.44369  0.50061  0.05269  1.0000
  H   H439      1.0  0.45699  0.68593  0.55521  1.0000
  C   C439      1.0  0.46280  0.68035  0.65695  1.0000
  C   C440      1.0  0.45309  0.67340  0.68595  1.0000
  H   H440      1.0  0.29902  0.73908  0.16097  1.0000
  C   C441      1.0  0.47870  0.67238  0.64764  1.0000
  H   H441      1.0  0.44083  0.67930  0.69343  1.0000
  C   C442      1.0  0.47525  0.65086  0.69633  1.0000
  C   C443      1.0  0.30545  0.71793  0.41514  1.0000
  H   H442      1.0  0.34878  0.71628  0.08903  1.0000
  H   H443      1.0  0.33635  0.59929  0.37388  1.0000
  C   C444      1.0  0.38444  0.56267  0.34711  1.0000
  C   C445      1.0  0.33790  0.72137  0.10460  1.0000
  H   H444      1.0  0.48406  0.49571  0.83174  1.0000
  C   C446      1.0  0.48896  0.53249  0.81175  1.0000
  C   C447      1.0  0.32695  0.73382  0.08794  1.0000
  C   C448      1.0  0.32090  0.72160  0.16206  1.0000
  C   C449      1.0  0.41358  0.49334  0.16262  1.0000
  H   H445      1.0  0.48541  0.51112  0.86737  1.0000
  C   C450      1.0  0.46857  0.50999  0.13322  1.0000
  H   H446      1.0  0.39550  0.58049  0.30848  1.0000
  H   H447      1.0  0.37564  0.60421  0.32619  1.0000
  C   C451      1.0  0.37449  0.59192  0.33993  1.0000
  C   C452      1.0  0.45632  0.51222  0.16148  1.0000
  C   C453      1.0  0.33406  0.61607  0.28816  1.0000
  C   C454      1.0  0.34956  0.61778  0.26867  1.0000
  C   C455      1.0  0.35899  0.60320  0.25665  1.0000
  C   C456      1.0  0.35340  0.58669  0.26495  1.0000
  C   C457      1.0  0.33810  0.58498  0.28513  1.0000
  C   C458      1.0  0.32840  0.59957  0.29614  1.0000
  H   H448      1.0  0.35419  0.63033  0.26243  1.0000
  H   H449      1.0  0.37081  0.60471  0.24106  1.0000
  H   H450      1.0  0.33356  0.57242  0.29164  1.0000
  H   H451      1.0  0.31642  0.59803  0.31109  1.0000
  C   C459      1.0  0.36522  0.70660  0.41949  1.0000
  C   C460      1.0  0.37936  0.71635  0.42765  1.0000
  C   C461      1.0  0.38462  0.71818  0.46422  1.0000
  C   C462      1.0  0.37584  0.71022  0.49345  1.0000
  C   C463      1.0  0.36188  0.70024  0.48526  1.0000
  C   C464      1.0  0.35657  0.69847  0.44869  1.0000
  H   H452      1.0  0.45172  0.65360  0.72803  1.0000
  C   C465      1.0  0.32160  0.72617  0.46830  1.0000
  S   S164      1.0  0.48451  0.50194  0.47821  1.0000
  H   H453      1.0  0.34573  0.69090  0.44315  1.0000
  H   H454      1.0  0.37037  0.54772  0.38687  1.0000
  H   H455      1.0  0.31011  0.70498  0.40758  1.0000
  H   H456      1.0  0.30060  0.72467  0.39005  1.0000
  H   H457      1.0  0.26102  0.66757  0.36760  1.0000
  C   C466      1.0  0.45931  0.65878  0.70549  1.0000
  C   C467      1.0  0.31989  0.64446  0.20824  1.0000
  H   H458      1.0  0.44782  0.67506  0.51755  1.0000
  C   C468      1.0  0.48489  0.65773  0.66710  1.0000
  C   C469      1.0  0.42354  0.66032  0.61746  1.0000
  H   H459      1.0  0.31308  0.71894  0.48601  1.0000
  H   H460      1.0  0.41783  0.52111  0.08976  1.0000
  C   C470      1.0  0.44430  0.50474  0.22259  1.0000
  H   H461      1.0  0.40177  0.51777  0.14911  1.0000
  C   C471      1.0  0.28706  0.68635  0.17755  1.0000
  C   C472      1.0  0.41486  0.68174  0.55866  1.0000
  H   H462      1.0  0.35209  0.60712  0.40431  1.0000
  C   C473      1.0  0.43377  0.49895  0.43810  1.0000
  C   C474      1.0  0.48190  0.49791  0.13773  1.0000
  C   C475      1.0  0.31554  0.67213  0.17932  1.0000
  C   C476      1.0  0.30995  0.73408  0.14544  1.0000
  H   H463      1.0  0.41132  0.69021  0.53590  1.0000
  C   C477      1.0  0.40197  0.67557  0.58211  1.0000
  S   S165      1.0  0.37442  0.49222  0.29348  1.0000
  C   C478      1.0  0.42121  0.51007  0.42269  1.0000
  H   H464      1.0  0.33738  0.73308  0.51316  1.0000
  H   H465      1.0  0.35434  0.50609  0.14887  1.0000
  H   H466      1.0  0.29727  0.63349  0.23197  1.0000
  C   C479      1.0  0.38590  0.57861  0.33003  1.0000
  N   N35       1.0  0.45720  0.50246  0.19308  1.0000
  C   C480      1.0  0.49247  0.50490  0.84418  1.0000
  H   H467      1.0  0.39654  0.66050  0.63092  1.0000
  H   H468      1.0  0.39314  0.55220  0.33957  1.0000
  H   H469      1.0  0.27820  0.65780  0.21258  1.0000
  S   S166      1.0  0.48252  0.63270  0.72284  1.0000
  C   C481      1.0  0.36021  0.57367  0.38246  1.0000
  N   N36       1.0  0.43168  0.67745  0.56482  1.0000
  Fe  Fe83      1.0  0.48479  0.50067  0.54002  1.0000
  H   H470      1.0  0.32087  0.68318  0.16564  1.0000
  S   S167      1.0  0.39506  0.51917  0.37651  1.0000
  N   N37       1.0  0.31932  0.72705  0.43117  1.0000
  C   C482      1.0  0.29172  0.65792  0.20527  1.0000
  C   C483      1.0  0.44505  0.68405  0.54006  1.0000
  H   H471      1.0  0.44111  0.69671  0.52818  1.0000
  H   H472      1.0  0.48698  0.55653  0.78200  1.0000
  H   H473      1.0  0.27463  0.68225  0.16746  1.0000
  H   H474      1.0  0.32827  0.63392  0.21698  1.0000
  H   H475      1.0  0.38621  0.72270  0.40545  1.0000
  H   H476      1.0  0.38868  0.67943  0.57764  1.0000
  N   N38       1.0  0.29834  0.67164  0.18686  1.0000
  C   C484      1.0  0.43223  0.49731  0.09505  1.0000
  H   H477      1.0  0.47813  0.53567  0.82976  1.0000
  H   H478      1.0  0.47517  0.55460  0.61440  1.0000
  H   H479      1.0  0.34021  0.65908  0.18416  1.0000
  C   C485      1.0  0.43606  0.66651  0.59313  1.0000
  C   C486      1.0  0.40638  0.66497  0.61194  1.0000
  C   C487      1.0  0.37158  0.56016  0.37364  1.0000
  C   C488      1.0  0.33498  0.71538  0.14119  1.0000
  H   H480      1.0  0.49150  0.49604  0.11610  1.0000
  H   H481      1.0  0.42720  0.65223  0.64076  1.0000
  H   H482      1.0  0.35498  0.69395  0.50746  1.0000
  C   C489      1.0  0.30239  0.64414  0.21628  1.0000
  H   H483      1.0  0.35107  0.61461  0.35727  1.0000
  H   H484      1.0  0.44589  0.52149  0.15746  1.0000
  H   H485      1.0  0.29289  0.69460  0.15578  1.0000
  H   H486      1.0  0.32938  0.73531  0.37905  1.0000
  C   C490      1.0  0.48747  0.54837  0.61962  1.0000
  H   H487      1.0  0.45015  0.51004  0.24706  1.0000
  C   C491      1.0  0.33060  0.73545  0.40865  1.0000
  H   H488      1.0  0.39538  0.72587  0.46975  1.0000
  Fe  Fe84      1.0  0.40038  0.73689  0.66031  1.0000
  C   C492      1.0  0.49020  0.54789  0.48798  1.0000
  C   C493      1.0  0.33524  0.73421  0.48385  1.0000
  H   H489      1.0  0.48895  0.53436  0.93739  1.0000
  S   S168      1.0  0.32191  0.49574  0.28783  1.0000
  H   H490      1.0  0.48629  0.67756  0.62512  1.0000
  H   H491      1.0  0.48854  0.65926  0.77963  1.0000
  C   C494      1.0  0.36140  0.49356  0.14872  1.0000
  H   H492      1.0  0.48022  0.54059  0.50296  1.0000
  H   H493      1.0  0.48606  0.56175  0.90210  1.0000
  H   H494      1.0  0.43866  0.49236  0.23034  1.0000
  H   H495      1.0  0.49073  0.54385  0.45896  1.0000
  C   C495      1.0  0.31297  0.74020  0.10891  1.0000
  C   C496      1.0  0.47027  0.49059  0.19770  1.0000
  Fe  Fe85      1.0  0.32935  0.79791  0.96807  1.0000
  S   S169      1.0  0.34701  0.77474  0.96887  1.0000
  S   S170      1.0  0.33483  0.82264  0.99740  1.0000
  Fe  Fe86      1.0  0.30024  0.77759  0.93683  1.0000
  S   S171      1.0  0.27157  0.78415  0.92768  1.0000
  C   C497      1.0  0.28661  0.82385  0.95906  1.0000
  Fe  Fe87      1.0  0.33747  0.76944  0.91227  1.0000
  H   H496      1.0  0.32441  0.86192  0.89848  1.0000
  S   S172      1.0  0.30787  0.78334  0.99460  1.0000
  S   S173      1.0  0.32084  0.79370  0.91055  1.0000
  Fe  Fe88      1.0  0.42452  0.75334  0.60167  1.0000
  S   S174      1.0  0.43358  0.78028  0.58671  1.0000
  C   C498      1.0  0.41652  0.78284  0.71943  1.0000
  Fe  Fe89      1.0  0.36995  0.92008  0.97585  1.0000
  S   S175      1.0  0.35807  0.93058  0.02782  1.0000
  S   S176      1.0  0.36547  0.89453  0.94865  1.0000
  Fe  Fe90      1.0  0.39008  0.95252  0.96152  1.0000
  S   S177      1.0  0.37912  0.96510  0.01209  1.0000
  S   S178      1.0  0.40971  0.96898  0.93273  1.0000
  Fe  Fe91      1.0  0.38440  0.93983  0.03996  1.0000
  S   S179      1.0  0.39714  0.93588  0.09585  1.0000
  Fe  Fe92      1.0  0.35387  0.95527  0.99517  1.0000
  S   S180      1.0  0.32812  0.97013  0.00318  1.0000
  S   S181      1.0  0.39655  0.92762  0.99022  1.0000
  S   S182      1.0  0.36450  0.94439  0.94254  1.0000
  H   H497      1.0  0.33673  0.96286  0.07823  1.0000
  S   S183      1.0  0.46977  0.97575  0.28152  1.0000
  Fe  Fe93      1.0  0.47388  0.97823  0.21965  1.0000
  C   C499      1.0  0.47129  0.81364  0.56128  1.0000
  H   H498      1.0  0.30541  0.87548  0.90539  1.0000
  H   H499      1.0  0.47197  0.95609  0.10918  1.0000
  Fe  Fe94      1.0  0.47610  0.96590  0.77630  1.0000
  S   S184      1.0  0.45859  0.94612  0.80060  1.0000
  C   C500      1.0  0.41315  0.94778  0.11659  1.0000
  C   C501      1.0  0.41806  0.96361  0.10244  1.0000
  C   C502      1.0  0.43081  0.97254  0.11982  1.0000
  C   C503      1.0  0.43889  0.96583  0.15150  1.0000
  C   C504      1.0  0.43383  0.95009  0.16584  1.0000
  C   C505      1.0  0.42101  0.94120  0.14856  1.0000
  H   H500      1.0  0.41217  0.96890  0.07793  1.0000
  C   C506      1.0  0.34434  0.74366  0.42327  1.0000
  H   H501      1.0  0.43988  0.94472  0.19011  1.0000
  H   H502      1.0  0.41729  0.92902  0.15994  1.0000
  C   C507      1.0  0.42422  0.96141  0.89870  1.0000
  C   C508      1.0  0.42242  0.94571  0.88242  1.0000
  C   C509      1.0  0.43334  0.94091  0.85288  1.0000
  C   C510      1.0  0.44606  0.95175  0.83961  1.0000
  C   C511      1.0  0.44812  0.96721  0.85666  1.0000
  C   C512      1.0  0.43724  0.97200  0.88610  1.0000
  H   H503      1.0  0.41239  0.93747  0.89194  1.0000
  H   H504      1.0  0.43172  0.92889  0.83990  1.0000
  C   C513      1.0  0.45072  0.94517  0.06267  1.0000
  H   H505      1.0  0.38930  0.79210  0.00410  1.0000
  C   C514      1.0  0.35269  0.94270  0.12785  1.0000
  H   H506      1.0  0.29103  0.83329  0.01279  1.0000
  S   S185      1.0  0.39587  0.75012  0.60549  1.0000
  H   H507      1.0  0.47549  0.92667  0.45898  1.0000
  C   C515      1.0  0.40276  0.78564  0.66101  1.0000
  H   H508      1.0  0.47817  0.90139  0.37978  1.0000
  H   H509      1.0  0.29368  0.98438  0.00692  1.0000
  C   C516      1.0  0.48545  0.80321  0.55128  1.0000
  Fe  Fe95      1.0  0.32509  0.75986  0.99274  1.0000
  C   C517      1.0  0.45391  0.78860  0.57383  1.0000
  C   C518      1.0  0.45564  0.80638  0.57218  1.0000
  H   H510      1.0  0.46668  0.97946  0.01923  1.0000
  S   S186      1.0  0.35976  0.76296  0.87105  1.0000
  N   N39       1.0  0.30495  0.85138  0.93287  1.0000
  C   C519      1.0  0.46813  0.77818  0.56422  1.0000
  H   H511      1.0  0.44478  0.81462  0.57949  1.0000
  H   H512      1.0  0.48971  0.89242  0.72352  1.0000
  H   H513      1.0  0.46709  0.76451  0.56522  1.0000
  C   C520      1.0  0.34403  0.84227  0.98344  1.0000
  C   C521      1.0  0.34403  0.85553  0.00867  1.0000
  C   C522      1.0  0.35066  0.87151  0.99878  1.0000
  C   C523      1.0  0.35750  0.87445  0.96344  1.0000
  C   C524      1.0  0.35761  0.86112  0.93831  1.0000
  C   C525      1.0  0.35090  0.84516  0.94815  1.0000
  H   H514      1.0  0.33878  0.85350  0.03609  1.0000
  H   H515      1.0  0.35047  0.88158  0.01844  1.0000
  H   H516      1.0  0.36290  0.86320  0.91093  1.0000
  H   H517      1.0  0.35107  0.83513  0.92841  1.0000
  H   H518      1.0  0.32096  0.87247  0.94087  1.0000
  N   N40       1.0  0.35772  0.95956  0.11448  1.0000
  C   C526      1.0  0.35209  0.75407  0.79905  1.0000
  C   C527      1.0  0.37177  0.96666  0.12853  1.0000
  C   C528      1.0  0.48827  0.93147  0.45982  1.0000
  C   C529      1.0  0.25526  0.77866  0.89699  1.0000
  C   C530      1.0  0.38690  0.78690  0.67943  1.0000
  H   H519      1.0  0.33773  0.79498  0.10621  1.0000
  H   H520      1.0  0.36583  0.80960  0.03220  1.0000
  H   H521      1.0  0.48581  0.96352  0.07248  1.0000
  C   C531      1.0  0.38197  0.75374  0.81385  1.0000
  C   C532      1.0  0.48372  0.78545  0.55283  1.0000
  H   H522      1.0  0.42851  0.94634  0.98348  1.0000
  C   C533      1.0  0.47250  0.96423  0.08378  1.0000
  H   H523      1.0  0.30699  0.85789  0.98905  1.0000
  H   H524      1.0  0.35767  0.74871  0.47270  1.0000
  H   H525      1.0  0.36947  0.74773  0.05904  1.0000
  N   N41       1.0  0.35517  0.78875  0.06236  1.0000
  C   C534      1.0  0.40856  0.97998  0.82186  1.0000
  C   C535      1.0  0.43145  0.97272  0.73212  1.0000
  C   C536      1.0  0.38024  0.78628  0.02312  1.0000
  C   C537      1.0  0.41765  0.78358  0.68117  1.0000
  H   H526      1.0  0.40087  0.97286  0.84167  1.0000
  H   H527      1.0  0.39997  0.74719  0.76970  1.0000
  C   C538      1.0  0.35255  0.98454  0.07646  1.0000
  C   C539      1.0  0.43750  0.94984  0.00393  1.0000
  C   C540      1.0  0.28951  0.82631  0.92143  1.0000
  C   C541      1.0  0.36922  0.76140  0.05406  1.0000
  C   C542      1.0  0.29881  0.84020  0.90873  1.0000
  H   H528      1.0  0.39120  0.76089  0.01733  1.0000
  H   H529      1.0  0.34654  0.76570  0.08727  1.0000
  C   C543      1.0  0.44750  0.96394  0.99758  1.0000
  H   H530      1.0  0.43001  0.78236  0.66703  1.0000
  H   H531      1.0  0.32925  0.79723  0.06048  1.0000
  C   C544      1.0  0.40045  0.78443  0.73702  1.0000
  H   H532      1.0  0.36958  0.78464  0.76490  1.0000
  S   S187      1.0  0.37908  0.74310  0.70398  1.0000
  H   H533      1.0  0.30436  0.74975  0.09688  1.0000
  H   H534      1.0  0.48125  0.91139  0.77208  1.0000
  H   H535      1.0  0.42061  0.96867  0.71576  1.0000
  S   S188      1.0  0.33161  0.74093  0.04134  1.0000
  S   S189      1.0  0.45572  0.97729  0.17049  1.0000
  H   H536      1.0  0.35963  0.78075  0.72255  1.0000
  C   C545      1.0  0.49128  0.92035  0.76330  1.0000
  H   H537      1.0  0.39967  0.78383  0.76678  1.0000
  H   H538      1.0  0.36417  0.93427  0.13298  1.0000
  C   C546      1.0  0.34069  0.79893  0.07733  1.0000
  H   H539      1.0  0.33874  0.75592  0.80693  1.0000
  C   C547      1.0  0.35675  0.74946  0.76273  1.0000
  H   H540      1.0  0.48465  0.94797  0.41198  1.0000
  C   C548      1.0  0.29284  0.83534  0.98345  1.0000
  H   H541      1.0  0.44620  0.97138  0.97220  1.0000
  H   H542      1.0  0.47273  0.85905  0.44348  1.0000
  C   C549      1.0  0.25797  0.76651  0.86991  1.0000
  C   C550      1.0  0.49092  0.83796  0.43749  1.0000
  C   C551      1.0  0.49042  0.90731  0.37794  1.0000
  H   H543      1.0  0.34338  0.81270  0.07685  1.0000
  C   C552      1.0  0.45899  0.96842  0.02424  1.0000
  C   C553      1.0  0.36916  0.78870  0.73545  1.0000
  H   H544      1.0  0.43093  0.92968  0.04233  1.0000
  C   C554      1.0  0.30193  0.84920  0.96980  1.0000
  H   H545      1.0  0.48199  0.92642  0.33761  1.0000
  H   H546      1.0  0.48200  0.91396  0.64864  1.0000
  H   H547      1.0  0.27970  0.81293  0.96928  1.0000
  S   S190      1.0  0.42880  0.74151  0.65793  1.0000
  S   S191      1.0  0.31642  0.75299  0.93602  1.0000
  C   C555      1.0  0.31433  0.86605  0.91871  1.0000
  H   H548      1.0  0.40351  0.78607  0.63124  1.0000
  H   H549      1.0  0.36479  0.80225  0.73367  1.0000
  H   H550      1.0  0.46929  0.97746  0.09233  1.0000
  N   N42       1.0  0.38591  0.78637  0.71696  1.0000
  H   H551      1.0  0.37949  0.95967  0.14863  1.0000
  H   H552      1.0  0.27042  0.76020  0.86675  1.0000
  H   H553      1.0  0.30119  0.84191  0.87946  1.0000
  C   C556      1.0  0.31684  0.98505  0.97370  1.0000
  H   H554      1.0  0.42802  0.78096  0.73531  1.0000
  H   H555      1.0  0.28479  0.81729  0.90236  1.0000
  H   H556      1.0  0.45799  0.97556  0.84698  1.0000
  C   C557      1.0  0.36468  0.75636  0.82498  1.0000
  S   S192      1.0  0.47743  0.96833  0.71497  1.0000
  C   C558      1.0  0.38132  0.76879  0.03054  1.0000
  H   H557      1.0  0.45155  0.93796  0.08840  1.0000
  C   C559      1.0  0.36693  0.79612  0.03916  1.0000
  C   C560      1.0  0.43902  0.94041  0.03670  1.0000
  H   H558      1.0  0.37536  0.78813  0.66353  1.0000
  H   H559      1.0  0.41236  0.95911  0.78547  1.0000
  H   H560      1.0  0.35360  0.74973  0.40514  1.0000
  N   N43       1.0  0.46045  0.95908  0.05630  1.0000
  C   C561      1.0  0.47514  0.84549  0.44800  1.0000
  C   C562      1.0  0.35617  0.77164  0.06985  1.0000
  H   H561      1.0  0.24679  0.75300  0.82611  1.0000
  H   H562      1.0  0.47234  0.82730  0.56021  1.0000
  H   H563      1.0  0.43458  0.98470  0.10843  1.0000
  C   C563      1.0  0.38663  0.74908  0.77755  1.0000
  H   H564      1.0  0.34499  0.94387  0.15369  1.0000
  H   H565      1.0  0.49117  0.93949  0.67960  1.0000
  H   H566      1.0  0.43965  0.96139  0.73970  1.0000
  H   H567      1.0  0.48527  0.93065  0.74603  1.0000
  N   N44       1.0  0.42502  0.98112  0.76538  1.0000
  H   H568      1.0  0.48076  0.91601  0.52405  1.0000
  H   H569      1.0  0.34683  0.74790  0.74305  1.0000
  H   H570      1.0  0.45694  0.81042  0.48579  1.0000
  C   C564      1.0  0.34797  0.96839  0.08923  1.0000
  C   C565      1.0  0.46277  0.83555  0.46523  1.0000
  H   H571      1.0  0.45064  0.84131  0.47437  1.0000
  C   C566      1.0  0.37681  0.98271  0.11616  1.0000
  C   C567      1.0  0.48214  0.81109  0.46046  1.0000
  C   C568      1.0  0.46623  0.81821  0.47139  1.0000
  H   H572      1.0  0.43870  0.98417  0.89858  1.0000
  C   C569      1.0  0.41505  0.97230  0.79001  1.0000
  H   H573      1.0  0.39187  0.75532  0.83355  1.0000
  H   H574      1.0  0.48506  0.79778  0.46700  1.0000
  H   H575      1.0  0.34511  0.93631  0.10719  1.0000
  H   H576      1.0  0.43927  0.98126  0.71432  1.0000
  C   C570      1.0  0.37405  0.74709  0.75146  1.0000
  C   C571      1.0  0.49255  0.92149  0.35385  1.0000
  C   C572      1.0  0.34665  0.74302  0.46112  1.0000
  C   C573      1.0  0.24450  0.76246  0.84684  1.0000
  H   H577      1.0  0.38831  0.98800  0.12654  1.0000
  H   H578      1.0  0.33752  0.98882  0.93477  1.0000
  C   C574      1.0  0.29979  0.99003  0.98287  1.0000
  H   H579      1.0  0.61800  0.17816  0.61421  1.0000
  C   C575      1.0  0.53989  0.00938  0.87878  1.0000
  C   C576      1.0  0.60291  0.22214  0.82017  1.0000
  Fe  Fe96      1.0  0.61106  0.04339  0.97462  1.0000
  S   S193      1.0  0.61747  0.02501  0.02182  1.0000
  S   S194      1.0  0.60875  0.07271  0.97034  1.0000
  Fe  Fe97      1.0  0.60004  0.01451  0.92667  1.0000
  S   S195      1.0  0.51314  0.00708  0.83230  1.0000
  H   H580      1.0  0.65773  0.20658  0.83932  1.0000
  Fe  Fe98      1.0  0.59286  0.01225  0.00977  1.0000
  C   C577      1.0  0.49650  0.16117  0.54014  1.0000
  Fe  Fe99      1.0  0.62983  0.00808  0.97815  1.0000
  C   C578      1.0  0.74262  0.17137  0.87139  1.0000
  S   S196      1.0  0.58561  0.03153  0.96564  1.0000
  S   S197      1.0  0.62503  0.02733  0.93239  1.0000
  C   C579      1.0  0.62746  0.23268  0.65034  1.0000
  H   H581      1.0  0.51351  0.21505  0.71808  1.0000
  C   C580      1.0  0.69026  0.19530  0.82977  1.0000
  Fe  Fe100     1.0  0.64307  0.19720  0.91738  1.0000
  S   S198      1.0  0.66418  0.17777  0.90437  1.0000
  S   S199      1.0  0.62358  0.20982  0.87673  1.0000
  Fe  Fe101     1.0  0.65397  0.19952  0.00001  1.0000
  S   S200      1.0  0.67542  0.17996  0.99125  1.0000
  S   S201      1.0  0.64596  0.21112  0.05678  1.0000
  Fe  Fe102     1.0  0.68121  0.19370  0.93758  1.0000
  S   S202      1.0  0.70751  0.20400  0.92083  1.0000
  Fe  Fe103     1.0  0.65686  0.16515  0.95884  1.0000
  S   S203      1.0  0.65850  0.13603  0.96836  1.0000
  S   S204      1.0  0.66053  0.21405  0.94762  1.0000
  S   S205      1.0  0.63492  0.18380  0.97063  1.0000
  Fe  Fe104     1.0  0.55167  0.21252  0.61275  1.0000
  S   S206      1.0  0.53727  0.18758  0.60746  1.0000
  Fe  Fe105     1.0  0.57820  0.22592  0.66664  1.0000
  S   S207      1.0  0.59806  0.21514  0.70879  1.0000
  S   S208      1.0  0.54937  0.22445  0.66847  1.0000
  S   S209      1.0  0.58060  0.21266  0.61227  1.0000
  N   N45       1.0  0.49502  0.04959  0.58291  1.0000
  C   C581      1.0  0.59698  0.22357  0.78368  1.0000
  C   C582      1.0  0.62317  0.20329  0.63247  1.0000
  C   C583      1.0  0.49785  0.05649  0.30716  1.0000
  H   H582      1.0  0.70088  0.00955  0.94428  1.0000
  C   C584      1.0  0.56504  0.00158  0.82569  1.0000
  C   C585      1.0  0.53949  0.99239  0.13337  1.0000
  H   H583      1.0  0.61485  0.23938  0.65494  1.0000
  C   C586      1.0  0.61661  0.21084  0.82984  1.0000
  C   C587      1.0  0.62433  0.20100  0.80202  1.0000
  C   C588      1.0  0.61850  0.20254  0.76547  1.0000
  C   C589      1.0  0.60473  0.21378  0.75587  1.0000
  H   H584      1.0  0.49964  0.14081  0.58020  1.0000
  C   C590      1.0  0.62060  0.19117  0.60594  1.0000
  H   H585      1.0  0.63465  0.19201  0.80867  1.0000
  H   H586      1.0  0.62458  0.19475  0.74454  1.0000
  C   C591      1.0  0.50815  0.21946  0.69221  1.0000
  C   C592      1.0  0.72756  0.17787  0.88897  1.0000
  C   C593      1.0  0.72630  0.19488  0.89922  1.0000
  C   C594      1.0  0.62073  0.19611  0.56888  1.0000
  H   H587      1.0  0.71699  0.16967  0.89476  1.0000
  H   H588      1.0  0.70940  0.22114  0.84563  1.0000
  C   C595      1.0  0.51453  0.18567  0.54918  1.0000
  C   C596      1.0  0.52172  0.17775  0.58036  1.0000
  C   C597      1.0  0.51614  0.16152  0.59122  1.0000
  C   C598      1.0  0.50865  0.03926  0.25873  1.0000
  H   H589      1.0  0.51866  0.19809  0.54023  1.0000
  H   H590      1.0  0.52155  0.15520  0.61523  1.0000
  N   N46       1.0  0.62589  0.21985  0.62233  1.0000
  H   H591      1.0  0.68029  0.18844  0.81555  1.0000
  C   C599      1.0  0.66700  0.21613  0.84406  1.0000
  C   C600      1.0  0.56993  0.00602  0.86091  1.0000
  C   C601      1.0  0.55729  0.00960  0.88766  1.0000
  C   C602      1.0  0.52357  0.03534  0.27808  1.0000
  C   C603      1.0  0.53499  0.00523  0.84339  1.0000
  C   C604      1.0  0.54763  0.00104  0.81701  1.0000
  H   H592      1.0  0.50159  0.07557  0.58592  1.0000
  H   H593      1.0  0.56089  0.01303  0.91487  1.0000
  H   H594      1.0  0.53688  0.03892  0.32817  1.0000
  H   H595      1.0  0.68766  0.23900  0.13538  1.0000
  C   C605      1.0  0.62302  0.09001  0.96852  1.0000
  C   C606      1.0  0.61635  0.10663  0.96134  1.0000
  C   C607      1.0  0.62699  0.12079  0.96020  1.0000
  C   C608      1.0  0.64451  0.11858  0.96669  1.0000
  C   C609      1.0  0.65118  0.10196  0.97386  1.0000
  C   C610      1.0  0.64058  0.08778  0.97460  1.0000
  H   H596      1.0  0.60281  0.10859  0.95656  1.0000
  H   H597      1.0  0.62159  0.13342  0.95458  1.0000
  H   H598      1.0  0.66469  0.10003  0.97896  1.0000
  H   H599      1.0  0.64598  0.07516  0.98023  1.0000
  H   H600      1.0  0.49962  0.03301  0.62918  1.0000
  C   C611      1.0  0.54256  0.00584  0.15637  1.0000
  C   C612      1.0  0.68557  0.99997  0.90174  1.0000
  C   C613      1.0  0.56439  0.01568  0.11173  1.0000
  C   C614      1.0  0.56125  0.00225  0.08870  1.0000
  N   N47       1.0  0.50343  0.23624  0.68670  1.0000
  C   C615      1.0  0.50612  0.06270  0.59567  1.0000
  H   H601      1.0  0.62973  0.00484  0.12035  1.0000
  S   S210      1.0  0.50557  0.99789  0.72423  1.0000
  H   H602      1.0  0.55765  0.02788  0.16281  1.0000
  H   H603      1.0  0.51117  0.19469  0.66790  1.0000
  H   H604      1.0  0.64747  0.23503  0.85882  1.0000
  C   C616      1.0  0.62606  0.22478  0.58607  1.0000
  H   H605      1.0  0.64484  0.99380  0.06447  1.0000
  H   H606      1.0  0.69387  0.18785  0.85491  1.0000
  N   N48       1.0  0.64914  0.16248  0.07815  1.0000
  C   C617      1.0  0.65440  0.14631  0.06921  1.0000
  C   C618      1.0  0.63300  0.16850  0.06993  1.0000
  C   C619      1.0  0.64314  0.13545  0.05322  1.0000
  C   C620      1.0  0.62152  0.15810  0.05319  1.0000
  C   C621      1.0  0.62664  0.14143  0.04501  1.0000
  C   C622      1.0  0.66114  0.17368  0.09488  1.0000
  H   H607      1.0  0.66744  0.14176  0.07395  1.0000
  H   H608      1.0  0.62895  0.18148  0.07595  1.0000
  H   H609      1.0  0.64743  0.12271  0.04565  1.0000
  H   H610      1.0  0.60887  0.16303  0.04606  1.0000
  H   H611      1.0  0.61800  0.13326  0.03152  1.0000
  H   H612      1.0  0.67039  0.16637  0.11238  1.0000
  H   H613      1.0  0.66830  0.18074  0.07306  1.0000
  H   H614      1.0  0.65428  0.18317  0.11252  1.0000
  N   N49       1.0  0.58150  0.05497  0.87286  1.0000
  C   C623      1.0  0.57242  0.06193  0.90169  1.0000
  C   C624      1.0  0.57321  0.04758  0.84514  1.0000
  C   C625      1.0  0.55458  0.06103  0.90388  1.0000
  C   C626      1.0  0.55538  0.04671  0.84615  1.0000
  C   C627      1.0  0.54605  0.05330  0.87595  1.0000
  C   C628      1.0  0.60018  0.05580  0.87084  1.0000
  H   H615      1.0  0.57898  0.06790  0.92361  1.0000
  H   H616      1.0  0.58044  0.04172  0.82271  1.0000
  H   H617      1.0  0.54749  0.06608  0.92735  1.0000
  H   H618      1.0  0.54890  0.04027  0.82478  1.0000
  H   H619      1.0  0.53227  0.05209  0.87760  1.0000
  H   H620      1.0  0.60605  0.04326  0.86317  1.0000
  H   H621      1.0  0.60400  0.06563  0.85019  1.0000
  H   H622      1.0  0.60551  0.05901  0.89769  1.0000
  H   H623      1.0  0.57392  0.02474  0.10367  1.0000
  H   H624      1.0  0.58642  0.23230  0.77713  1.0000
  C   C629      1.0  0.51262  0.05285  0.32726  1.0000
  Fe  Fe106     1.0  0.57836  0.23858  0.58437  1.0000
  H   H625      1.0  0.61831  0.18696  0.54804  1.0000
  N   N50       1.0  0.49590  0.04946  0.27365  1.0000
  H   H626      1.0  0.51945  0.06023  0.58555  1.0000
  C   C630      1.0  0.60263  0.23611  0.47252  1.0000
  H   H627      1.0  0.60687  0.22558  0.41867  1.0000
  H   H628      1.0  0.49668  0.18370  0.50520  1.0000
  H   H629      1.0  0.62251  0.19944  0.66126  1.0000
  C   C631      1.0  0.49328  0.03485  0.60315  1.0000
  N   N51       1.0  0.68416  0.21243  0.83990  1.0000
  H   H630      1.0  0.62818  0.22104  0.12388  1.0000
  C   C632      1.0  0.62399  0.99526  0.10429  1.0000
  H   H631      1.0  0.67916  0.22450  0.07910  1.0000
  S   S211      1.0  0.53128  0.00873  0.19915  1.0000
  H   H632      1.0  0.62771  0.23800  0.57803  1.0000
  H   H633      1.0  0.70172  0.19583  0.81122  1.0000
  H   H634      1.0  0.53018  0.01264  0.89932  1.0000
  C   C633      1.0  0.62352  0.21301  0.55882  1.0000
  C   C634      1.0  0.66285  0.23831  0.16233  1.0000
  C   C635      1.0  0.67464  0.23507  0.13314  1.0000
  C   C636      1.0  0.55512  0.01742  0.14532  1.0000
  C   C637      1.0  0.50201  0.17745  0.52934  1.0000
  H   H635      1.0  0.63675  0.23531  0.18040  1.0000
  H   H636      1.0  0.50022  0.20482  0.60772  1.0000
  H   H637      1.0  0.59303  0.22714  0.48075  1.0000
  C   C638      1.0  0.50366  0.15329  0.57135  1.0000
  S   S212      1.0  0.59182  0.00850  0.86947  1.0000
  H   H638      1.0  0.51381  0.05804  0.35434  1.0000
  H   H639      1.0  0.63145  0.22683  0.67704  1.0000
  H   H640      1.0  0.62323  0.21714  0.53018  1.0000
  C   C639      1.0  0.52549  0.04210  0.31266  1.0000
  S   S213      1.0  0.60581  0.99428  0.96942  1.0000
  C   C640      1.0  0.65301  0.22167  0.09700  1.0000
  S   S214      1.0  0.54955  0.23760  0.58150  1.0000
  H   H641      1.0  0.53347  0.02692  0.26639  1.0000
  C   C641      1.0  0.64122  0.22491  0.12620  1.0000
  H   H642      1.0  0.67454  0.00828  0.90808  1.0000
  C   C642      1.0  0.66983  0.22680  0.10096  1.0000
  H   H643      1.0  0.49893  0.03919  0.42419  1.0000
  C   C643      1.0  0.50686  0.20789  0.66402  1.0000
  S   S215      1.0  0.57280  0.99893  0.04642  1.0000
  C   C644      1.0  0.69579  0.22434  0.84733  1.0000
  H   H644      1.0  0.59674  0.22983  0.84117  1.0000
  C   C645      1.0  0.64606  0.23307  0.15847  1.0000
  H   H645      1.0  0.50727  0.03388  0.23188  1.0000
  Fe  Fe107     1.0  0.50218  0.99299  0.78526  1.0000
  C   C646      1.0  0.70035  0.00063  0.92220  1.0000
  S   S216      1.0  0.65589  0.99412  0.98666  1.0000
  S   S217      1.0  0.50747  0.99298  0.28868  1.0000
  H   H646      1.0  0.50582  0.06311  0.62615  1.0000
  H   H647      1.0  0.54399  0.99792  0.78961  1.0000
  C   C647      1.0  0.66110  0.23220  0.85531  1.0000
  H   H648      1.0  0.57475  0.99879  0.80485  1.0000
  Fe  Fe108     1.0  0.50922  0.99417  0.22674  1.0000
  C   C648      1.0  0.50083  0.21360  0.63003  1.0000
  C   C649      1.0  0.49611  0.23072  0.62458  1.0000
  C   C650      1.0  0.61054  0.23525  0.43720  1.0000
  H   H649      1.0  0.73949  0.21843  0.89928  1.0000
  H   H650      1.0  0.60093  0.99435  0.13800  1.0000
  C   C651      1.0  0.74030  0.20525  0.89154  1.0000
  H   H651      1.0  0.49351  0.02160  0.37018  1.0000
  H   H652      1.0  0.74276  0.23125  0.32013  1.0000
  C   C652      1.0  0.54881  0.99060  0.09990  1.0000
  H   H653      1.0  0.52578  0.45970  0.18121  1.0000
  H   H654      1.0  0.67246  0.41646  0.30230  1.0000
  H   H655      1.0  0.50022  0.42586  0.50335  1.0000
  S   S218      1.0  0.52676  0.27022  0.64103  1.0000
  C   C653      1.0  0.50611  0.24835  0.71571  1.0000
  H   H656      1.0  0.63707  0.26823  0.44160  1.0000
  Fe  Fe109     1.0  0.64956  0.26101  0.34067  1.0000
  S   S219      1.0  0.65995  0.28653  0.35267  1.0000
  H   H657      1.0  0.67937  0.28416  0.17961  1.0000
  Fe  Fe110     1.0  0.66373  0.26144  0.25934  1.0000
  S   S220      1.0  0.67481  0.28721  0.26724  1.0000
  H   H658      1.0  0.60616  0.31581  0.44561  1.0000
  Fe  Fe111     1.0  0.68399  0.27713  0.32237  1.0000
  S   S221      1.0  0.71094  0.28571  0.33598  1.0000
  Fe  Fe112     1.0  0.65039  0.29488  0.29702  1.0000
  S   S222      1.0  0.63247  0.31831  0.28771  1.0000
  S   S223      1.0  0.64498  0.48376  0.27733  1.0000
  S   S224      1.0  0.63858  0.26981  0.28613  1.0000
  Fe  Fe113     1.0  0.59708  0.44277  0.31448  1.0000
  S   S225      1.0  0.59845  0.46528  0.27525  1.0000
  S   S226      1.0  0.58059  0.43974  0.36611  1.0000
  Fe  Fe114     1.0  0.62476  0.42171  0.27438  1.0000
  S   S227      1.0  0.62810  0.44287  0.23218  1.0000
  S   S228      1.0  0.64383  0.39867  0.27398  1.0000
  Fe  Fe115     1.0  0.62714  0.46104  0.27896  1.0000
  H   H659      1.0  0.53855  0.43731  0.98850  1.0000
  Fe  Fe116     1.0  0.59927  0.44568  0.23110  1.0000
  S   S229      1.0  0.58861  0.44919  0.17290  1.0000
  S   S230      1.0  0.62564  0.43986  0.32118  1.0000
  S   S231      1.0  0.59609  0.42321  0.27029  1.0000
  Fe  Fe117     1.0  0.50263  0.47221  0.05133  1.0000
  S   S232      1.0  0.51426  0.46656  0.10797  1.0000
  S   S233      1.0  0.51038  0.46616  0.99313  1.0000
  H   H660      1.0  0.67506  0.30633  0.18785  1.0000
  S   S234      1.0  0.59759  0.25038  0.54211  1.0000
  H   H661      1.0  0.60365  0.46896  0.37219  1.0000
  C   C654      1.0  0.56624  0.45514  0.38547  1.0000
  C   C655      1.0  0.56542  0.47206  0.37268  1.0000
  H   H662      1.0  0.74176  0.30164  0.35519  1.0000
  C   C656      1.0  0.54399  0.47915  0.42043  1.0000
  C   C657      1.0  0.54458  0.46218  0.43271  1.0000
  C   C658      1.0  0.55577  0.45028  0.41548  1.0000
  H   H663      1.0  0.57324  0.47591  0.34930  1.0000
  C   C659      1.0  0.50077  0.31203  0.71332  1.0000
  C   C660      1.0  0.53757  0.42321  0.09705  1.0000
  C   C661      1.0  0.59460  0.27835  0.41179  1.0000
  C   C662      1.0  0.56790  0.45484  0.15579  1.0000
  C   C663      1.0  0.55320  0.45552  0.17845  1.0000
  C   C664      1.0  0.53701  0.45940  0.16333  1.0000
  C   C665      1.0  0.53524  0.46279  0.12543  1.0000
  C   C666      1.0  0.54994  0.46229  0.10277  1.0000
  C   C667      1.0  0.56611  0.45823  0.11786  1.0000
  H   H664      1.0  0.55431  0.45291  0.20761  1.0000
  H   H665      1.0  0.60574  0.28097  0.18774  1.0000
  H   H666      1.0  0.54884  0.46489  0.07363  1.0000
  H   H667      1.0  0.57737  0.45779  0.10005  1.0000
  C   C668      1.0  0.63602  0.34062  0.28495  1.0000
  C   C669      1.0  0.62181  0.35210  0.28247  1.0000
  C   C670      1.0  0.62390  0.36985  0.27962  1.0000
  C   C671      1.0  0.64030  0.37640  0.27887  1.0000
  C   C672      1.0  0.65451  0.36489  0.28144  1.0000
  C   C673      1.0  0.65241  0.34714  0.28464  1.0000
  H   H668      1.0  0.60905  0.34728  0.28259  1.0000
  H   H669      1.0  0.61283  0.37847  0.27759  1.0000
  H   H670      1.0  0.66726  0.36975  0.28092  1.0000
  H   H671      1.0  0.66350  0.33855  0.28657  1.0000
  C   C674      1.0  0.53135  0.42573  0.99562  1.0000
  C   C675      1.0  0.62300  0.24683  0.42544  1.0000
  C   C676      1.0  0.72797  0.27872  0.36523  1.0000
  C   C677      1.0  0.72854  0.26270  0.38282  1.0000
  C   C678      1.0  0.68618  0.43909  0.31254  1.0000
  H   H672      1.0  0.63703  0.24214  0.64172  1.0000
  H   H673      1.0  0.71787  0.25448  0.38063  1.0000
  C   C679      1.0  0.51736  0.28646  0.66945  1.0000
  C   C680      1.0  0.52364  0.29005  0.70392  1.0000
  C   C681      1.0  0.51539  0.30271  0.72563  1.0000
  H   H674      1.0  0.53490  0.28317  0.71385  1.0000
  H   H675      1.0  0.52044  0.30539  0.75215  1.0000
  H   H676      1.0  0.54808  0.42306  0.11603  1.0000
  C   C682      1.0  0.62754  0.25923  0.44995  1.0000
  H   H677      1.0  0.50575  0.42468  0.72781  1.0000
  H   H678      1.0  0.62453  0.46912  0.42228  1.0000
  H   H679      1.0  0.53904  0.41428  0.98725  1.0000
  C   C683      1.0  0.59594  0.29142  0.43654  1.0000
  H   H680      1.0  0.53666  0.45827  0.45591  1.0000
  Fe  Fe118     1.0  0.54859  0.24969  0.63729  1.0000
  H   H681      1.0  0.62468  0.26503  0.14356  1.0000
  H   H682      1.0  0.61543  0.32936  0.35921  1.0000
  H   H683      1.0  0.51808  0.42384  0.13975  1.0000
  H   H684      1.0  0.69807  0.46331  0.31492  1.0000
  H   H685      1.0  0.66008  0.47224  0.34753  1.0000
  H   H686      1.0  0.49414  0.42549  0.09592  1.0000
  S   S235      1.0  0.50168  0.44047  0.57957  1.0000
  H   H687      1.0  0.66383  0.44653  0.19190  1.0000
  H   H688      1.0  0.69034  0.43472  0.33946  1.0000
  Fe  Fe119     1.0  0.49490  0.46316  0.54236  1.0000
  H   H689      1.0  0.55391  0.42423  0.04902  1.0000
  H   H690      1.0  0.67467  0.29876  0.14171  1.0000
  H   H691      1.0  0.65505  0.27218  0.13620  1.0000
  C   C684      1.0  0.66629  0.48364  0.33800  1.0000
  C   C685      1.0  0.61166  0.29412  0.36775  1.0000
  S   S236      1.0  0.67427  0.25093  0.31327  1.0000
  C   C686      1.0  0.60707  0.24857  0.49692  1.0000
  H   H692      1.0  0.63529  0.31825  0.37002  1.0000
  C   C687      1.0  0.60255  0.27965  0.37722  1.0000
  H   H693      1.0  0.58791  0.26695  0.41985  1.0000
  H   H694      1.0  0.49768  0.29310  0.63063  1.0000
  H   H695      1.0  0.72813  0.25477  0.28477  1.0000
  Fe  Fe120     1.0  0.50916  0.48629  0.48100  1.0000
  C   C688      1.0  0.54077  0.42401  0.05913  1.0000
  C   C689      1.0  0.74206  0.28919  0.36849  1.0000
  C   C690      1.0  0.51094  0.42520  0.04807  1.0000
  C   C691      1.0  0.50729  0.42461  0.08583  1.0000
  C   C692      1.0  0.52071  0.42361  0.11041  1.0000
  H   H696      1.0  0.60210  0.26926  0.35830  1.0000
  S   S237      1.0  0.49618  0.46146  0.48090  1.0000
  N   N52       1.0  0.61291  0.30691  0.39213  1.0000
  H   H697      1.0  0.65824  0.46652  0.21276  1.0000
  C   C693      1.0  0.50269  0.29569  0.65722  1.0000
  H   H698      1.0  0.61789  0.29499  0.34090  1.0000
  H   H699      1.0  0.74302  0.28155  0.27194  1.0000
  H   H700      1.0  0.55635  0.43723  0.42555  1.0000
  H   H701      1.0  0.68753  0.47341  0.25450  1.0000
  C   C694      1.0  0.67287  0.24438  0.86317  1.0000
  H   H702      1.0  0.50041  0.42616  0.02923  1.0000
  H   H703      1.0  0.62415  0.33056  0.40437  1.0000
  C   C695      1.0  0.60516  0.30574  0.42615  1.0000
  H   H704      1.0  0.49422  0.25532  0.64863  1.0000
  S   S238      1.0  0.57730  0.25200  0.63871  1.0000
  H   H705      1.0  0.61766  0.30406  0.22363  1.0000
  N   N53       1.0  0.67503  0.45048  0.24398  1.0000
  C   C696      1.0  0.67073  0.43475  0.25727  1.0000
  C   C697      1.0  0.68467  0.46068  0.26439  1.0000
  C   C698      1.0  0.67618  0.42885  0.29174  1.0000
  C   C699      1.0  0.69057  0.45508  0.29873  1.0000
  C   C700      1.0  0.55446  0.48406  0.39040  1.0000
  C   C701      1.0  0.66880  0.45687  0.20839  1.0000
  H   H706      1.0  0.66290  0.42667  0.24146  1.0000
  H   H707      1.0  0.67923  0.46286  0.19209  1.0000
  H   H708      1.0  0.50358  0.41035  0.62526  1.0000
  C   C702      1.0  0.49744  0.24192  0.65343  1.0000
  C   C703      1.0  0.62416  0.47940  0.40185  1.0000
  H   H709      1.0  0.51951  0.42636  0.97922  1.0000
  S   S239      1.0  0.66961  0.24957  0.20187  1.0000
  C   C704      1.0  0.62236  0.32202  0.38111  1.0000
  N   N54       1.0  0.65329  0.29195  0.17515  1.0000
  C   C705      1.0  0.64680  0.27940  0.15496  1.0000
  C   C706      1.0  0.64299  0.30082  0.19941  1.0000
  C   C707      1.0  0.62962  0.27526  0.15911  1.0000
  C   C708      1.0  0.62572  0.29708  0.20409  1.0000
  C   C709      1.0  0.61905  0.28415  0.18394  1.0000
  C   C710      1.0  0.67149  0.29555  0.17087  1.0000
  H   H710      1.0  0.66842  0.25672  0.87290  1.0000
  C   C711      1.0  0.61239  0.47931  0.37373  1.0000
  S   S240      1.0  0.63188  0.24549  0.37963  1.0000
  N   N55       1.0  0.52753  0.42491  0.03520  1.0000
  H   H711      1.0  0.69965  0.24961  0.86629  1.0000
  H   H712      1.0  0.64807  0.31075  0.21563  1.0000
  C   C712      1.0  0.61964  0.26006  0.48531  1.0000
  H   H713      1.0  0.59016  0.29025  0.46384  1.0000
  H   H714      1.0  0.62330  0.26973  0.50381  1.0000
  H   H715      1.0  0.51969  0.25205  0.71480  1.0000
  H   H716      1.0  0.50299  0.24276  0.74323  1.0000
  H   H717      1.0  0.50047  0.40523  0.48260  1.0000
  C   C713      1.0  0.49446  0.30838  0.67888  1.0000
  H   H718      1.0  0.49797  0.26015  0.71203  1.0000
  H   H719      1.0  0.50143  0.40735  0.53199  1.0000
  C   C714      1.0  0.74120  0.25598  0.29349  1.0000
  S   S241      1.0  0.51030  0.48678  0.54254  1.0000
  C   C715      1.0  0.49566  0.41269  0.50637  1.0000
  H   H720      1.0  0.49954  0.44489  0.67557  1.0000
  H   H721      1.0  0.68320  0.48401  0.38405  1.0000
  C   C716      1.0  0.69034  0.24044  0.85925  1.0000
  Fe  Fe121     1.0  0.67136  0.63635  0.71290  1.0000
  S   S242      1.0  0.69719  0.62276  0.71890  1.0000
  S   S243      1.0  0.64824  0.61907  0.71822  1.0000
  Fe  Fe122     1.0  0.68832  0.67005  0.69234  1.0000
  S   S244      1.0  0.71500  0.65838  0.69705  1.0000
  S   S245      1.0  0.67937  0.69695  0.67280  1.0000
  Fe  Fe123     1.0  0.70503  0.63623  0.66612  1.0000
  S   S246      1.0  0.72178  0.62429  0.61916  1.0000
  Fe  Fe124     1.0  0.70528  0.64562  0.74989  1.0000
  C   C717      1.0  0.52642  0.55122  0.55242  1.0000
  S   S247      1.0  0.67895  0.64865  0.65878  1.0000
  S   S248      1.0  0.67887  0.65844  0.74657  1.0000
  H   H722      1.0  0.71506  0.70794  0.66668  1.0000
  Fe  Fe125     1.0  0.72735  0.56700  0.42610  1.0000
  S   S249      1.0  0.71262  0.58118  0.47305  1.0000
  Fe  Fe126     1.0  0.72199  0.53582  0.37735  1.0000
  S   S250      1.0  0.73166  0.53876  0.43477  1.0000
  S   S251      1.0  0.70393  0.51319  0.37479  1.0000
  S   S252      1.0  0.51413  0.50568  0.93135  1.0000
  H   H723      1.0  0.65938  0.58819  0.79227  1.0000
  H   H724      1.0  0.72568  0.59065  0.25387  1.0000
  S   S253      1.0  0.71618  0.56410  0.36961  1.0000
  Fe  Fe127     1.0  0.52591  0.58133  0.70841  1.0000
  H   H725      1.0  0.54154  0.51797  0.50172  1.0000
  S   S254      1.0  0.53111  0.55855  0.67226  1.0000
  Fe  Fe128     1.0  0.54451  0.60885  0.74674  1.0000
  S   S255      1.0  0.52074  0.61543  0.78090  1.0000
  S   S256      1.0  0.56731  0.62623  0.75343  1.0000
  Fe  Fe129     1.0  0.51719  0.58729  0.78874  1.0000
  C   C718      1.0  0.49914  0.55619  0.64203  1.0000
  Fe  Fe130     1.0  0.50598  0.61425  0.72886  1.0000
  C   C719      1.0  0.49825  0.53742  0.91601  1.0000
  S   S257      1.0  0.54204  0.58078  0.75907  1.0000
  S   S258      1.0  0.52982  0.60907  0.69401  1.0000
  C   C720      1.0  0.71705  0.68416  0.58523  1.0000
  H   H726      1.0  0.67342  0.59831  0.75936  1.0000
  C   C721      1.0  0.67067  0.59629  0.78919  1.0000
  H   H727      1.0  0.53679  0.66903  0.70197  1.0000
  H   H728      1.0  0.55400  0.49716  0.38066  1.0000
  H   H729      1.0  0.71350  0.66765  0.85493  1.0000
  C   C722      1.0  0.51523  0.54842  0.64814  1.0000
  C   C723      1.0  0.51934  0.53260  0.63268  1.0000
  C   C724      1.0  0.50767  0.52478  0.61038  1.0000
  H   H730      1.0  0.72667  0.71342  0.09483  1.0000
  H   H731      1.0  0.54155  0.64647  0.70863  1.0000
  H   H732      1.0  0.62323  0.51571  0.32875  1.0000
  H   H733      1.0  0.53177  0.52652  0.63730  1.0000
  H   H734      1.0  0.51113  0.51275  0.59816  1.0000
  C   C725      1.0  0.74018  0.63302  0.86601  1.0000
  C   C726      1.0  0.73512  0.60601  0.20788  1.0000
  C   C727      1.0  0.50848  0.55717  0.86767  1.0000
  C   C728      1.0  0.52210  0.54566  0.86005  1.0000
  C   C729      1.0  0.52381  0.53020  0.88045  1.0000
  C   C730      1.0  0.51189  0.52594  0.90849  1.0000
  C   C731      1.0  0.52715  0.65451  0.82034  1.0000
  H   H735      1.0  0.55492  0.66170  0.72818  1.0000
  H   H736      1.0  0.53135  0.54871  0.83859  1.0000
  H   H737      1.0  0.50111  0.65436  0.84127  1.0000
  C   C732      1.0  0.73676  0.59639  0.24113  1.0000
  H   H738      1.0  0.67454  0.71318  0.57441  1.0000
  H   H739      1.0  0.53443  0.52145  0.87437  1.0000
  C   C733      1.0  0.53755  0.53811  0.54057  1.0000
  C   C734      1.0  0.68774  0.50519  0.34684  1.0000
  C   C735      1.0  0.68271  0.51319  0.31388  1.0000
  H   H740      1.0  0.69812  0.64642  0.57662  1.0000
  C   C736      1.0  0.51315  0.66002  0.75174  1.0000
  C   C737      1.0  0.71356  0.73346  0.64267  1.0000
  S   S259      1.0  0.50105  0.58642  0.73867  1.0000
  H   H741      1.0  0.68890  0.52461  0.30437  1.0000
  H   H742      1.0  0.69378  0.61632  0.81647  1.0000
  H   H743      1.0  0.72942  0.68940  0.58972  1.0000
  N   N56       1.0  0.53052  0.65865  0.75501  1.0000
  H   H744      1.0  0.66371  0.69677  0.55189  1.0000
  C   C738      1.0  0.50940  0.65591  0.81720  1.0000
  C   C739      1.0  0.49663  0.55295  0.89587  1.0000
  S   S260      1.0  0.72115  0.63970  0.80285  1.0000
  C   C740      1.0  0.72834  0.64431  0.84840  1.0000
  H   H745      1.0  0.68174  0.58927  0.80175  1.0000
  N   N57       1.0  0.63499  0.50564  0.37731  1.0000
  C   C741      1.0  0.54146  0.65906  0.72179  1.0000
  C   C742      1.0  0.72836  0.66165  0.90353  1.0000
  H   H746      1.0  0.51928  0.50181  0.79804  1.0000
  C   C743      1.0  0.62565  0.62171  0.72654  1.0000
  C   C744      1.0  0.61530  0.60760  0.72303  1.0000
  C   C745      1.0  0.59748  0.60876  0.73058  1.0000
  C   C746      1.0  0.58971  0.62405  0.74228  1.0000
  C   C747      1.0  0.60008  0.63815  0.74604  1.0000
  C   C748      1.0  0.61788  0.63704  0.73809  1.0000
  H   H747      1.0  0.62110  0.59564  0.71428  1.0000
  H   H748      1.0  0.58978  0.59777  0.72764  1.0000
  H   H749      1.0  0.59429  0.65006  0.75508  1.0000
  H   H750      1.0  0.62559  0.64801  0.74108  1.0000
  C   C749      1.0  0.71864  0.61318  0.57750  1.0000
  H   H751      1.0  0.53279  0.65183  0.84686  1.0000
  C   C750      1.0  0.69946  0.66006  0.57791  1.0000
  C   C751      1.0  0.71537  0.59420  0.51216  1.0000
  C   C752      1.0  0.70111  0.59804  0.53537  1.0000
  C   C753      1.0  0.70270  0.60739  0.56773  1.0000
  H   H752      1.0  0.68872  0.59352  0.52850  1.0000
  H   H753      1.0  0.69161  0.60991  0.58534  1.0000
  C   C754      1.0  0.67830  0.72986  0.64483  1.0000
  C   C755      1.0  0.68895  0.71625  0.65774  1.0000
  C   C756      1.0  0.70667  0.71821  0.65680  1.0000
  H   H754      1.0  0.66338  0.69762  0.60154  1.0000
  C   C757      1.0  0.50811  0.54068  0.76203  1.0000
  C   C758      1.0  0.73125  0.60024  0.52161  1.0000
  C   C759      1.0  0.73284  0.60966  0.55390  1.0000
  C   C760      1.0  0.51083  0.55420  0.53491  1.0000
  H   H755      1.0  0.49586  0.56840  0.65379  1.0000
  H   H756      1.0  0.63496  0.64150  0.82226  1.0000
  Fe  Fe131     1.0  0.49850  0.49181  0.97644  1.0000
  C   C761      1.0  0.51762  0.53196  0.49369  1.0000
  H   H757      1.0  0.55134  0.65416  0.79125  1.0000
  H   H758      1.0  0.65914  0.65749  0.84591  1.0000
  H   H759      1.0  0.67258  0.66587  0.57300  1.0000
  H   H760      1.0  0.72729  0.73476  0.64192  1.0000
  H   H761      1.0  0.54942  0.53532  0.55471  1.0000
  N   N58       1.0  0.68672  0.68832  0.57771  1.0000
  C   C762      1.0  0.68509  0.67113  0.57571  1.0000
  C   C763      1.0  0.70245  0.69490  0.58217  1.0000
  C   C764      1.0  0.62344  0.50567  0.34971  1.0000
  S   S261      1.0  0.50532  0.57670  0.84242  1.0000
  H   H762      1.0  0.52842  0.52246  0.74940  1.0000
  H   H763      1.0  0.66593  0.51277  0.26770  1.0000
  C   C765      1.0  0.66964  0.50643  0.29315  1.0000
  H   H764      1.0  0.51431  0.52432  0.47077  1.0000
  H   H765      1.0  0.68866  0.64460  0.84311  1.0000
  H   H766      1.0  0.52953  0.55858  0.57600  1.0000
  N   N59       1.0  0.50673  0.54478  0.50557  1.0000
  H   H767      1.0  0.72271  0.60749  0.19545  1.0000
  H   H768      1.0  0.66457  0.72858  0.64559  1.0000
  C   C766      1.0  0.67134  0.69954  0.57617  1.0000
  C   C767      1.0  0.50233  0.65872  0.78271  1.0000
  C   C768      1.0  0.61195  0.49257  0.34759  1.0000
  C   C769      1.0  0.71550  0.66663  0.58305  1.0000
  C   C770      1.0  0.73017  0.55478  0.53841  1.0000
  S   S262      1.0  0.53081  0.49462  0.44288  1.0000
  C   C771      1.0  0.66131  0.49164  0.30502  1.0000
  C   C772      1.0  0.64636  0.51993  0.37995  1.0000
  C   C773      1.0  0.71888  0.55994  0.56669  1.0000
  H   H769      1.0  0.74235  0.59759  0.50413  1.0000
  C   C774      1.0  0.72250  0.65870  0.86769  1.0000
  C   C775      1.0  0.72701  0.69806  0.04662  1.0000
  C   C776      1.0  0.73343  0.71011  0.06951  1.0000
  H   H770      1.0  0.70376  0.70851  0.58404  1.0000
  H   H771      1.0  0.63967  0.53054  0.39453  1.0000
  H   H772      1.0  0.65823  0.51614  0.39483  1.0000
  N   N60       1.0  0.66739  0.61278  0.80631  1.0000
  C   C777      1.0  0.65110  0.61974  0.80784  1.0000
  C   C778      1.0  0.68077  0.62158  0.81864  1.0000
  C   C779      1.0  0.64785  0.63590  0.82211  1.0000
  C   C780      1.0  0.67795  0.63764  0.83366  1.0000
  C   C781      1.0  0.66140  0.64486  0.83521  1.0000
  H   H773      1.0  0.64055  0.61302  0.79697  1.0000
  C   C782      1.0  0.53758  0.65585  0.78873  1.0000
  C   C783      1.0  0.72493  0.56927  0.59535  1.0000
  H   H774      1.0  0.51217  0.54979  0.74105  1.0000
  H   H775      1.0  0.71523  0.69183  0.05402  1.0000
  H   H776      1.0  0.65056  0.52455  0.35221  1.0000
  H   H777      1.0  0.72666  0.65808  0.58578  1.0000
  C   C784      1.0  0.53314  0.52837  0.51104  1.0000
  H   H778      1.0  0.70538  0.55742  0.56536  1.0000
  C   C785      1.0  0.73610  0.69376  0.01444  1.0000
  C   C786      1.0  0.51726  0.52527  0.76679  1.0000
  H   H779      1.0  0.72517  0.54827  0.51532  1.0000
  H   H780      1.0  0.50753  0.66171  0.72496  1.0000
  H   H781      1.0  0.71617  0.57400  0.61661  1.0000
  C   C787      1.0  0.74025  0.65038  0.92109  1.0000
  H   H782      1.0  0.50187  0.56382  0.54550  1.0000
  H   H783      1.0  0.72364  0.67283  0.91771  1.0000
  H   H784      1.0  0.73117  0.68417  0.99711  1.0000
  H   H785      1.0  0.73968  0.58514  0.14125  1.0000
  C   C788      1.0  0.51202  0.51370  0.79426  1.0000
  C   C789      1.0  0.63536  0.49282  0.40341  1.0000
  H   H786      1.0  0.64444  0.49283  0.42541  1.0000
  H   H787      1.0  0.49709  0.65177  0.65944  1.0000
  H   H788      1.0  0.60287  0.49266  0.32558  1.0000
  C   C790      1.0  0.74215  0.57324  0.59556  1.0000
  C   C791      1.0  0.49388  0.54435  0.78465  1.0000
  N   N61       1.0  0.49808  0.51744  0.81643  1.0000
  H   H789      1.0  0.50363  0.49789  0.85653  1.0000
  C   C792      1.0  0.67944  0.49034  0.35862  1.0000
  Fe  Fe132     1.0  0.70118  0.79109  0.58724  1.0000
  S   S263      1.0  0.72043  0.81033  0.56751  1.0000
  S   S264      1.0  0.71244  0.76585  0.61146  1.0000
  Fe  Fe133     1.0  0.67083  0.81534  0.56675  1.0000
  S   S265      1.0  0.68816  0.83595  0.54631  1.0000
  S   S266      1.0  0.64153  0.81383  0.56395  1.0000
  Fe  Fe134     1.0  0.70406  0.81518  0.51771  1.0000
  S   S267      1.0  0.71013  0.81600  0.45436  1.0000
  Fe  Fe135     1.0  0.70344  0.82962  0.59777  1.0000
  S   S268      1.0  0.71542  0.85019  0.63301  1.0000
  S   S269      1.0  0.68583  0.79485  0.53615  1.0000
  S   S270      1.0  0.68515  0.81013  0.61951  1.0000
  C   C793      1.0  0.71413  0.98922  0.91498  1.0000
  H   H790      1.0  0.71471  0.77672  0.72874  1.0000
  Fe  Fe136     1.0  0.71757  0.91882  0.89523  1.0000
  S   S271      1.0  0.69090  0.93222  0.89735  1.0000
  S   S272      1.0  0.51177  0.94771  0.32248  1.0000
  S   S273      1.0  0.72088  0.89020  0.89666  1.0000
  Fe  Fe137     1.0  0.54710  0.85990  0.52365  1.0000
  S   S274      1.0  0.53166  0.84700  0.48136  1.0000
  S   S275      1.0  0.57642  0.86228  0.52266  1.0000
  Fe  Fe138     1.0  0.51477  0.87439  0.56190  1.0000
  C   C794      1.0  0.70291  0.74699  0.62938  1.0000
  C   C795      1.0  0.72726  0.96502  0.88203  1.0000
  Fe  Fe139     1.0  0.51452  0.83897  0.52935  1.0000
  S   S276      1.0  0.50517  0.81159  0.53431  1.0000
  Fe  Fe140     1.0  0.51545  0.87140  0.47841  1.0000
  C   C796      1.0  0.52103  0.91893  0.74072  1.0000
  S   S277      1.0  0.53094  0.85048  0.57165  1.0000
  S   S278      1.0  0.53179  0.88493  0.51723  1.0000
  H   H791      1.0  0.52994  0.98334  0.14141  1.0000
  C   C797      1.0  0.72576  0.81651  0.41685  1.0000
  S   S279      1.0  0.52423  0.95489  0.68291  1.0000
  S   S280      1.0  0.73011  0.92135  0.83925  1.0000
  N   N62       1.0  0.50532  0.91185  0.74270  1.0000
  C   C798      1.0  0.50641  0.90889  0.62175  1.0000
  C   C799      1.0  0.52302  0.91452  0.61587  1.0000
  C   C800      1.0  0.52821  0.92908  0.63365  1.0000
  C   C801      1.0  0.51681  0.93806  0.65716  1.0000
  H   H792      1.0  0.72692  0.80057  0.75334  1.0000
  H   H793      1.0  0.53426  0.92829  0.36983  1.0000
  H   H794      1.0  0.53203  0.90733  0.59881  1.0000
  H   H795      1.0  0.54123  0.93310  0.63004  1.0000
  N   N63       1.0  0.60884  0.97141  0.06187  1.0000
  C   C802      1.0  0.50393  0.90081  0.39971  1.0000
  C   C803      1.0  0.51973  0.90853  0.39666  1.0000
  C   C804      1.0  0.52194  0.92250  0.37207  1.0000
  C   C805      1.0  0.50835  0.92923  0.35079  1.0000
  C   C806      1.0  0.60057  0.97722  0.09283  1.0000
  H   H796      1.0  0.50975  0.80085  0.42107  1.0000
  H   H797      1.0  0.53031  0.90364  0.41287  1.0000
  S   S281      1.0  0.72453  0.87350  0.80029  1.0000
  H   H798      1.0  0.72750  0.77338  0.32689  1.0000
  C   C807      1.0  0.72947  0.87613  0.72346  1.0000
  H   H799      1.0  0.70214  0.95151  0.96033  1.0000
  C   C808      1.0  0.68110  0.94872  0.92432  1.0000
  C   C809      1.0  0.68946  0.95617  0.95302  1.0000
  C   C810      1.0  0.65652  0.96860  0.93464  1.0000
  C   C811      1.0  0.66453  0.95495  0.91556  1.0000
  N   N64       1.0  0.71321  0.97757  0.88795  1.0000
  H   H800      1.0  0.65788  0.94930  0.89351  1.0000
  N   N65       1.0  0.49423  0.82094  0.44369  1.0000
  C   C812      1.0  0.68139  0.96975  0.97230  1.0000
  C   C813      1.0  0.60792  0.98932  0.11433  1.0000
  H   H801      1.0  0.73477  0.88189  0.02980  1.0000
  C   C814      1.0  0.52143  0.94271  0.45921  1.0000
  H   H802      1.0  0.51284  0.87900  0.68557  1.0000
  H   H803      1.0  0.70666  0.81529  0.37542  1.0000
  N   N66       1.0  0.72780  0.79553  0.69601  1.0000
  H   H804      1.0  0.64389  0.97335  0.92709  1.0000
  C   C815      1.0  0.62351  0.82788  0.55495  1.0000
  C   C816      1.0  0.62507  0.84528  0.54728  1.0000
  C   C817      1.0  0.61052  0.85556  0.53784  1.0000
  C   C818      1.0  0.59414  0.84874  0.53650  1.0000
  C   C819      1.0  0.59256  0.83140  0.54479  1.0000
  C   C820      1.0  0.60713  0.82108  0.55379  1.0000
  H   H805      1.0  0.63752  0.85077  0.54813  1.0000
  H   H806      1.0  0.61195  0.86895  0.53162  1.0000
  H   H807      1.0  0.58012  0.82590  0.54393  1.0000
  H   H808      1.0  0.60569  0.80767  0.55980  1.0000
  C   C821      1.0  0.71732  0.85661  0.67981  1.0000
  C   C822      1.0  0.70993  0.84784  0.70981  1.0000
  C   C823      1.0  0.71252  0.85302  0.74621  1.0000
  C   C824      1.0  0.72230  0.86723  0.75348  1.0000
  H   H809      1.0  0.58970  0.96672  0.02378  1.0000
  H   H810      1.0  0.58780  0.97312  0.10008  1.0000
  H   H811      1.0  0.70240  0.83691  0.70498  1.0000
  H   H812      1.0  0.70682  0.84600  0.76896  1.0000
  Fe  Fe141     1.0  0.49762  0.96655  0.28292  1.0000
  C   C825      1.0  0.74136  0.77252  0.32539  1.0000
  H   H813      1.0  0.51846  0.82155  0.41503  1.0000
  C   C826      1.0  0.66495  0.97619  0.96304  1.0000
  S   S282      1.0  0.50035  0.88302  0.42995  1.0000
  H   H814      1.0  0.67678  0.75535  0.62081  1.0000
  H   H815      1.0  0.72724  0.81586  0.32222  1.0000
  C   C827      1.0  0.51541  0.88989  0.70201  1.0000
  N   N67       1.0  0.68468  0.89242  0.80768  1.0000
  C   C828      1.0  0.68181  0.88216  0.77892  1.0000
  C   C829      1.0  0.69130  0.90810  0.80152  1.0000
  C   C830      1.0  0.68554  0.88754  0.74281  1.0000
  C   C831      1.0  0.69543  0.91379  0.76582  1.0000
  C   C832      1.0  0.69257  0.90338  0.73633  1.0000
  C   C833      1.0  0.68164  0.88605  0.84532  1.0000
  H   H816      1.0  0.67716  0.86949  0.78390  1.0000
  H   H817      1.0  0.69371  0.91617  0.82436  1.0000
  H   H818      1.0  0.68374  0.87916  0.72014  1.0000
  H   H819      1.0  0.70114  0.92601  0.76117  1.0000
  H   H820      1.0  0.69611  0.90740  0.70856  1.0000
  H   H821      1.0  0.69186  0.87641  0.85257  1.0000
  H   H822      1.0  0.68178  0.89640  0.86556  1.0000
  H   H823      1.0  0.66899  0.88014  0.84799  1.0000
  S   S283      1.0  0.49743  0.86219  0.52306  1.0000
  S   S284      1.0  0.74196  0.92214  0.92556  1.0000
  H   H824      1.0  0.52316  0.93074  0.75433  1.0000
  H   H825      1.0  0.59465  0.94923  0.05529  1.0000
  C   C834      1.0  0.71777  0.78019  0.69968  1.0000
  H   H826      1.0  0.63110  0.97286  0.02688  1.0000
  H   H827      1.0  0.53457  0.94664  0.45856  1.0000
  N   N68       1.0  0.64668  0.81846  0.46896  1.0000
  C   C835      1.0  0.66354  0.82188  0.46288  1.0000
  C   C836      1.0  0.63435  0.83123  0.46677  1.0000
  C   C837      1.0  0.66850  0.83854  0.45568  1.0000
  C   C838      1.0  0.63885  0.84805  0.45975  1.0000
  C   C839      1.0  0.65606  0.85171  0.45438  1.0000
  C   C840      1.0  0.64178  0.80089  0.47636  1.0000
  H   H828      1.0  0.67332  0.81174  0.46395  1.0000
  H   H829      1.0  0.62097  0.82856  0.47172  1.0000
  H   H830      1.0  0.68194  0.84119  0.45150  1.0000
  H   H831      1.0  0.62904  0.85818  0.45931  1.0000
  H   H832      1.0  0.65978  0.86472  0.44939  1.0000
  H   H833      1.0  0.65133  0.79407  0.49410  1.0000
  H   H834      1.0  0.62938  0.80048  0.49191  1.0000
  H   H835      1.0  0.64080  0.79413  0.45024  1.0000
  C   C841      1.0  0.72705  0.87082  0.68712  1.0000
  C   C842      1.0  0.72020  0.81594  0.38030  1.0000
  H   H836      1.0  0.51857  0.81115  0.45965  1.0000
  H   H837      1.0  0.73032  0.79368  0.63792  1.0000
  C   C843      1.0  0.51002  0.94918  0.43303  1.0000
  H   H838      1.0  0.50058  0.84590  0.42487  1.0000
  H   H839      1.0  0.72379  0.95264  0.89484  1.0000
  H   H840      1.0  0.73360  0.86972  0.09351  1.0000
  C   C844      1.0  0.60021  0.95970  0.03847  1.0000
  H   H841      1.0  0.54658  0.91761  0.71706  1.0000
  H   H842      1.0  0.72496  0.76922  0.68724  1.0000
  H   H843      1.0  0.68804  0.97544  0.99428  1.0000
  H   H844      1.0  0.73288  0.87777  0.66439  1.0000
  H   H845      1.0  0.54153  0.89144  0.68256  1.0000
  C   C845      1.0  0.51108  0.81327  0.43426  1.0000
  H   H846      1.0  0.54627  0.98013  0.08244  1.0000
  C   C846      1.0  0.68519  0.74509  0.63070  1.0000
  H   H847      1.0  0.51425  0.95800  0.41155  1.0000
  S   S285      1.0  0.50118  0.96727  0.22071  1.0000
  C   C847      1.0  0.53151  0.89693  0.70019  1.0000
  C   C848      1.0  0.53437  0.91154  0.71965  1.0000
  Fe  Fe142     1.0  0.50570  0.96931  0.72068  1.0000
  C   C849      1.0  0.51589  0.93075  0.48558  1.0000
  S   S286      1.0  0.50464  0.96452  0.78184  1.0000
  C   C850      1.0  0.73190  0.81629  0.34986  1.0000
  H   H848      1.0  0.69766  0.96693  0.84788  1.0000
  H   H849      1.0  0.60911  0.95394  0.01763  1.0000
  Fe  Fe143     1.0  0.73457  0.89284  0.84154  1.0000
  H   H850      1.0  0.73942  0.96890  0.89398  1.0000
  N   N69       1.0  0.49942  0.92548  0.48592  1.0000
  H   H851      1.0  0.72642  0.76227  0.26755  1.0000
  C   C851      1.0  0.62461  0.97718  0.05179  1.0000
  H   H852      1.0  0.72540  0.98952  0.93165  1.0000
  S   S287      1.0  0.49981  0.88956  0.60456  1.0000
  H   H853      1.0  0.52491  0.92558  0.50551  1.0000
  H   H854      1.0  0.67302  0.98696  0.85929  1.0000
  C   C852      1.0  0.50005  0.93275  0.66171  1.0000
  C   C853      1.0  0.68471  0.98799  0.87436  1.0000
  C   C854      1.0  0.69870  0.97675  0.86796  1.0000
  H   H855      1.0  0.49453  0.77720  0.54520  1.0000
  H   H856      1.0  0.49594  0.92605  0.78863  1.0000
  C   C855      1.0  0.74071  0.81942  0.72258  1.0000
  C   C856      1.0  0.73323  0.80085  0.66182  1.0000
  H   H857      1.0  0.73699  0.88707  0.72821  1.0000
  C   C857      1.0  0.73139  0.80461  0.72623  1.0000
  H   H858      1.0  0.72991  0.96323  0.85225  1.0000
  H   H859      1.0  0.70553  0.78216  0.68491  1.0000
  C   C858      1.0  0.74237  0.81570  0.65713  1.0000
  H   H860      1.0  0.74128  0.77449  0.24013  1.0000
  C   C859      1.0  0.74018  0.76403  0.26103  1.0000
  C   C860      1.0  0.63246  0.98908  0.07297  1.0000
  C   C861      1.0  0.50235  0.89761  0.72340  1.0000
  H   H861      1.0  0.50236  0.91175  0.53714  1.0000
  C   C862      1.0  0.49488  0.91824  0.64410  1.0000
  C   C863      1.0  0.49381  0.91271  0.51316  1.0000
  C   C864      1.0  0.49334  0.94353  0.43325  1.0000
  H   H862      1.0  0.49373  0.90007  0.50039  1.0000
  Fe  Fe144     1.0  0.85562  0.99834  0.78606  1.0000
  S   S288      1.0  0.85207  0.01977  0.82545  1.0000
  H   H863      1.0  0.80379  0.21205  0.95797  1.0000
  Fe  Fe145     1.0  0.88935  0.01278  0.75223  1.0000
  S   S289      1.0  0.88764  0.03526  0.78959  1.0000
  S   S290      1.0  0.91542  0.00984  0.72182  1.0000
  Fe  Fe146     1.0  0.88041  0.01638  0.83390  1.0000
  S   S291      1.0  0.89159  0.01799  0.89030  1.0000
  Fe  Fe147     1.0  0.85960  0.03716  0.77797  1.0000
  S   S292      1.0  0.84407  0.06186  0.76477  1.0000
  C   C865      1.0  0.98513  0.07495  0.08816  1.0000
  S   S293      1.0  0.86151  0.01578  0.73715  1.0000
  H   H864      1.0  0.81586  0.21683  0.49769  1.0000
  N   N70       1.0  0.80813  0.18577  0.94682  1.0000
  C   C866      1.0  0.83616  0.18697  0.99207  1.0000
  Fe  Fe148     1.0  0.83555  0.19668  0.84938  1.0000
  S   S294      1.0  0.82467  0.17074  0.85654  1.0000
  S   S295      1.0  0.84514  0.21305  0.89633  1.0000
  Fe  Fe149     1.0  0.82519  0.19957  0.76622  1.0000
  S   S296      1.0  0.81380  0.17349  0.76911  1.0000
  S   S297      1.0  0.97889  0.01938  0.07990  1.0000
  Fe  Fe150     1.0  0.80217  0.18109  0.82413  1.0000
  S   S298      1.0  0.77535  0.17257  0.84183  1.0000
  Fe  Fe151     1.0  0.83694  0.16473  0.80156  1.0000
  S   S299      1.0  0.85457  0.14067  0.79713  1.0000
  S   S300      1.0  0.81220  0.20743  0.81990  1.0000
  S   S301      1.0  0.84917  0.19045  0.79575  1.0000
  Fe  Fe152     1.0  0.93374  0.21628  0.14329  1.0000
  S   S302      1.0  0.95695  0.20312  0.17135  1.0000
  H   H865      1.0  0.76595  0.20691  0.86809  1.0000
  S   S303      1.0  0.89481  0.20791  0.03597  1.0000
  H   H866      1.0  0.92617  0.03609  0.84934  1.0000
  S   S304      1.0  0.90626  0.20890  0.14094  1.0000
  H   H867      1.0  0.82199  0.09180  0.75704  1.0000
  H   H868      1.0  0.79576  0.19297  0.89730  1.0000
  C   C867      1.0  0.83537  0.21495  0.64586  1.0000
  C   C868      1.0  0.81853  0.17156  0.95199  1.0000
  C   C869      1.0  0.84679  0.08350  0.77672  1.0000
  H   H869      1.0  0.84004  0.20253  0.65537  1.0000
  H   H870      1.0  0.87206  0.07975  0.79818  1.0000
  N   N71       1.0  0.79666  0.22535  0.53594  1.0000
  C   C870      1.0  0.85966  0.21147  0.93400  1.0000
  C   C871      1.0  0.86977  0.19682  0.94191  1.0000
  C   C872      1.0  0.88045  0.19607  0.97288  1.0000
  C   C873      1.0  0.88136  0.20994  0.99650  1.0000
  H   H871      1.0  0.84477  0.21155  0.59007  1.0000
  H   H872      1.0  0.87573  0.11045  0.80932  1.0000
  H   H873      1.0  0.86928  0.18597  0.92441  1.0000
  H   H874      1.0  0.88810  0.18462  0.97863  1.0000
  C   C874      1.0  0.75665  0.18171  0.86376  1.0000
  H   H875      1.0  0.89039  0.17370  0.21101  1.0000
  C   C875      1.0  0.86187  0.08894  0.79182  1.0000
  H   H876      1.0  0.89300  0.20300  0.23219  1.0000
  C   C876      1.0  0.83562  0.11318  0.77581  1.0000
  C   C877      1.0  0.83271  0.17196  0.97462  1.0000
  H   H877      1.0  0.81604  0.15988  0.93823  1.0000
  C   C878      1.0  0.86391  0.10640  0.79812  1.0000
  H   H878      1.0  0.82543  0.12239  0.76940  1.0000
  C   C879      1.0  0.97255  0.09200  0.13844  1.0000
  C   C880      1.0  0.97877  0.14768  0.18480  1.0000
  C   C881      1.0  0.96429  0.15132  0.16320  1.0000
  C   C882      1.0  0.95760  0.16815  0.15820  1.0000
  C   C883      1.0  0.96523  0.18165  0.17500  1.0000
  C   C884      1.0  0.97966  0.17801  0.19666  1.0000
  C   C885      1.0  0.95781  0.00692  0.87028  1.0000
  C   C886      1.0  0.93813  0.99707  0.60645  1.0000
  H   H879      1.0  0.94650  0.17066  0.14147  1.0000
  H   H880      1.0  0.84369  0.00281  0.95039  1.0000
  C   C887      1.0  0.92360  0.00454  0.67709  1.0000
  C   C888      1.0  0.79336  0.18536  0.92288  1.0000
  H   H881      1.0  0.79068  0.17221  0.91476  1.0000
  H   H882      1.0  0.98571  0.18828  0.20985  1.0000
  H   H883      1.0  0.85221  0.01192  0.90808  1.0000
  H   H884      1.0  0.91589  0.15369  0.21114  1.0000
  C   C889      1.0  0.83371  0.09577  0.76877  1.0000
  H   H885      1.0  0.84113  0.16079  0.97813  1.0000
  H   H886      1.0  0.97885  0.23455  0.12778  1.0000
  H   H887      1.0  0.85371  0.05729  0.64640  1.0000
  C   C890      1.0  0.90842  0.00390  0.90430  1.0000
  C   C891      1.0  0.91776  0.00760  0.93533  1.0000
  N   N72       1.0  0.98705  0.08670  0.11464  1.0000
  H   H888      1.0  0.91480  0.04622  0.70299  1.0000
  N   N73       1.0  0.87325  0.05628  0.68587  1.0000
  C   C892      1.0  0.87208  0.07230  0.69960  1.0000
  C   C893      1.0  0.85081  0.11868  0.79027  1.0000
  C   C894      1.0  0.88840  0.04699  0.68687  1.0000
  H   H889      1.0  0.84730  0.18758  0.00918  1.0000
  C   C895      1.0  0.83805  0.22014  0.60861  1.0000
  C   C896      1.0  0.85327  0.00092  0.92776  1.0000
  C   C897      1.0  0.90257  0.17775  0.22053  1.0000
  H   H890      1.0  0.82863  0.21331  0.99864  1.0000
  C   C898      1.0  0.82563  0.20144  0.98624  1.0000
  C   C899      1.0  0.90417  0.19438  0.23233  1.0000
  Fe  Fe153     1.0  0.90558  0.22237  0.08498  1.0000
  C   C900      1.0  0.75538  0.19874  0.87394  1.0000
  C   C901      1.0  0.91303  0.00268  0.64712  1.0000
  C   C902      1.0  0.81166  0.20064  0.96315  1.0000
  H   H891      1.0  0.94594  0.19312  0.25205  1.0000
  C   C903      1.0  0.91684  0.16655  0.22066  1.0000
  C   C904      1.0  0.93362  0.18881  0.24386  1.0000
  H   H892      1.0  0.91441  0.01889  0.95064  1.0000
  H   H893      1.0  0.91976  0.21755  0.28578  1.0000
  H   H894      1.0  0.78161  0.19057  0.93692  1.0000
  C   C905      1.0  0.93242  0.17203  0.23281  1.0000
  C   C906      1.0  0.92114  0.21723  0.25543  1.0000
  N   N74       1.0  0.91964  0.19980  0.24307  1.0000
  C   C907      1.0  0.95512  0.99548  0.84244  1.0000
  C   C908      1.0  0.86409  0.22819  0.74871  1.0000
  N   N75       1.0  0.94238  0.99864  0.81778  1.0000
  H   H895      1.0  0.93370  0.22230  0.24658  1.0000
  H   H896      1.0  0.79046  0.23550  0.48285  1.0000
  C   C909      1.0  0.93467  0.02493  0.84705  1.0000
  Fe  Fe154     1.0  0.98579  0.99799  0.04100  1.0000
  C   C910      1.0  0.86065  0.22538  0.95742  1.0000
  S   S305      1.0  0.82317  0.22011  0.71860  1.0000
  H   H897      1.0  0.80051  0.20111  0.51230  1.0000
  H   H898      1.0  0.86054  0.03606  0.66057  1.0000
  C   C911      1.0  0.93174  0.99700  0.94616  1.0000
  H   H899      1.0  0.84941  0.23292  0.26243  1.0000
  H   H900      1.0  0.88506  0.09193  0.72685  1.0000
  C   C912      1.0  0.92027  0.99911  0.61207  1.0000
  C   C913      1.0  0.90172  0.06997  0.71646  1.0000
  S   S306      1.0  0.93385  0.22820  0.08622  1.0000
  H   H901      1.0  0.97755  0.04066  0.14279  1.0000
  C   C914      1.0  0.85806  0.04924  0.67010  1.0000
  C   C915      1.0  0.87021  0.22865  0.82330  1.0000
  H   H902      1.0  0.94365  0.16348  0.23277  1.0000
  C   C916      1.0  0.78326  0.23947  0.58737  1.0000
  H   H903      1.0  0.88941  0.03422  0.67630  1.0000
  H   H904      1.0  0.87181  0.23545  0.00597  1.0000
  Fe  Fe155     1.0  0.89911  0.23445  0.16536  1.0000
  H   H905      1.0  0.85296  0.23683  0.95186  1.0000
  C   C917      1.0  0.90286  0.05371  0.70205  1.0000
  H   H906      1.0  0.80035  0.21760  0.59186  1.0000
  C   C918      1.0  0.79389  0.22646  0.57303  1.0000
  C   C919      1.0  0.88625  0.07936  0.71522  1.0000
  H   H907      1.0  0.81742  0.20712  0.54202  1.0000
  C   C920      1.0  0.78845  0.23650  0.51228  1.0000
  S   S307      1.0  0.98643  0.12606  0.19030  1.0000
  C   C921      1.0  0.82678  0.22580  0.67069  1.0000
  H   H908      1.0  0.85997  0.07953  0.69951  1.0000
  C   C922      1.0  0.87135  0.22464  0.98833  1.0000
  H   H909      1.0  0.91111  0.22592  0.24337  1.0000
  H   H910      1.0  0.96737  0.00393  0.89085  1.0000
  H   H911      1.0  0.96107  0.08450  0.13407  1.0000
  H   H912      1.0  0.91275  0.07524  0.72883  1.0000
  H   H913      1.0  0.92239  0.01580  0.79976  1.0000
  C   C923      1.0  0.80807  0.21183  0.52124  1.0000
  H   H914      1.0  0.77184  0.23501  0.34316  1.0000
  C   C924      1.0  0.93243  0.01329  0.81938  1.0000
  H   H915      1.0  0.84752  0.04886  0.69115  1.0000
  H   H916      1.0  0.89930  0.00405  0.65079  1.0000
  H   H917      1.0  0.97603  0.09025  0.16776  1.0000
  H   H918      1.0  0.96922  0.10570  0.13335  1.0000
  C   C925      1.0  0.83214  0.23624  0.59507  1.0000
  C   C926      1.0  0.99077  0.03942  0.13359  1.0000
  S   S308      1.0  0.88370  0.99388  0.79798  1.0000
  S   S309      1.0  0.98732  0.00012  0.97921  1.0000
  H   H919      1.0  0.87247  0.22835  0.85259  1.0000
  C   C927      1.0  0.94146  0.00255  0.67147  1.0000
  H   H920      1.0  0.95823  0.14104  0.15008  1.0000
  C   C928      1.0  0.98641  0.16119  0.20149  1.0000
  H   H921      1.0  0.86117  0.22768  0.71977  1.0000
  C   C929      1.0  0.87855  0.21955  0.76249  1.0000
  H   H922      1.0  0.99155  0.03553  0.43624  1.0000
  H   H923      1.0  0.93913  0.00013  0.96960  1.0000
  H   H924      1.0  0.81256  0.99125  0.82983  1.0000
  H   H925      1.0  0.94983  0.00404  0.69423  1.0000
  C   C930      1.0  0.94742  0.02166  0.87270  1.0000
  H   H926      1.0  0.89260  0.21269  0.81126  1.0000
  H   H927      1.0  0.91195  0.99788  0.58909  1.0000
  H   H928      1.0  0.97294  0.06914  0.08476  1.0000
  H   H929      1.0  0.88707  0.21235  0.74425  1.0000
  S   S310      1.0  0.94646  0.99304  0.56117  1.0000
  H   H930      1.0  0.94891  0.03026  0.89508  1.0000
  C   C931      1.0  0.94867  0.99872  0.63655  1.0000
  C   C932      1.0  0.88166  0.21975  0.80004  1.0000
  H   H931      1.0  0.96240  0.99730  0.63278  1.0000
  H   H932      1.0  0.86619  0.00087  0.93996  1.0000
  C   C933      1.0  0.85294  0.23700  0.77274  1.0000
  H   H933      1.0  0.98911  0.06206  0.39783  1.0000
  N   N76       1.0  0.85616  0.23727  0.80944  1.0000
  H   H934      1.0  0.83246  0.23844  0.83855  1.0000
  S   S311      1.0  0.87828  0.23500  0.21197  1.0000
  H   H935      1.0  0.94521  0.99118  0.76244  1.0000
  H   H936      1.0  0.74344  0.15817  0.86374  1.0000
  Fe  Fe156     1.0  0.85008  0.45222  0.48395  1.0000
  S   S312      1.0  0.86747  0.43695  0.44554  1.0000
  S   S313      1.0  0.82420  0.46130  0.46044  1.0000
  Fe  Fe157     1.0  0.87549  0.44736  0.54767  1.0000
  S   S314      1.0  0.89380  0.43154  0.51377  1.0000
  S   S315      1.0  0.88141  0.45479  0.60636  1.0000
  Fe  Fe158     1.0  0.88884  0.45124  0.46926  1.0000
  S   S316      1.0  0.91134  0.46571  0.44609  1.0000
  Fe  Fe159     1.0  0.87071  0.41833  0.49339  1.0000
  S   S317      1.0  0.87361  0.38911  0.48899  1.0000
  S   S318      1.0  0.87128  0.46775  0.50408  1.0000
  S   S319      1.0  0.85250  0.43289  0.53095  1.0000
  S   S320      1.0  0.96405  0.47076  0.78646  1.0000
  H   H937      1.0  0.76741  0.29177  0.38994  1.0000
  Fe  Fe160     1.0  0.96810  0.47424  0.72497  1.0000
  S   S321      1.0  0.95534  0.46272  0.67518  1.0000
  C   C934      1.0  0.86118  0.31126  0.38964  1.0000
  Fe  Fe161     1.0  0.96782  0.47518  0.26893  1.0000
  S   S322      1.0  0.94176  0.46462  0.28258  1.0000
  H   H938      1.0  0.93999  0.47694  0.52039  1.0000
  Fe  Fe162     1.0  0.82529  0.29781  0.46569  1.0000
  S   S323      1.0  0.84803  0.27956  0.47151  1.0000
  S   S324      1.0  0.82356  0.32680  0.47402  1.0000
  Fe  Fe163     1.0  0.80218  0.26968  0.44029  1.0000
  S   S325      1.0  0.82389  0.24995  0.44393  1.0000
  S   S326      1.0  0.77630  0.25877  0.42619  1.0000
  Fe  Fe164     1.0  0.82960  0.26119  0.49882  1.0000
  C   C935      1.0  0.82091  0.24192  0.65718  1.0000
  Fe  Fe165     1.0  0.84047  0.26961  0.41642  1.0000
  S   S327      1.0  0.86151  0.26768  0.37054  1.0000
  S   S328      1.0  0.80720  0.28007  0.49597  1.0000
  S   S329      1.0  0.81842  0.28867  0.40975  1.0000
  S   S330      1.0  0.89684  0.24751  0.10933  1.0000
  H   H939      1.0  0.79494  0.25207  0.35358  1.0000
  Fe  Fe166     1.0  0.92515  0.25253  0.11340  1.0000
  S   S331      1.0  0.93642  0.27912  0.10731  1.0000
  N   N77       1.0  0.97748  0.43478  0.11260  1.0000
  H   H940      1.0  0.97292  0.44090  0.16870  1.0000
  H   H941      1.0  0.96696  0.24478  0.16391  1.0000
  C   C936      1.0  0.97069  0.44638  0.14072  1.0000
  C   C937      1.0  0.88132  0.26181  0.30749  1.0000
  C   C938      1.0  0.86579  0.25844  0.32638  1.0000
  C   C939      1.0  0.98951  0.41270  0.05865  1.0000
  C   C940      1.0  0.74960  0.27105  0.28624  1.0000
  C   C941      1.0  0.85434  0.24796  0.30964  1.0000
  C   C942      1.0  0.88534  0.25491  0.27262  1.0000
  C   C943      1.0  0.98726  0.41988  0.91039  1.0000
  C   C944      1.0  0.75747  0.26737  0.40469  1.0000
  C   C945      1.0  0.87390  0.24442  0.25589  1.0000
  H   H942      1.0  0.96767  0.32320  0.97630  1.0000
  H   H943      1.0  0.96889  0.41266  0.14152  1.0000
  C   C946      1.0  0.98111  0.40642  0.09003  1.0000
  C   C947      1.0  0.98450  0.35682  0.93177  1.0000
  C   C948      1.0  0.85840  0.24101  0.27483  1.0000
  C   C949      1.0  0.87500  0.48449  0.40287  1.0000
  H   H944      1.0  0.77234  0.28473  0.29447  1.0000
  C   C950      1.0  0.95727  0.30562  0.08854  1.0000
  C   C951      1.0  0.95354  0.28861  0.08184  1.0000
  C   C952      1.0  0.96390  0.27964  0.05655  1.0000
  C   C953      1.0  0.97788  0.28751  0.03873  1.0000
  H   H945      1.0  0.94935  0.31272  0.10797  1.0000
  H   H946      1.0  0.96118  0.26661  0.05083  1.0000
  C   C954      1.0  0.98561  0.44107  0.08175  1.0000
  C   C955      1.0  0.91974  0.46468  0.40066  1.0000
  H   H947      1.0  0.95587  0.48724  0.57319  1.0000
  C   C956      1.0  0.94177  0.47307  0.35580  1.0000
  C   C957      1.0  0.93361  0.46460  0.32831  1.0000
  C   C958      1.0  0.91850  0.45612  0.33720  1.0000
  C   C959      1.0  0.91163  0.45605  0.37331  1.0000
  C   C960      1.0  0.82926  0.48405  0.37465  1.0000
  H   H948      1.0  0.96623  0.27645  0.16634  1.0000
  H   H949      1.0  0.91216  0.44950  0.31606  1.0000
  H   H950      1.0  0.90009  0.44937  0.37988  1.0000
  C   C961      1.0  0.90203  0.45645  0.62564  1.0000
  C   C962      1.0  0.91704  0.45101  0.60708  1.0000
  C   C963      1.0  0.93311  0.45270  0.62314  1.0000
  C   C964      1.0  0.93450  0.46001  0.65777  1.0000
  C   C965      1.0  0.91948  0.46535  0.67646  1.0000
  C   C966      1.0  0.90337  0.46347  0.66056  1.0000
  H   H951      1.0  0.91629  0.44557  0.58025  1.0000
  H   H952      1.0  0.94461  0.44852  0.60838  1.0000
  H   H953      1.0  0.92028  0.47094  0.70314  1.0000
  H   H954      1.0  0.89187  0.46768  0.67532  1.0000
  C   C967      1.0  0.85930  0.37193  0.48722  1.0000
  C   C968      1.0  0.86615  0.35511  0.48609  1.0000
  C   C969      1.0  0.85549  0.34112  0.48288  1.0000
  C   C970      1.0  0.83772  0.34373  0.48092  1.0000
  C   C971      1.0  0.83086  0.36053  0.48277  1.0000
  C   C972      1.0  0.84153  0.37452  0.48582  1.0000
  H   H955      1.0  0.87986  0.35287  0.48727  1.0000
  H   H956      1.0  0.86102  0.32835  0.48167  1.0000
  H   H957      1.0  0.81715  0.36277  0.48136  1.0000
  H   H958      1.0  0.83597  0.38730  0.48669  1.0000
  H   H959      1.0  0.83998  0.25880  0.82209  1.0000
  C   C973      1.0  0.97134  0.31344  0.07097  1.0000
  N   N78       1.0  0.85817  0.32975  0.38997  1.0000
  C   C974      1.0  0.84177  0.33643  0.39026  1.0000
  C   C975      1.0  0.87169  0.34013  0.39270  1.0000
  C   C976      1.0  0.83858  0.35398  0.39251  1.0000
  C   C977      1.0  0.86897  0.35775  0.39512  1.0000
  C   C978      1.0  0.85229  0.36468  0.39505  1.0000
  H   H960      1.0  0.83100  0.32813  0.39025  1.0000
  H   H961      1.0  0.88466  0.33479  0.39386  1.0000
  H   H962      1.0  0.82553  0.35913  0.39416  1.0000
  H   H963      1.0  0.87964  0.36595  0.39846  1.0000
  H   H964      1.0  0.84998  0.37824  0.39844  1.0000
  C   C979      1.0  0.82349  0.24708  0.61986  1.0000
  H   H965      1.0  0.79119  0.27445  0.34876  1.0000
  C   C980      1.0  0.84394  0.24617  0.83402  1.0000
  H   H966      1.0  0.84914  0.46514  0.38484  1.0000
  C   C981      1.0  0.98751  0.29045  0.14515  1.0000
  S   S332      1.0  0.97413  0.48440  0.21114  1.0000
  H   H967      1.0  0.97414  0.32641  0.07702  1.0000
  C   C982      1.0  0.84583  0.47865  0.38429  1.0000
  S   S333      1.0  0.92656  0.24102  0.17056  1.0000
  H   H968      1.0  0.87603  0.47060  0.40894  1.0000
  H   H969      1.0  0.76700  0.26142  0.57414  1.0000
  C   C983      1.0  0.97790  0.27587  0.14961  1.0000
  H   H970      1.0  0.84240  0.24512  0.32356  1.0000
  H   H971      1.0  0.89727  0.25780  0.25867  1.0000
  C   C984      1.0  0.94201  0.48844  0.57345  1.0000
  H   H972      1.0  0.95675  0.44887  0.13725  1.0000
  H   H973      1.0  0.95796  0.34395  0.96823  1.0000
  H   H974      1.0  0.77132  0.25853  0.50668  1.0000
  H   H975      1.0  0.97894  0.43901  0.87004  1.0000
  C   C985      1.0  0.74938  0.24283  0.31354  1.0000
  H   H976      1.0  0.84949  0.24821  0.86130  1.0000
  H   H977      1.0  0.86083  0.30598  0.41818  1.0000
  C   C986      1.0  0.81249  0.48120  0.45648  1.0000
  C   C987      1.0  0.76608  0.27281  0.29940  1.0000
  H   H978      1.0  0.88389  0.48733  0.37945  1.0000
  H   H979      1.0  0.89033  0.26987  0.31991  1.0000
  C   C988      1.0  0.79103  0.26236  0.33367  1.0000
  H   H980      1.0  0.97982  0.39281  0.09418  1.0000
  H   H981      1.0  0.97475  0.34085  0.00132  1.0000
  C   C989      1.0  0.75667  0.28361  0.38815  1.0000
  H   H982      1.0  0.81987  0.47482  0.36844  1.0000
  H   H983      1.0  0.97504  0.41999  0.92493  1.0000
  H   H984      1.0  0.87374  0.30767  0.37659  1.0000
  H   H985      1.0  0.95337  0.47966  0.34928  1.0000
  H   H986      1.0  0.97586  0.36697  0.94139  1.0000
  C   C990      1.0  0.97507  0.41771  0.11683  1.0000
  H   H987      1.0  0.84149  0.24331  0.76190  1.0000
  H   H988      1.0  0.85131  0.30506  0.37373  1.0000
  C   C991      1.0  0.98185  0.30437  0.04615  1.0000
  N   N79       1.0  0.87539  0.40920  0.61216  1.0000
  C   C992      1.0  0.88863  0.41477  0.63192  1.0000
  C   C993      1.0  0.87854  0.39898  0.58276  1.0000
  C   C994      1.0  0.90558  0.41031  0.62216  1.0000
  C   C995      1.0  0.89534  0.39421  0.57233  1.0000
  C   C996      1.0  0.90892  0.40001  0.59207  1.0000
  C   C997      1.0  0.85781  0.41457  0.62250  1.0000
  H   H989      1.0  0.88614  0.42321  0.65468  1.0000
  H   H990      1.0  0.86810  0.39462  0.56680  1.0000
  H   H991      1.0  0.91603  0.41516  0.63739  1.0000
  H   H992      1.0  0.89775  0.38635  0.54858  1.0000
  H   H993      1.0  0.92201  0.39668  0.58379  1.0000
  H   H994      1.0  0.84823  0.40886  0.60497  1.0000
  H   H995      1.0  0.85496  0.41079  0.65150  1.0000
  H   H996      1.0  0.85620  0.42864  0.61943  1.0000
  C   C998      1.0  0.93478  0.47320  0.39173  1.0000
  H   H997      1.0  0.80064  0.26265  0.31073  1.0000
  C   C999      1.0  0.79661  0.48177  0.43893  1.0000
  H   H998      1.0  0.96070  0.24850  0.11700  1.0000
  H   H999      1.0  0.81880  0.25948  0.61031  1.0000
  N   N80       1.0  0.98327  0.34061  0.94578  1.0000
  C   C1000     1.0  0.77757  0.24955  0.52564  1.0000
  H   H1000     1.0  0.79152  0.47010  0.42955  1.0000
  C   C1001     1.0  0.97024  0.33700  0.97421  1.0000
  H   H1001     1.0  0.94110  0.47994  0.41269  1.0000
  C   C1002     1.0  0.77512  0.25113  0.56345  1.0000
  H   H1002     1.0  0.97720  0.45871  0.13932  1.0000
  N   N81       1.0  0.77390  0.25997  0.31956  1.0000
  H   H1003     1.0  0.98342  0.30210  0.15856  1.0000
  H   H1004     1.0  0.98584  0.28037  0.01945  1.0000
  C   C1003     1.0  0.99176  0.43013  0.05434  1.0000
  H   H1005     1.0  0.98767  0.45457  0.07853  1.0000
  H   H1006     1.0  0.90833  0.47903  0.52135  1.0000
  N   N82       1.0  0.98264  0.26132  0.13166  1.0000
  S   S334      1.0  0.83518  0.24162  0.54685  1.0000
  H   H1007     1.0  0.81427  0.25054  0.67578  1.0000
  C   C1004     1.0  0.93316  0.48259  0.54359  1.0000
  C   C1005     1.0  0.76583  0.24506  0.32650  1.0000
  C   C1006     1.0  0.91533  0.48381  0.54403  1.0000
  S   S335      1.0  0.99126  0.45780  0.27211  1.0000
  Fe  Fe167     1.0  0.99246  0.46479  0.78956  1.0000
  H   H1008     1.0  0.74360  0.24450  0.41501  1.0000
  H   H1009     1.0  0.78163  0.24064  0.61686  1.0000
  C   C1007     1.0  0.98942  0.43072  0.87918  1.0000
  C   C1008     1.0  0.97181  0.24656  0.13521  1.0000
  N   N83       1.0  0.85747  0.49018  0.39401  1.0000
  C   C1009     1.0  0.74321  0.25707  0.40227  1.0000
  Fe  Fe168     1.0  0.76393  0.64907  0.01864  1.0000
  S   S336      1.0  0.79034  0.65951  0.02373  1.0000
  Fe  Fe169     1.0  0.97117  0.49846  0.78988  1.0000
  Fe  Fe170     1.0  0.76345  0.63780  0.10227  1.0000
  S   S337      1.0  0.78933  0.64821  0.11147  1.0000
  C   C1010     1.0  0.94271  0.50166  0.63373  1.0000
  Fe  Fe171     1.0  0.78077  0.67101  0.07696  1.0000
  S   S338      1.0  0.78979  0.69828  0.08281  1.0000
  Fe  Fe172     1.0  0.79720  0.63611  0.05799  1.0000
  S   S339      1.0  0.82192  0.61962  0.06375  1.0000
  S   S340      1.0  0.77145  0.62466  0.04977  1.0000
  S   S341      1.0  0.75400  0.57016  0.40290  1.0000
  Fe  Fe173     1.0  0.75779  0.54161  0.40889  1.0000
  S   S342      1.0  0.78284  0.53269  0.43707  1.0000
  Fe  Fe174     1.0  0.95843  0.61746  0.04248  1.0000
  S   S343      1.0  0.93293  0.61027  0.06794  1.0000
  S   S344      1.0  0.97027  0.63896  0.07465  1.0000
  Fe  Fe175     1.0  0.95576  0.58983  0.98294  1.0000
  S   S345      1.0  0.93009  0.58171  0.00422  1.0000
  S   S346      1.0  0.97173  0.57472  0.94001  1.0000
  Fe  Fe176     1.0  0.92316  0.60957  0.01075  1.0000
  S   S347      1.0  0.89794  0.62362  0.99516  1.0000
  Fe  Fe177     1.0  0.94182  0.58317  0.05966  1.0000
  S   S348      1.0  0.93637  0.56151  0.09963  1.0000
  S   S349      1.0  0.94824  0.61801  0.98490  1.0000
  S   S350      1.0  0.96783  0.59007  0.03888  1.0000
  H   H1010     1.0  0.95830  0.61339  0.12594  1.0000
  S   S351      1.0  0.95488  0.51638  0.82722  1.0000
  S   S352      1.0  0.97337  0.50220  0.72800  1.0000
  H   H1011     1.0  0.97404  0.57208  0.22504  1.0000
  H   H1012     1.0  0.89644  0.65145  0.05411  1.0000
  C   C1011     1.0  0.87401  0.64682  0.08789  1.0000
  C   C1012     1.0  0.96662  0.55916  0.90739  1.0000
  H   H1013     1.0  0.77633  0.61711  0.19425  1.0000
  C   C1013     1.0  0.97677  0.53729  0.86398  1.0000
  C   C1014     1.0  0.95992  0.53329  0.85662  1.0000
  C   C1015     1.0  0.94648  0.54248  0.87457  1.0000
  C   C1016     1.0  0.94977  0.55524  0.89988  1.0000
  H   H1014     1.0  0.97799  0.66775  0.11754  1.0000
  C   C1017     1.0  0.85664  0.65110  0.09373  1.0000
  H   H1015     1.0  0.93339  0.53961  0.86909  1.0000
  H   H1016     1.0  0.93926  0.56205  0.91348  1.0000
  C   C1018     1.0  0.95218  0.55188  0.12786  1.0000
  C   C1019     1.0  0.94746  0.53900  0.15301  1.0000
  C   C1020     1.0  0.95925  0.53205  0.17829  1.0000
  C   C1021     1.0  0.97582  0.53806  0.17877  1.0000
  H   H1017     1.0  0.84936  0.64392  0.11410  1.0000
  C   C1022     1.0  0.96899  0.55734  0.12713  1.0000
  H   H1018     1.0  0.93449  0.53468  0.15363  1.0000
  N   N84       1.0  0.96104  0.53618  0.99850  1.0000
  H   H1019     1.0  0.83102  0.49628  0.48193  1.0000
  H   H1020     1.0  0.97277  0.56726  0.10789  1.0000
  C   C1023     1.0  0.78728  0.49730  0.43302  1.0000
  C   C1024     1.0  0.74935  0.61344  0.19021  1.0000
  H   H1021     1.0  0.89266  0.49141  0.57513  1.0000
  C   C1025     1.0  0.79407  0.57856  0.17632  1.0000
  C   C1026     1.0  0.96862  0.52734  0.97026  1.0000
  C   C1027     1.0  0.79368  0.51255  0.44476  1.0000
  C   C1028     1.0  0.80948  0.51197  0.46268  1.0000
  N   N85       1.0  0.74705  0.55869  0.53883  1.0000
  C   C1029     1.0  0.98006  0.55015  0.88901  1.0000
  H   H1022     1.0  0.81457  0.52365  0.47197  1.0000
  H   H1023     1.0  0.76860  0.70653  0.96077  1.0000
  C   C1030     1.0  0.98248  0.59230  0.18833  1.0000
  C   C1031     1.0  0.84271  0.62032  0.04266  1.0000
  C   C1032     1.0  0.84650  0.63141  0.01321  1.0000
  C   C1033     1.0  0.86333  0.63184  0.99836  1.0000
  C   C1034     1.0  0.87666  0.62136  0.01290  1.0000
  C   C1035     1.0  0.87283  0.61016  0.04214  1.0000
  C   C1036     1.0  0.85597  0.60962  0.05678  1.0000
  H   H1024     1.0  0.83647  0.63961  0.00175  1.0000
  H   H1025     1.0  0.86611  0.64049  0.97562  1.0000
  H   H1026     1.0  0.88289  0.60199  0.05360  1.0000
  H   H1027     1.0  0.85322  0.60092  0.07942  1.0000
  H   H1028     1.0  0.76331  0.59318  0.09964  1.0000
  H   H1029     1.0  0.81156  0.50562  0.36919  1.0000
  H   H1030     1.0  0.80132  0.73247  0.08519  1.0000
  C   C1037     1.0  0.87495  0.66782  0.03861  1.0000
  H   H1031     1.0  0.94378  0.51565  0.63085  1.0000
  S   S353      1.0  0.97964  0.49716  0.29594  1.0000
  C   C1038     1.0  0.77237  0.71361  0.14218  1.0000
  C   C1039     1.0  0.78438  0.71521  0.11330  1.0000
  H   H1032     1.0  0.80248  0.57475  0.19853  1.0000
  C   C1040     1.0  0.83032  0.66723  0.07823  1.0000
  H   H1033     1.0  0.81337  0.59198  0.14501  1.0000
  H   H1034     1.0  0.93317  0.51286  0.93123  1.0000
  C   C1041     1.0  0.94097  0.51909  0.95071  1.0000
  S   S354      1.0  0.74872  0.53700  0.35184  1.0000
  H   H1035     1.0  0.75599  0.54096  0.49878  1.0000
  H   H1036     1.0  0.93661  0.59393  0.15155  1.0000
  H   H1037     1.0  0.79369  0.60094  0.09543  1.0000
  H   H1038     1.0  0.82313  0.65763  0.06385  1.0000
  C   C1042     1.0  0.96173  0.60448  0.14798  1.0000
  H   H1039     1.0  0.90889  0.50180  0.62701  1.0000
  C   C1043     1.0  0.88318  0.65524  0.06012  1.0000
  H   H1040     1.0  0.75897  0.72610  0.18711  1.0000
  H   H1041     1.0  0.76630  0.70162  0.14713  1.0000
  S   S355      1.0  0.75416  0.66161  0.07091  1.0000
  N   N86       1.0  0.84872  0.66364  0.07287  1.0000
  C   C1044     1.0  0.75271  0.59404  0.25756  1.0000
  C   C1045     1.0  0.94935  0.59372  0.16274  1.0000
  C   C1046     1.0  0.97182  0.54519  0.02329  1.0000
  H   H1042     1.0  0.82660  0.66671  0.10785  1.0000
  H   H1043     1.0  0.88011  0.63647  0.10355  1.0000
  S   S356      1.0  0.74728  0.65495  0.96679  1.0000
  S   S357      1.0  0.74670  0.62381  0.14598  1.0000
  H   H1044     1.0  0.91951  0.52906  0.98278  1.0000
  H   H1045     1.0  0.94443  0.57333  0.20174  1.0000
  H   H1046     1.0  0.77218  0.56687  0.20138  1.0000
  H   H1047     1.0  0.74492  0.62185  0.85177  1.0000
  H   H1048     1.0  0.96412  0.55168  0.04518  1.0000
  C   C1047     1.0  0.75770  0.71288  0.02797  1.0000
  C   C1048     1.0  0.85758  0.67185  0.04531  1.0000
  C   C1049     1.0  0.76524  0.61146  0.20710  1.0000
  H   H1049     1.0  0.93758  0.54380  0.02563  1.0000
  H   H1050     1.0  0.85115  0.68130  0.02782  1.0000
  C   C1050     1.0  0.76687  0.60183  0.24037  1.0000
  C   C1051     1.0  0.94363  0.53668  0.00338  1.0000
  H   H1051     1.0  0.77927  0.60030  0.25279  1.0000
  C   C1052     1.0  0.97036  0.58150  0.20407  1.0000
  H   H1052     1.0  0.88186  0.67394  0.01608  1.0000
  H   H1053     1.0  0.76631  0.57153  0.56649  1.0000
  H   H1054     1.0  0.77516  0.49747  0.41931  1.0000
  C   C1053     1.0  0.77691  0.57408  0.17769  1.0000
  C   C1054     1.0  0.93332  0.52825  0.97941  1.0000
  H   H1055     1.0  0.95531  0.52252  0.19837  1.0000
  N   N87       1.0  0.97805  0.60362  0.16069  1.0000
  C   C1055     1.0  0.98075  0.55049  0.15267  1.0000
  H   H1056     1.0  0.83280  0.52638  0.38654  1.0000
  H   H1057     1.0  0.82635  0.68012  0.06754  1.0000
  C   C1056     1.0  0.85304  0.50716  0.39433  1.0000
  C   C1057     1.0  0.76091  0.69602  0.97242  1.0000
  H   H1058     1.0  0.98727  0.53045  0.85044  1.0000
  C   C1058     1.0  0.79206  0.73099  0.10745  1.0000
  N   N88       1.0  0.75118  0.70125  0.00537  1.0000
  N   N89       1.0  0.76606  0.57940  0.15045  1.0000
  H   H1059     1.0  0.86226  0.51629  0.40206  1.0000
  C   C1059     1.0  0.77196  0.58880  0.12101  1.0000
  H   H1060     1.0  0.97897  0.55503  0.00751  1.0000
  C   C1060     1.0  0.78906  0.59336  0.11860  1.0000
  H   H1061     1.0  0.75597  0.56306  0.48425  1.0000
  C   C1061     1.0  0.95873  0.51850  0.94623  1.0000
  C   C1062     1.0  0.75309  0.56789  0.56679  1.0000
  S   S358      1.0  0.98990  0.53168  0.21403  1.0000
  H   H1062     1.0  0.75227  0.69207  0.95065  1.0000
  C   C1063     1.0  0.95372  0.58219  0.19101  1.0000
  C   C1064     1.0  0.76822  0.72757  0.16483  1.0000
  H   H1063     1.0  0.98640  0.62834  0.14650  1.0000
  C   C1065     1.0  0.74880  0.71767  0.06004  1.0000
  H   H1064     1.0  0.77003  0.71827  0.02179  1.0000
  S   S359      1.0  0.75598  0.58094  0.29821  1.0000
  H   H1065     1.0  0.93619  0.49853  0.66038  1.0000
  Fe  Fe178     1.0  0.98783  0.50500  0.23826  1.0000
  C   C1066     1.0  0.75833  0.55405  0.50770  1.0000
  C   C1067     1.0  0.91581  0.49663  0.60342  1.0000
  H   H1066     1.0  0.74524  0.61410  0.56085  1.0000
  H   H1067     1.0  0.74679  0.58105  0.61704  1.0000
  C   C1068     1.0  0.81885  0.49644  0.46845  1.0000
  C   C1069     1.0  0.80015  0.58826  0.14651  1.0000
  H   H1068     1.0  0.96473  0.51188  0.92322  1.0000
  C   C1070     1.0  0.99077  0.61480  0.14385  1.0000
  C   C1071     1.0  0.74815  0.57456  0.15201  1.0000
  H   H1069     1.0  0.77208  0.55425  0.51457  1.0000
  Fe  Fe179     1.0  0.74345  0.56556  0.34674  1.0000
  C   C1072     1.0  0.83651  0.51298  0.38519  1.0000
  H   H1070     1.0  0.76962  0.68499  0.97933  1.0000
  H   H1071     1.0  0.75405  0.72689  0.07789  1.0000
  H   H1072     1.0  0.98236  0.52748  0.96558  1.0000
  C   C1073     1.0  0.82458  0.50132  0.37523  1.0000
  C   C1074     1.0  0.90656  0.49089  0.57406  1.0000
  H   H1073     1.0  0.98104  0.53615  0.03686  1.0000
  C   C1075     1.0  0.98894  0.65150  0.07570  1.0000
  C   C1076     1.0  0.98918  0.66500  0.10036  1.0000
  H   H1074     1.0  0.74657  0.56310  0.13552  1.0000
  H   H1075     1.0  0.75522  0.62713  0.91440  1.0000
  N   N90       1.0  0.93330  0.49523  0.60297  1.0000
  H   H1076     1.0  0.87938  0.49085  0.42764  1.0000
  C   C1077     1.0  0.74610  0.63601  0.90179  1.0000
  H   H1077     1.0  0.95579  0.49564  0.63535  1.0000
  H   H1078     1.0  0.74374  0.57192  0.18077  1.0000
  H   H1079     1.0  0.99237  0.61221  0.11407  1.0000
  H   H1080     1.0  0.99315  0.55310  0.89429  1.0000
  S   S360      1.0  0.76042  0.89497  0.86805  1.0000
  C   C1078     1.0  0.83334  0.96208  0.89284  1.0000
  C   C1079     1.0  0.98740  0.80229  0.18468  1.0000
  S   S361      1.0  0.77015  0.94797  0.86123  1.0000
  H   H1081     1.0  0.93884  0.92105  0.16951  1.0000
  C   C1080     1.0  0.76727  0.76765  0.29137  1.0000
  Fe  Fe180     1.0  0.77249  0.81496  0.25523  1.0000
  S   S362      1.0  0.79387  0.79577  0.24112  1.0000
  C   C1081     1.0  0.74955  0.81729  0.35517  1.0000
  Fe  Fe181     1.0  0.76935  0.82597  0.17199  1.0000
  S   S363      1.0  0.78989  0.80696  0.15415  1.0000
  S   S364      1.0  0.75467  0.84517  0.13365  1.0000
  Fe  Fe182     1.0  0.77769  0.78836  0.19399  1.0000
  S   S365      1.0  0.77014  0.76044  0.18890  1.0000
  Fe  Fe183     1.0  0.80464  0.81583  0.20263  1.0000
  S   S366      1.0  0.83274  0.82190  0.18834  1.0000
  S   S367      1.0  0.75598  0.80686  0.20939  1.0000
  S   S368      1.0  0.78443  0.83557  0.21907  1.0000
  Fe  Fe184     1.0  0.92595  0.85453  0.25041  1.0000
  S   S369      1.0  0.94759  0.85164  0.29074  1.0000
  S   S370      1.0  0.89906  0.84682  0.27000  1.0000
  Fe  Fe185     1.0  0.94950  0.87079  0.19270  1.0000
  S   S371      1.0  0.97248  0.86875  0.22812  1.0000
  S   S372      1.0  0.94931  0.88290  0.13572  1.0000
  Fe  Fe186     1.0  0.96373  0.84235  0.24224  1.0000
  C   C1082     1.0  0.78791  0.74494  0.13011  1.0000
  Fe  Fe187     1.0  0.95478  0.87828  0.27359  1.0000
  S   S373      1.0  0.96296  0.90257  0.30168  1.0000
  S   S374      1.0  0.94175  0.84372  0.20341  1.0000
  S   S375      1.0  0.93210  0.88168  0.23663  1.0000
  Fe  Fe188     1.0  0.98510  0.95592  0.48544  1.0000
  H   H1082     1.0  0.97719  0.81046  0.17388  1.0000
  N   N91       1.0  0.97093  0.94877  0.16812  1.0000
  H   H1083     1.0  0.74550  0.75214  0.24861  1.0000
  C   C1083     1.0  0.94120  0.80073  0.23356  1.0000
  S   S376      1.0  0.95431  0.96942  0.93691  1.0000
  H   H1084     1.0  0.93185  0.93066  0.36911  1.0000
  H   H1085     1.0  0.93903  0.96081  0.37740  1.0000
  H   H1086     1.0  0.78376  0.86834  0.16151  1.0000
  C   C1084     1.0  0.96406  0.89833  0.12157  1.0000
  H   H1087     1.0  0.77550  0.78035  0.37737  1.0000
  C   C1085     1.0  0.97190  0.92130  0.07877  1.0000
  H   H1088     1.0  0.87577  0.98528  0.88348  1.0000
  C   C1086     1.0  0.99242  0.80403  0.22095  1.0000
  C   C1087     1.0  0.97910  0.90050  0.14062  1.0000
  N   N92       1.0  0.85093  0.98506  0.90859  1.0000
  H   H1089     1.0  0.82113  0.95594  0.89449  1.0000
  C   C1088     1.0  0.97336  0.92318  0.41686  1.0000
  C   C1089     1.0  0.96799  0.90643  0.41319  1.0000
  C   C1090     1.0  0.96488  0.89982  0.37836  1.0000
  C   C1091     1.0  0.96714  0.90989  0.34653  1.0000
  C   C1092     1.0  0.97262  0.92661  0.35018  1.0000
  C   C1093     1.0  0.97576  0.93321  0.38501  1.0000
  S   S377      1.0  0.97403  0.98234  0.47517  1.0000
  H   H1090     1.0  0.96071  0.88695  0.37617  1.0000
  C   C1094     1.0  0.86192  0.96385  0.86713  1.0000
  C   C1095     1.0  0.75050  0.77651  0.35633  1.0000
  C   C1096     1.0  0.94983  0.92767  0.17869  1.0000
  H   H1091     1.0  0.95057  0.94468  0.13177  1.0000
  C   C1097     1.0  0.78713  0.87216  0.13352  1.0000
  C   C1098     1.0  0.81551  0.95043  0.80177  1.0000
  C   C1099     1.0  0.85090  0.82906  0.21179  1.0000
  C   C1100     1.0  0.86613  0.83203  0.19151  1.0000
  C   C1101     1.0  0.88087  0.83768  0.20859  1.0000
  C   C1102     1.0  0.88063  0.84042  0.24639  1.0000
  C   C1103     1.0  0.86546  0.83733  0.26673  1.0000
  C   C1104     1.0  0.85069  0.83177  0.24961  1.0000
  H   H1092     1.0  0.86652  0.82999  0.16226  1.0000
  H   H1093     1.0  0.89239  0.83993  0.19246  1.0000
  H   H1094     1.0  0.86506  0.83934  0.29598  1.0000
  H   H1095     1.0  0.83915  0.82956  0.26571  1.0000
  Fe  Fe189     1.0  0.75486  0.92347  0.86930  1.0000
  C   C1105     1.0  0.75511  0.81782  0.39170  1.0000
  C   C1106     1.0  0.86389  0.97871  0.88651  1.0000
  H   H1096     1.0  0.79399  0.75693  0.12519  1.0000
  C   C1107     1.0  0.78951  0.95496  0.83929  1.0000
  C   C1108     1.0  0.80039  0.94422  0.81852  1.0000
  C   C1109     1.0  0.80929  0.97816  0.82654  1.0000
  C   C1110     1.0  0.79412  0.97197  0.84312  1.0000
  H   H1097     1.0  0.93858  0.96844  0.50405  1.0000
  H   H1098     1.0  0.94964  0.94860  0.51526  1.0000
  H   H1099     1.0  0.94505  0.97368  0.79576  1.0000
  C   C1111     1.0  0.75536  0.85238  0.08635  1.0000
  C   C1112     1.0  0.76787  0.84658  0.06101  1.0000
  C   C1113     1.0  0.76852  0.85357  0.02475  1.0000
  H   H1100     1.0  0.77717  0.83681  0.06941  1.0000
  H   H1101     1.0  0.77836  0.84902  0.00569  1.0000
  H   H1102     1.0  0.82498  0.85164  0.12559  1.0000
  C   C1114     1.0  0.96055  0.90872  0.09055  1.0000
  H   H1103     1.0  0.89912  0.80078  0.21207  1.0000
  C   C1115     1.0  0.81134  0.85145  0.13473  1.0000
  H   H1104     1.0  0.96905  0.92925  0.05485  1.0000
  H   H1105     1.0  0.79711  0.93113  0.81514  1.0000
  N   N93       1.0  0.92321  0.80875  0.28508  1.0000
  C   C1116     1.0  0.93919  0.80570  0.27002  1.0000
  C   C1117     1.0  0.90896  0.80648  0.26497  1.0000
  S   S378      1.0  0.83988  0.97418  0.78510  1.0000
  C   C1118     1.0  0.91050  0.80184  0.22823  1.0000
  C   C1119     1.0  0.92126  0.81375  0.32347  1.0000
  H   H1106     1.0  0.95054  0.80730  0.28597  1.0000
  H   H1107     1.0  0.89628  0.80889  0.27691  1.0000
  C   C1120     1.0  0.82013  0.96742  0.80563  1.0000
  C   C1121     1.0  0.93617  0.98243  0.92641  1.0000
  H   H1108     1.0  0.77156  0.89709  0.06345  1.0000
  S   S379      1.0  0.76521  0.81696  0.31774  1.0000
  N   N94       1.0  0.93546  0.94818  0.46665  1.0000
  H   H1109     1.0  0.77393  0.76437  0.26592  1.0000
  C   C1122     1.0  0.93160  0.93156  0.46231  1.0000
  H   H1110     1.0  0.79640  0.88313  0.03139  1.0000
  C   C1123     1.0  0.92990  0.92511  0.42722  1.0000
  C   C1124     1.0  0.93951  0.98654  0.78888  1.0000
  C   C1125     1.0  0.93768  0.95438  0.50375  1.0000
  C   C1126     1.0  0.93244  0.93571  0.39648  1.0000
  H   H1111     1.0  0.92735  0.91181  0.42383  1.0000
  C   C1127     1.0  0.98701  0.92333  0.09758  1.0000
  H   H1112     1.0  0.94155  0.97171  0.43999  1.0000
  S   S380      1.0  0.98280  0.81964  0.25054  1.0000
  H   H1113     1.0  0.98192  0.89261  0.16458  1.0000
  C   C1128     1.0  0.92646  0.97845  0.89612  1.0000
  H   H1114     1.0  0.93033  0.92308  0.48606  1.0000
  C   C1129     1.0  0.77680  0.77192  0.32155  1.0000
  C   C1130     1.0  0.97863  0.94391  0.20024  1.0000
  H   H1115     1.0  0.98991  0.95018  0.20887  1.0000
  H   H1116     1.0  0.78585  0.98047  0.85898  1.0000
  H   H1117     1.0  0.79063  0.77228  0.31922  1.0000
  S   S381      1.0  0.97576  0.93113  0.46190  1.0000
  H   H1118     1.0  0.74379  0.78053  0.38125  1.0000
  H   H1119     1.0  0.76526  0.88956  0.12902  1.0000
  S   S382      1.0  0.98258  0.95783  0.54701  1.0000
  C   C1131     1.0  0.84656  0.95546  0.87053  1.0000
  N   N95       1.0  0.74979  0.76798  0.29357  1.0000
  H   H1120     1.0  0.97421  0.96200  0.11674  1.0000
  H   H1121     1.0  0.81109  0.85317  0.16493  1.0000
  S   S383      1.0  0.96932  0.97506  0.04193  1.0000
  N   N96       1.0  0.80094  0.86466  0.11576  1.0000
  C   C1132     1.0  0.97771  0.96290  0.14594  1.0000
  H   H1122     1.0  0.96610  0.89851  0.43756  1.0000
  H   H1123     1.0  0.75273  0.83686  0.68428  1.0000
  C   C1133     1.0  0.95660  0.94096  0.15740  1.0000
  C   C1134     1.0  0.99059  0.91287  0.12846  1.0000
  H   H1124     1.0  0.74608  0.82026  0.62982  1.0000
  C   C1135     1.0  0.95773  0.92252  0.21123  1.0000
  C   C1136     1.0  0.83567  0.97711  0.91148  1.0000
  H   H1125     1.0  0.97264  0.97526  0.15647  1.0000
  H   H1126     1.0  0.92671  0.95099  0.52204  1.0000
  H   H1127     1.0  0.95275  0.91212  0.22780  1.0000
  C   C1137     1.0  0.74401  0.87206  0.03813  1.0000
  H   H1128     1.0  0.84465  0.94423  0.85466  1.0000
  H   H1129     1.0  0.99193  0.96257  0.14609  1.0000
  H   H1130     1.0  0.82371  0.94196  0.78568  1.0000
  Fe  Fe190     1.0  0.97292  0.98473  0.53717  1.0000
  H   H1131     1.0  0.74809  0.81787  0.44977  1.0000
  H   H1132     1.0  0.95392  0.79856  0.22168  1.0000
  C   C1138     1.0  0.93803  0.95867  0.43663  1.0000
  H   H1133     1.0  0.80643  0.83873  0.12930  1.0000
  H   H1134     1.0  0.92984  0.96716  0.88083  1.0000
  H   H1135     1.0  0.94896  0.90708  0.07563  1.0000
  Fe  Fe191     1.0  0.97310  0.97585  0.98044  1.0000
  C   C1139     1.0  0.92675  0.79897  0.21246  1.0000
  H   H1136     1.0  0.92814  0.79551  0.18391  1.0000
  C   C1140     1.0  0.80438  0.86854  0.07959  1.0000
  C   C1141     1.0  0.93654  0.95260  0.40113  1.0000
  C   C1142     1.0  0.79409  0.88053  0.06045  1.0000
  C   C1143     1.0  0.77660  0.88423  0.11527  1.0000
  C   C1144     1.0  0.78011  0.88839  0.07848  1.0000
  H   H1137     1.0  0.91010  0.82281  0.32702  1.0000
  H   H1138     1.0  0.81487  0.86204  0.06509  1.0000
  Fe  Fe192     1.0  0.74628  0.89358  0.92325  1.0000
  H   H1139     1.0  0.82514  0.98242  0.92787  1.0000
  H   H1140     1.0  0.97443  0.93456  0.32586  1.0000
  H   H1141     1.0  0.93264  0.82042  0.33248  1.0000
  H   H1142     1.0  0.96287  0.98377  0.84171  1.0000
  C   C1145     1.0  0.97219  0.93067  0.22220  1.0000
  H   H1143     1.0  0.92556  0.98517  0.78500  1.0000
  H   H1144     1.0  0.87202  0.95912  0.84874  1.0000
  C   C1146     1.0  0.75669  0.86646  0.01296  1.0000
  H   H1145     1.0  0.91936  0.80235  0.34144  1.0000
  H   H1146     1.0  0.97985  0.94610  0.38722  1.0000
  H   H1147     1.0  0.76864  0.81857  0.39657  1.0000
  S   S384      1.0  0.75903  0.87560  0.96737  1.0000
  H   H1148     1.0  0.97836  0.92665  0.24753  1.0000
  C   C1147     1.0  0.76832  0.77637  0.35420  1.0000
  H   H1149     1.0  0.90576  0.98625  0.86084  1.0000
  C   C1148     1.0  0.74612  0.82502  0.68773  1.0000
  C   C1149     1.0  0.77596  0.74334  0.15909  1.0000
  C   C1150     1.0  0.91279  0.98925  0.88478  1.0000
  H   H1150     1.0  0.99162  0.78873  0.13426  1.0000
  C   C1151     1.0  0.74338  0.86509  0.07440  1.0000
  C   C1152     1.0  0.74341  0.81739  0.42215  1.0000
  H   H1151     1.0  0.99172  0.85548  0.15463  1.0000
  H   H1152     1.0  0.74323  0.82685  0.74642  1.0000
