data_image0
_chemical_formula_structural       Fe2HSFeHNS2FeS2FeS2FeSFeS3HFeS2FeS2FeCFeS3CHC4HCHC6H4C6H4C3HC2HC2H2NCHC6H4CH6CH2CSH6C3HCHCHSHCHC3HCH3CH2CHCH2C2H2SC2HC2NCH2CH2CNCHC2SHSHCHCHC2H3C3SCHSFeCSFeS3CHNFeS2FeSCFeSFeS2CFeSHFeS2FeHFeS3HC6H4CSCH2C4HC6H3C7H4C3HCNCH2CH2CNCH3C3H2C2HSHC2H3NCNHCH3C2HC2H2FeH2CHCH6CH2CHCSC2H5NCHCHNH2FeC2FeS2FeSCFeHFeHS2FeS2FeS2FeSFeS3CFeS2FeS2FeSFeS3C8NH2SC4H2C2HC2H2C6H5C6H4C3H2C5HCHC9HC4NC3H6SCHC2H4NH3SH4CHC2HCSHSH3SCH5NC3H3CFeNH4C2H3S2CFe2CHSHSH2CHC3FeC3H2CSH3SH3SC2HC2SNSCHCHCH2C2NFeC2H2C2H3C2H3CHNCH2CH3C2HCH2CHCHCH2CH2C2HFeS2FeS2FeHFeS3HFeS2FeS2FeSFeS3CH2CH2C7H4C6H4C4H6C3H2CHC2H3CNC6H2CHC2NC2H5CHNC2H6C4H2C2H2NCSH4CNC2NHCHCH4SC3HFeSCFeS2FeSFeS2FeSHFeS2FeSFeS3C4HCHC2HC2H3C8H4C6H7C4HNC6H6CHNH4NH4SH2C8SH3C2HCHCNCHCNCH5SC2H5CHC2HCH5CH2CHC2S2NSC3SNHFeHFeSHC4HCH2SHC5H3CHCH2C3HCH3CH2FeCHC4FeC2H2SC2HSHC3HCNH5C2FeH6SH3C3H5CNHCFeSHFeS2FeSFeS3FeS2FeS2FeSFeS3FeS2FeSCFeCFeS3CH2C5NHC6H4CNC4HC4HSCH4C4SHC7H4CHCHC4HCHCHCHNC6H6CHSHCH2CH2CH5C4HCSH4SHCH2CH2CFeNCH3CNH2CH2S2CFeSH2FeHSFeS2FeH3S2FeS2FeSCFeSFeCS2NH2C7H4CHCHCHCHC2HC11H2CHC5SCH2C4H7CH2C2SHFeH4C2NC2NHNC2FeHCH2CHCHC2HFeCSCH5SCS2H2CH4CHCHCNSC2FeS2FeHFeS3FeS2FeS2FeSFeS3CFeS2FeS2Fe2S3H2C3H2C9HCHC7H4C4H3CH2C7H5C2H2C5H5CH2CH4CH3NCHNHCNC6H7NC2HC2H4SH2CHC2HC2NH4SH5CSHCHCHC2H2CFe2S2FeS2FeSFeS3C2SHFeS2FeS2FeSFeS3C6H4C6H5C6H4C6H2CHC6H4NC6H8CNC6H7NH2SH6SCHNC6H4C3SHCHCHCH4S2FeNH2SHCFe2S2FeSFeSFeCSCHS2H2FeS2FeHSFeHFeCS2CHFeS2FeSHSFeC2SC6H5C2H4C4H2CHC7H4C6H9CHCSCSHC3H2C4HCH4CNC6H8SNHC2FeHNCHCHCNH2FeCSCH2CHCNHNCS2HCHCSCH3C2SH3FeS2H2FeH2SCFeS2FeS2FeSFeS3HFeS2FeS2FeSFeS3FeS3C4HC6H4C6H4C6H4C6H4C3HC2H2C6H4C4HC2H3NC2HCH2CH2CH5C3HCNC2H2CHCH2CSHFeCSNH7FeCH2CHC2N2HC3HCHNC3H2C2HCHCH2SH2SFeH5S2HSFeH3CH3C2HC3HC3HCH3SCH5NH2CSC2HCNFeCHCSH2CSH2CH3CHSFeS2FeSHFeSFeS3CFeS2FeS2FeSFeS3C2NCHCHC6H4C6H4C2HC4H2C2H5NC7H2C2H5C2H2CNC5HCH3CH2NC6H10CHC2H2NHC2H2C2HC2HNFeS2FeS2FeSFeS2FeS2FeS2FeSFeCS2C6H4C6H5CH2C8H3C6H5C4H7CNC3NCSH3CHC2HC2HSCH2C2HCH2CNH4CNCHCH4CH5NC2HCH3CHCHCH2CH5C5S3H3SHFeH2C2H3NC7H6CSCFeS2HCS2C2HNCFeSFeHC2H3C2HCHCHCHFeCHCH3FeS2FeS2FeSFeS3FeS2FeS2FeSFeS3H2FeSHCFeSHSFe2SHS2HCH2C6H4C5H5C3HC2H4C6H4C6H5C2HC7H2C2HCHCH2C3NCHSH2CNHSH4CHNH3CNC6H10FeC2NC9HC2SCHNCH3CHC3HSH2FeHCH2SHSFeSFeSCNFeS2H2CSFe2SCFeSFeS2CFeS2HNHFeSHSC2SCH2C6H4C3SFeNC4H2C6H4C6H4CH5NC4HSH3CHC2SCH2C3HC3H5C3H2C2H4SH4C2H5FeCHCHCH2C5HS3FeS2FeS2FeSFeS3H2SFeS2FeS2FeSFeS2C6H4C6H4C6H4C4HNC7H5C3H2CNC6H10C5H2CHN2C3HCH2FeHFeHC3NHSC3H4CH2CHC2H10SHSHCSCH3CHC2
_chemical_formula_sum              "Fe192 H1152 S384 N96 C1152"
_cell_length_a       66.0285
_cell_length_b       59.3671
_cell_length_c       57.0581
_cell_angle_alpha    88.753
_cell_angle_beta     89.5237
_cell_angle_gamma    88.9365

_space_group_name_H-M_alt    "P 1"
_space_group_IT_number       1

loop_
  _space_group_symop_operation_xyz
  'x, y, z'

loop_
  _atom_site_type_symbol
  _atom_site_label
  _atom_site_symmetry_multiplicity
  _atom_site_fract_x
  _atom_site_fract_y
  _atom_site_fract_z
  _atom_site_occupancy
  Fe  Fe1       1.0  0.02962  0.12249  0.48623  1.0000
  Fe  Fe2       1.0  0.06434  0.14337  0.45804  1.0000
  H   H1        1.0  0.14107  0.31090  0.42602  1.0000
  S   S1        1.0  0.07176  0.16290  0.42442  1.0000
  Fe  Fe3       1.0  0.07215  0.10192  0.48967  1.0000
  H   H2        1.0  0.13950  0.12734  0.14098  1.0000
  N   N1        1.0  0.17130  0.30302  0.43679  1.0000
  S   S2        1.0  0.05113  0.10870  0.45921  1.0000
  S   S3        1.0  0.04116  0.15807  0.48299  1.0000
  Fe  Fe4       1.0  0.20704  0.17940  0.31114  1.0000
  S   S4        1.0  0.19311  0.21058  0.29353  1.0000
  S   S5        1.0  0.23661  0.16455  0.29532  1.0000
  Fe  Fe5       1.0  0.17020  0.17447  0.34350  1.0000
  S   S6        1.0  0.15415  0.20472  0.32810  1.0000
  S   S7        1.0  0.15702  0.15159  0.37213  1.0000
  Fe  Fe6       1.0  0.16386  0.19172  0.29274  1.0000
  S   S8        1.0  0.14004  0.19672  0.26356  1.0000
  Fe  Fe7       1.0  0.18437  0.22164  0.32997  1.0000
  S   S9        1.0  0.18278  0.25926  0.33928  1.0000
  S   S10       1.0  0.17803  0.16003  0.30821  1.0000
  S   S11       1.0  0.20017  0.19183  0.34761  1.0000
  H   H3        1.0  0.09422  0.08929  0.10686  1.0000
  Fe  Fe8       1.0  0.08345  0.15879  0.14309  1.0000
  S   S12       1.0  0.06582  0.13092  0.12653  1.0000
  S   S13       1.0  0.10723  0.14908  0.17129  1.0000
  Fe  Fe9       1.0  0.06493  0.19421  0.10883  1.0000
  S   S14       1.0  0.04595  0.16900  0.09039  1.0000
  S   S15       1.0  0.06741  0.23219  0.10185  1.0000
  Fe  Fe10      1.0  0.03856  0.15444  0.12644  1.0000
  C   C1        1.0  0.21391  0.26968  0.28940  1.0000
  Fe  Fe11      1.0  0.07451  0.14706  0.09171  1.0000
  S   S16       1.0  0.08433  0.12599  0.06007  1.0000
  S   S17       1.0  0.05585  0.18149  0.14499  1.0000
  S   S18       1.0  0.09369  0.17312  0.10810  1.0000
  C   C2        1.0  0.14580  0.11480  0.02206  1.0000
  H   H4        1.0  0.18951  0.25196  0.42066  1.0000
  C   C3        1.0  0.10904  0.11142  0.02396  1.0000
  C   C4        1.0  0.10792  0.12403  0.04459  1.0000
  C   C5        1.0  0.12581  0.13277  0.05336  1.0000
  C   C6        1.0  0.14461  0.12794  0.04232  1.0000
  H   H5        1.0  0.21807  0.27754  0.27223  1.0000
  C   C7        1.0  0.15524  0.31944  0.43076  1.0000
  H   H6        1.0  0.12526  0.14252  0.06916  1.0000
  C   C8        1.0  0.04668  0.27763  0.03966  1.0000
  C   C9        1.0  0.04147  0.25473  0.04065  1.0000
  C   C10       1.0  0.04815  0.24039  0.05917  1.0000
  C   C11       1.0  0.05971  0.24897  0.07725  1.0000
  C   C12       1.0  0.06481  0.27188  0.07632  1.0000
  C   C13       1.0  0.05850  0.28611  0.05755  1.0000
  H   H7        1.0  0.00295  0.09876  0.44071  1.0000
  H   H8        1.0  0.04409  0.22281  0.05968  1.0000
  H   H9        1.0  0.07366  0.27872  0.09028  1.0000
  H   H10       1.0  0.06259  0.30368  0.05707  1.0000
  C   C14       1.0  0.11655  0.16309  0.19644  1.0000
  C   C15       1.0  0.10819  0.18345  0.20426  1.0000
  C   C16       1.0  0.11581  0.19355  0.22454  1.0000
  C   C17       1.0  0.13200  0.18365  0.23727  1.0000
  C   C18       1.0  0.14047  0.16336  0.22938  1.0000
  C   C19       1.0  0.13273  0.15314  0.20921  1.0000
  H   H11       1.0  0.09577  0.19138  0.19475  1.0000
  H   H12       1.0  0.10907  0.20922  0.23039  1.0000
  H   H13       1.0  0.15293  0.15548  0.23886  1.0000
  H   H14       1.0  0.13939  0.13742  0.20339  1.0000
  C   C20       1.0  0.19212  0.27815  0.36046  1.0000
  C   C21       1.0  0.18294  0.29968  0.36227  1.0000
  C   C22       1.0  0.19042  0.31577  0.37775  1.0000
  H   H15       1.0  0.00504  0.19279  0.14388  1.0000
  C   C23       1.0  0.21678  0.28925  0.38943  1.0000
  C   C24       1.0  0.20890  0.27289  0.37454  1.0000
  H   H16       1.0  0.17006  0.30405  0.35137  1.0000
  C   C25       1.0  0.11769  0.29084  0.03024  1.0000
  C   C26       1.0  0.20297  0.27286  0.44657  1.0000
  H   H17       1.0  0.21610  0.25643  0.37359  1.0000
  H   H18       1.0  0.10916  0.26389  0.05418  1.0000
  N   N2        1.0  0.11271  0.16103  0.30329  1.0000
  C   C27       1.0  0.18832  0.26756  0.43018  1.0000
  H   H19       1.0  0.08888  0.18502  0.29637  1.0000
  C   C28       1.0  0.09603  0.16036  0.41105  1.0000
  C   C29       1.0  0.10929  0.14246  0.41673  1.0000
  C   C30       1.0  0.12801  0.14023  0.40487  1.0000
  C   C31       1.0  0.13383  0.15603  0.38750  1.0000
  C   C32       1.0  0.12080  0.17430  0.38227  1.0000
  C   C33       1.0  0.10189  0.17628  0.39379  1.0000
  H   H20       1.0  0.10493  0.13003  0.42989  1.0000
  H   H21       1.0  0.13795  0.12604  0.40904  1.0000
  H   H22       1.0  0.12519  0.18680  0.36923  1.0000
  H   H23       1.0  0.09178  0.19025  0.38940  1.0000
  C   C34       1.0  0.00548  0.20570  0.13014  1.0000
  H   H24       1.0  0.23009  0.28519  0.39975  1.0000
  H   H25       1.0  0.12296  0.12542  0.25906  1.0000
  H   H26       1.0  0.14275  0.10601  0.29086  1.0000
  H   H27       1.0  0.08437  0.24827  0.02712  1.0000
  H   H28       1.0  0.02717  0.14348  0.39433  1.0000
  H   H29       1.0  0.03229  0.24800  0.02692  1.0000
  C   C35       1.0  0.01358  0.14516  0.40507  1.0000
  H   H30       1.0  0.11866  0.03167  0.49407  1.0000
  H   H31       1.0  0.16187  0.27930  0.41167  1.0000
  C   C36       1.0  0.20165  0.29339  0.45798  1.0000
  S   S19       1.0  0.09232  0.07030  0.48968  1.0000
  H   H32       1.0  0.02871  0.25508  0.11709  1.0000
  H   H33       1.0  0.08089  0.01125  0.46919  1.0000
  H   H34       1.0  0.22489  0.08743  0.04871  1.0000
  H   H35       1.0  0.05944  0.02479  0.50205  1.0000
  H   H36       1.0  0.21323  0.28324  0.30257  1.0000
  H   H37       1.0  0.02934  0.15949  0.43380  1.0000
  C   C37       1.0  0.20756  0.31076  0.39128  1.0000
  C   C38       1.0  0.12298  0.13211  0.27662  1.0000
  C   C39       1.0  0.13410  0.12129  0.29441  1.0000
  H   H38       1.0  0.14330  0.12261  0.33064  1.0000
  C   C40       1.0  0.23340  0.24846  0.31922  1.0000
  H   H39       1.0  0.15163  0.33051  0.44580  1.0000
  C   C41       1.0  0.10690  0.27174  0.03700  1.0000
  H   H40       1.0  0.10145  0.07877  0.06603  1.0000
  S   S20       1.0  0.17016  0.10612  0.01132  1.0000
  H   H41       1.0  0.12849  0.29798  0.04209  1.0000
  C   C42       1.0  0.11232  0.15209  0.28140  1.0000
  H   H42       1.0  0.10422  0.16078  0.26730  1.0000
  C   C43       1.0  0.13439  0.13051  0.31668  1.0000
  C   C44       1.0  0.24440  0.12523  0.00961  1.0000
  C   C45       1.0  0.12369  0.15060  0.32074  1.0000
  H   H43       1.0  0.11294  0.19664  0.30376  1.0000
  C   C46       1.0  0.10240  0.18264  0.30768  1.0000
  H   H44       1.0  0.12449  0.15795  0.33787  1.0000
  H   H45       1.0  0.16430  0.11684  0.10966  1.0000
  H   H46       1.0  0.09729  0.18369  0.32624  1.0000
  C   C47       1.0  0.18560  0.30833  0.45286  1.0000
  H   H47       1.0  0.10478  0.11260  0.13996  1.0000
  H   H48       1.0  0.15371  0.09213  0.07769  1.0000
  C   C48       1.0  0.09279  0.26302  0.02162  1.0000
  H   H49       1.0  0.15839  0.13414  0.04979  1.0000
  C   C49       1.0  0.12779  0.10696  0.01266  1.0000
  H   H50       1.0  0.21558  0.26134  0.45002  1.0000
  H   H51       1.0  0.18489  0.32439  0.46150  1.0000
  C   C50       1.0  0.10975  0.09489  0.10764  1.0000
  C   C51       1.0  0.11551  0.10829  0.12622  1.0000
  H   H52       1.0  0.11801  0.05665  0.07771  1.0000
  H   H53       1.0  0.12697  0.07669  0.05579  1.0000
  S   S21       1.0  0.08688  0.13571  0.48622  1.0000
  C   C52       1.0  0.01485  0.15408  0.42737  1.0000
  C   C53       1.0  0.11720  0.07451  0.07163  1.0000
  H   H54       1.0  0.19848  0.26259  0.28829  1.0000
  C   C54       1.0  0.14901  0.11050  0.10938  1.0000
  C   C55       1.0  0.14291  0.09654  0.09136  1.0000
  N   N3        1.0  0.12338  0.08927  0.09046  1.0000
  C   C56       1.0  0.13516  0.11640  0.12690  1.0000
  H   H55       1.0  0.13501  0.08712  0.49974  1.0000
  H   H56       1.0  0.16027  0.33013  0.41567  1.0000
  C   C57       1.0  0.17264  0.28308  0.42523  1.0000
  H   H57       1.0  0.22722  0.25955  0.33239  1.0000
  H   H58       1.0  0.21321  0.29807  0.47027  1.0000
  C   C58       1.0  0.23018  0.11145  0.02066  1.0000
  N   N4        1.0  0.22845  0.25176  0.29615  1.0000
  C   C59       1.0  0.00755  0.23853  0.09494  1.0000
  H   H59       1.0  0.21487  0.11072  0.01391  1.0000
  C   C60       1.0  0.11439  0.30082  0.00820  1.0000
  C   C61       1.0  0.01785  0.22430  0.13299  1.0000
  S   S22       1.0  0.03827  0.29472  0.01561  1.0000
  H   H60       1.0  0.02708  0.22561  0.14853  1.0000
  S   S23       1.0  0.00710  0.14563  0.14274  1.0000
  H   H61       1.0  0.14751  0.12348  0.48318  1.0000
  C   C62       1.0  0.23584  0.09834  0.04019  1.0000
  H   H62       1.0  0.09534  0.10455  0.01697  1.0000
  C   C63       1.0  0.01876  0.24086  0.11532  1.0000
  H   H63       1.0  0.00864  0.25107  0.08087  1.0000
  C   C64       1.0  0.24614  0.23048  0.32619  1.0000
  C   C65       1.0  0.23583  0.23741  0.27954  1.0000
  H   H64       1.0  0.23129  0.23944  0.26138  1.0000
  H   H65       1.0  0.24970  0.22765  0.34455  1.0000
  H   H66       1.0  0.13871  0.15924  0.50324  1.0000
  C   C66       1.0  0.13876  0.12318  0.49937  1.0000
  C   C67       1.0  0.06581  0.00779  0.50264  1.0000
  C   C68       1.0  0.24865  0.21929  0.28589  1.0000
  S   S24       1.0  0.21840  0.33065  0.41033  1.0000
  C   C69       1.0  0.07789  0.00016  0.48416  1.0000
  H   H67       1.0  0.08020  0.03741  0.56863  1.0000
  S   S25       1.0  0.07526  0.16947  0.54131  1.0000
  Fe  Fe12      1.0  0.05736  0.29235  0.60487  1.0000
  C   C70       1.0  0.16832  0.05693  0.85391  1.0000
  S   S26       1.0  0.04575  0.26529  0.58038  1.0000
  Fe  Fe13      1.0  0.07851  0.31187  0.64776  1.0000
  S   S27       1.0  0.09191  0.31087  0.68522  1.0000
  S   S28       1.0  0.04681  0.29902  0.64205  1.0000
  S   S29       1.0  0.08969  0.30252  0.61131  1.0000
  C   C71       1.0  0.18481  0.04849  0.84106  1.0000
  H   H68       1.0  0.14677  0.31979  0.53017  1.0000
  N   N5        1.0  0.17128  0.25279  0.89824  1.0000
  Fe  Fe14      1.0  0.20764  0.31502  0.81471  1.0000
  S   S30       1.0  0.20901  0.28046  0.79917  1.0000
  S   S31       1.0  0.17571  0.32186  0.80166  1.0000
  Fe  Fe15      1.0  0.16476  0.30592  0.83552  1.0000
  S   S32       1.0  0.16382  0.27098  0.82096  1.0000
  C   C72       1.0  0.11319  0.01654  0.52821  1.0000
  Fe  Fe16      1.0  0.19591  0.26772  0.83371  1.0000
  S   S33       1.0  0.20982  0.23953  0.85707  1.0000
  Fe  Fe17      1.0  0.17651  0.28685  0.78777  1.0000
  S   S34       1.0  0.16744  0.27973  0.74967  1.0000
  S   S35       1.0  0.19626  0.30220  0.84996  1.0000
  C   C73       1.0  0.09998  0.29181  0.99340  1.0000
  Fe  Fe18      1.0  0.18233  0.09765  0.97445  1.0000
  S   S36       1.0  0.20461  0.12365  0.96172  1.0000
  H   H69       1.0  0.13063  0.26990  0.86634  1.0000
  Fe  Fe19      1.0  0.19154  0.06689  0.93182  1.0000
  S   S37       1.0  0.21460  0.09143  0.91776  1.0000
  S   S38       1.0  0.19027  0.03621  0.90723  1.0000
  Fe  Fe20      1.0  0.22567  0.09401  0.95496  1.0000
  H   H70       1.0  0.12096  0.23019  0.87488  1.0000
  Fe  Fe21      1.0  0.19182  0.11886  0.92579  1.0000
  S   S39       1.0  0.17962  0.14423  0.89798  1.0000
  S   S40       1.0  0.20407  0.06805  0.96884  1.0000
  S   S41       1.0  0.16815  0.09438  0.93873  1.0000
  H   H71       1.0  0.21840  0.08939  0.85285  1.0000
  C   C74       1.0  0.18862  0.17048  0.88655  1.0000
  C   C75       1.0  0.17749  0.18187  0.86879  1.0000
  C   C76       1.0  0.18379  0.20285  0.85935  1.0000
  C   C77       1.0  0.20139  0.21273  0.86755  1.0000
  C   C78       1.0  0.21255  0.20128  0.88522  1.0000
  C   C79       1.0  0.20621  0.18036  0.89472  1.0000
  H   H72       1.0  0.16390  0.17441  0.86223  1.0000
  H   H73       1.0  0.17506  0.21135  0.84574  1.0000
  H   H74       1.0  0.22625  0.20866  0.89164  1.0000
  H   H75       1.0  0.21501  0.17184  0.90827  1.0000
  C   C80       1.0  0.15869  0.26668  0.88534  1.0000
  S   S42       1.0  0.13514  0.31753  0.85256  1.0000
  C   C81       1.0  0.11020  0.03296  0.51032  1.0000
  H   H76       1.0  0.08181  0.25385  0.97107  1.0000
  H   H77       1.0  0.07448  0.06598  0.53670  1.0000
  C   C82       1.0  0.14037  0.25882  0.87687  1.0000
  C   C83       1.0  0.18749  0.08827  0.86529  1.0000
  C   C84       1.0  0.17508  0.01600  0.89282  1.0000
  C   C85       1.0  0.13385  0.14322  0.51063  1.0000
  H   H78       1.0  0.21600  0.05358  0.83116  1.0000
  C   C86       1.0  0.11289  0.30143  0.70284  1.0000
  C   C87       1.0  0.12858  0.28762  0.69429  1.0000
  C   C88       1.0  0.14481  0.28076  0.70903  1.0000
  C   C89       1.0  0.14582  0.28779  0.73244  1.0000
  C   C90       1.0  0.13010  0.30155  0.74101  1.0000
  C   C91       1.0  0.11378  0.30824  0.72634  1.0000
  H   H79       1.0  0.15678  0.27004  0.70216  1.0000
  H   H80       1.0  0.08554  0.12085  0.55439  1.0000
  H   H81       1.0  0.13055  0.30711  0.75893  1.0000
  C   C92       1.0  0.06695  0.19630  0.55166  1.0000
  C   C93       1.0  0.04924  0.20706  0.54358  1.0000
  C   C94       1.0  0.04300  0.22801  0.55274  1.0000
  C   C95       1.0  0.05441  0.23862  0.56995  1.0000
  C   C96       1.0  0.07230  0.22804  0.57778  1.0000
  C   C97       1.0  0.07844  0.20697  0.56877  1.0000
  C   C98       1.0  0.12183  0.14255  0.53096  1.0000
  H   H82       1.0  0.02914  0.23600  0.54651  1.0000
  H   H83       1.0  0.08126  0.23593  0.59098  1.0000
  H   H84       1.0  0.09214  0.19883  0.57523  1.0000
  H   H85       1.0  0.14382  0.20523  0.89895  1.0000
  C   C99       1.0  0.08536  0.05236  0.53429  1.0000
  C   C100      1.0  0.08859  0.03612  0.55232  1.0000
  C   C101      1.0  0.10238  0.01805  0.54930  1.0000
  H   H86       1.0  0.08569  0.27275  0.55255  1.0000
  C   C102      1.0  0.20600  0.32414  0.74701  1.0000
  N   N6        1.0  0.18852  0.33005  0.73229  1.0000
  C   C103      1.0  0.14767  0.22267  0.89533  1.0000
  H   H87       1.0  0.13846  0.08455  0.86956  1.0000
  H   H88       1.0  0.15121  0.33161  0.93538  1.0000
  C   C104      1.0  0.09613  0.05078  0.51317  1.0000
  H   H89       1.0  0.16285  0.28389  0.88123  1.0000
  H   H90       1.0  0.15451  0.04732  0.85488  1.0000
  C   C105      1.0  0.12959  0.32402  0.88215  1.0000
  N   N7        1.0  0.07969  0.29895  0.52765  1.0000
  C   C106      1.0  0.20433  0.08024  0.85277  1.0000
  H   H91       1.0  0.20469  0.30650  0.75366  1.0000
  H   H92       1.0  0.12816  0.28209  0.67636  1.0000
  H   H93       1.0  0.10258  0.13758  0.57071  1.0000
  C   C107      1.0  0.00973  0.28953  0.68880  1.0000
  C   C108      1.0  0.02882  0.28308  0.69721  1.0000
  C   C109      1.0  0.16583  0.23115  0.90363  1.0000
  H   H94       1.0  0.24035  0.13496  0.99397  1.0000
  H   H95       1.0  0.20170  0.24768  0.90998  1.0000
  C   C110      1.0  0.19030  0.26149  0.90718  1.0000
  C   C111      1.0  0.20295  0.06018  0.84063  1.0000
  H   H96       1.0  0.19725  0.27331  0.89418  1.0000
  S   S43       1.0  0.04989  0.11356  0.51704  1.0000
  H   H97       1.0  0.05233  0.30227  0.54745  1.0000
  C   C112      1.0  0.09397  0.30965  0.51415  1.0000
  C   C113      1.0  0.10147  0.12199  0.56036  1.0000
  H   H98       1.0  0.15079  0.07303  0.89555  1.0000
  H   H99       1.0  0.15476  0.10187  0.88623  1.0000
  H   H100      1.0  0.18749  0.27035  0.92385  1.0000
  N   N8        1.0  0.11510  0.12245  0.53995  1.0000
  C   C114      1.0  0.15259  0.08443  0.87998  1.0000
  N   N9        1.0  0.16982  0.07658  0.86580  1.0000
  H   H101      1.0  0.18879  0.10375  0.87485  1.0000
  C   C115      1.0  0.13493  0.23661  0.88176  1.0000
  H   H102      1.0  0.09729  0.29987  0.97643  1.0000
  H   H103      1.0  0.04018  0.19910  0.53050  1.0000
  H   H104      1.0  0.17586  0.22004  0.91370  1.0000
  C   C116      1.0  0.13944  0.33046  0.92241  1.0000
  C   C117      1.0  0.06351  0.31076  0.53656  1.0000
  H   H105      1.0  0.20014  0.00378  0.87191  1.0000
  C   C118      1.0  0.07415  0.26433  0.98448  1.0000
  C   C119      1.0  0.08199  0.27490  0.53363  1.0000
  H   H106      1.0  0.05734  0.29453  0.70971  1.0000
  H   H107      1.0  0.06544  0.27829  0.97569  1.0000
  Fe  Fe22      1.0  0.06303  0.14825  0.51153  1.0000
  H   H108      1.0  0.11428  0.08687  0.53589  1.0000
  H   H109      1.0  0.05408  0.00011  0.53705  1.0000
  C   C120      1.0  0.00425  0.31233  0.68753  1.0000
  H   H110      1.0  0.03345  0.26545  0.69777  1.0000
  C   C121      1.0  0.11995  0.10274  0.52908  1.0000
  H   H111      1.0  0.09409  0.26653  0.52317  1.0000
  H   H112      1.0  0.18364  0.03265  0.83207  1.0000
  H   H113      1.0  0.14702  0.02411  0.91038  1.0000
  H   H114      1.0  0.06281  0.25404  0.99419  1.0000
  H   H115      1.0  0.10507  0.10738  0.57219  1.0000
  H   H116      1.0  0.10714  0.30052  0.50765  1.0000
  C   C122      1.0  0.15436  0.01362  0.89745  1.0000
  H   H117      1.0  0.10180  0.31888  0.73329  1.0000
  H   H118      1.0  0.22034  0.32570  0.73687  1.0000
  C   C123      1.0  0.04228  0.29964  0.70398  1.0000
  H   H119      1.0  0.16040  0.32277  0.89422  1.0000
  C   C124      1.0  0.14468  0.32528  0.89911  1.0000
  S   S44       1.0  0.04674  0.32686  0.59206  1.0000
  C   C125      1.0  0.13183  0.10279  0.50867  1.0000
  C   C126      1.0  0.17037  0.32574  0.69635  1.0000
  H   H120      1.0  0.06760  0.26606  0.53041  1.0000
  H   H121      1.0  0.09753  0.32723  0.87570  1.0000
  H   H122      1.0  0.12042  0.32363  0.56139  1.0000
  H   H123      1.0  0.11748  0.15827  0.53914  1.0000
  H   H124      1.0  0.19855  0.30889  0.70465  1.0000
  N   N10       1.0  0.08915  0.27339  0.00037  1.0000
  C   C127      1.0  0.18704  0.32074  0.71066  1.0000
  H   H125      1.0  0.12838  0.09668  0.99724  1.0000
  C   C128      1.0  0.18417  0.00207  0.87582  1.0000
  H   H126      1.0  0.16899  0.31790  0.67946  1.0000
  N   N11       1.0  0.03675  0.32197  0.70269  1.0000
  H   H127      1.0  0.12262  0.31574  0.00269  1.0000
  H   H128      1.0  0.12394  0.00280  0.52572  1.0000
  Fe  Fe23      1.0  0.04927  0.32965  0.00429  1.0000
  C   C129      1.0  0.01800  0.32839  0.69471  1.0000
  C   C130      1.0  0.10929  0.32805  0.88873  1.0000
  Fe  Fe24      1.0  0.18764  0.41055  0.43183  1.0000
  S   S45       1.0  0.21977  0.39859  0.42485  1.0000
  S   S46       1.0  0.17285  0.44418  0.41856  1.0000
  Fe  Fe25      1.0  0.18130  0.37382  0.47122  1.0000
  S   S47       1.0  0.21351  0.36114  0.46708  1.0000
  C   C131      1.0  0.24476  0.66117  0.31719  1.0000
  Fe  Fe26      1.0  0.22334  0.39715  0.46423  1.0000
  H   H129      1.0  0.05578  0.54270  0.30979  1.0000
  Fe  Fe27      1.0  0.20743  0.36313  0.42823  1.0000
  H   H130      1.0  0.21097  0.56341  0.04558  1.0000
  S   S48       1.0  0.19143  0.40986  0.47126  1.0000
  S   S49       1.0  0.17506  0.37514  0.43237  1.0000
  Fe  Fe28      1.0  0.15357  0.56332  0.04654  1.0000
  S   S50       1.0  0.15944  0.53058  0.06595  1.0000
  S   S51       1.0  0.01014  0.64967  0.33047  1.0000
  Fe  Fe29      1.0  0.10876  0.56483  0.06390  1.0000
  S   S52       1.0  0.11222  0.53192  0.08422  1.0000
  S   S53       1.0  0.07717  0.58134  0.06630  1.0000
  Fe  Fe30      1.0  0.14189  0.54589  0.09633  1.0000
  S   S54       1.0  0.15465  0.53982  0.13354  1.0000
  Fe  Fe31      1.0  0.12921  0.51957  0.05255  1.0000
  S   S55       1.0  0.12685  0.48794  0.03053  1.0000
  S   S56       1.0  0.13769  0.57955  0.07754  1.0000
  S   S57       1.0  0.12400  0.55164  0.03164  1.0000
  C   C132      1.0  0.03428  0.54934  0.00931  1.0000
  Fe  Fe32      1.0  0.12401  0.58622  0.32180  1.0000
  S   S58       1.0  0.12709  0.55467  0.30055  1.0000
  S   S59       1.0  0.09446  0.59370  0.34283  1.0000
  Fe  Fe33      1.0  0.16910  0.59865  0.31130  1.0000
  S   S60       1.0  0.17442  0.56794  0.28938  1.0000
  S   S61       1.0  0.19055  0.62889  0.31333  1.0000
  Fe  Fe34      1.0  0.14382  0.57564  0.27352  1.0000
  S   S62       1.0  0.13453  0.58054  0.23488  1.0000
  Fe  Fe35      1.0  0.15735  0.54897  0.31831  1.0000
  S   S63       1.0  0.16882  0.51321  0.32969  1.0000
  S   S64       1.0  0.13917  0.60744  0.29405  1.0000
  S   S65       1.0  0.15362  0.57948  0.34101  1.0000
  C   C133      1.0  0.20975  0.46667  0.46260  1.0000
  C   C134      1.0  0.06833  0.55046  0.31940  1.0000
  C   C135      1.0  0.03325  0.63346  0.33418  1.0000
  C   C136      1.0  0.03744  0.62044  0.35441  1.0000
  C   C137      1.0  0.05617  0.60855  0.35667  1.0000
  C   C138      1.0  0.07109  0.60936  0.33882  1.0000
  C   C139      1.0  0.06686  0.62228  0.31856  1.0000
  C   C140      1.0  0.04817  0.63426  0.31634  1.0000
  N   N12       1.0  0.18171  0.61452  0.23900  1.0000
  H   H131      1.0  0.05913  0.59869  0.37248  1.0000
  H   H132      1.0  0.07804  0.62319  0.30461  1.0000
  S   S66       1.0  0.17505  0.57929  0.01880  1.0000
  C   C141      1.0  0.11018  0.46488  0.03390  1.0000
  C   C142      1.0  0.09403  0.53511  0.34657  1.0000
  C   C143      1.0  0.21696  0.51343  0.01375  1.0000
  C   C144      1.0  0.08440  0.42721  0.03783  1.0000
  H   H133      1.0  0.08426  0.59214  0.01660  1.0000
  H   H134      1.0  0.07430  0.44210  0.07014  1.0000
  C   C145      1.0  0.06094  0.58964  0.04303  1.0000
  C   C146      1.0  0.06829  0.59449  0.02046  1.0000
  H   H135      1.0  0.11800  0.52147  0.36849  1.0000
  C   C147      1.0  0.02695  0.60155  0.03044  1.0000
  C   C148      1.0  0.04018  0.59299  0.04783  1.0000
  H   H136      1.0  0.01108  0.60426  0.03447  1.0000
  H   H137      1.0  0.03440  0.58929  0.06527  1.0000
  C   C149      1.0  0.14822  0.55087  0.16165  1.0000
  C   C150      1.0  0.15771  0.54161  0.18182  1.0000
  C   C151      1.0  0.15346  0.55004  0.20439  1.0000
  C   C152      1.0  0.13975  0.56809  0.20712  1.0000
  C   C153      1.0  0.13029  0.57737  0.18696  1.0000
  C   C154      1.0  0.13441  0.56882  0.16444  1.0000
  H   H138      1.0  0.16839  0.52771  0.17995  1.0000
  H   H139      1.0  0.16089  0.54267  0.21961  1.0000
  H   H140      1.0  0.11966  0.59133  0.18875  1.0000
  H   H141      1.0  0.12699  0.57619  0.14920  1.0000
  H   H142      1.0  0.02627  0.61954  0.36836  1.0000
  C   C155      1.0  0.17172  0.46282  0.39337  1.0000
  C   C156      1.0  0.18066  0.45757  0.37177  1.0000
  C   C157      1.0  0.17966  0.47319  0.35266  1.0000
  C   C158      1.0  0.16994  0.49444  0.35479  1.0000
  C   C159      1.0  0.16126  0.49980  0.37649  1.0000
  C   C160      1.0  0.16198  0.48406  0.39549  1.0000
  H   H143      1.0  0.18824  0.44142  0.36973  1.0000
  H   H144      1.0  0.18643  0.46873  0.33603  1.0000
  H   H145      1.0  0.15399  0.51610  0.37866  1.0000
  H   H146      1.0  0.15506  0.48845  0.41207  1.0000
  C   C161      1.0  0.21713  0.63386  0.31600  1.0000
  C   C162      1.0  0.01422  0.42072  0.03089  1.0000
  C   C163      1.0  0.23151  0.61642  0.31897  1.0000
  H   H147      1.0  0.22662  0.59913  0.31974  1.0000
  H   H148      1.0  0.07599  0.64407  0.04464  1.0000
  C   C164      1.0  0.21480  0.48793  0.40070  1.0000
  C   C165      1.0  0.19863  0.60798  0.25126  1.0000
  C   C166      1.0  0.21151  0.59091  0.24293  1.0000
  C   C167      1.0  0.20714  0.58079  0.22174  1.0000
  C   C168      1.0  0.11027  0.44829  0.01664  1.0000
  H   H149      1.0  0.20201  0.49206  0.03937  1.0000
  C   C169      1.0  0.23703  0.57135  0.02363  1.0000
  H   H150      1.0  0.17078  0.64831  0.23793  1.0000
  C   C170      1.0  0.22973  0.47342  0.39191  1.0000
  C   C171      1.0  0.20857  0.48551  0.42411  1.0000
  C   C172      1.0  0.10986  0.52000  0.35218  1.0000
  C   C173      1.0  0.08426  0.44381  0.05508  1.0000
  C   C174      1.0  0.02996  0.64476  0.07179  1.0000
  C   C175      1.0  0.02298  0.54380  0.02931  1.0000
  C   C176      1.0  0.09743  0.42962  0.01852  1.0000
  C   C177      1.0  0.04073  0.44663  0.01789  1.0000
  C   C178      1.0  0.22396  0.65624  0.31512  1.0000
  H   H151      1.0  0.24781  0.56409  0.03595  1.0000
  C   C179      1.0  0.05989  0.64722  0.04736  1.0000
  C   C180      1.0  0.20184  0.58020  0.01350  1.0000
  C   C181      1.0  0.02698  0.65833  0.03248  1.0000
  C   C182      1.0  0.23213  0.45529  0.43008  1.0000
  N   N13       1.0  0.08401  0.53365  0.32576  1.0000
  C   C183      1.0  0.08952  0.51751  0.31004  1.0000
  C   C184      1.0  0.10530  0.50213  0.31510  1.0000
  C   C185      1.0  0.11551  0.50343  0.33632  1.0000
  H   H152      1.0  0.08210  0.51687  0.29318  1.0000
  H   H153      1.0  0.11001  0.48970  0.30240  1.0000
  H   H154      1.0  0.12810  0.49196  0.34020  1.0000
  H   H155      1.0  0.07511  0.56398  0.30822  1.0000
  H   H156      1.0  0.10382  0.34141  0.49911  1.0000
  H   H157      1.0  0.09012  0.54832  0.35875  1.0000
  S   S67       1.0  0.06723  0.40455  0.04043  1.0000
  C   C186      1.0  0.16822  0.63232  0.24786  1.0000
  H   H158      1.0  0.06168  0.55856  0.33518  1.0000
  C   C187      1.0  0.19016  0.58799  0.20906  1.0000
  C   C188      1.0  0.00187  0.54554  0.02868  1.0000
  H   H159      1.0  0.15212  0.62743  0.24602  1.0000
  H   H160      1.0  0.21887  0.45401  0.47284  1.0000
  H   H161      1.0  0.04287  0.45117  0.03601  1.0000
  H   H162      1.0  0.03065  0.53872  0.04540  1.0000
  N   N14       1.0  0.21721  0.46932  0.43844  1.0000
  H   H163      1.0  0.17076  0.63529  0.26680  1.0000
  H   H164      1.0  0.16789  0.50006  0.02367  1.0000
  H   H165      1.0  0.05457  0.65901  0.01189  1.0000
  S   S68       1.0  0.16220  0.35016  0.49473  1.0000
  H   H166      1.0  0.21681  0.56732  0.21519  1.0000
  H   H167      1.0  0.20744  0.50032  0.38919  1.0000
  H   H168      1.0  0.16409  0.61011  0.20831  1.0000
  H   H169      1.0  0.23417  0.47464  0.37358  1.0000
  C   C189      1.0  0.17757  0.60502  0.21798  1.0000
  H   H170      1.0  0.19625  0.49609  0.43052  1.0000
  C   C190      1.0  0.04789  0.65563  0.02902  1.0000
  C   C191      1.0  0.21609  0.57095  0.02919  1.0000
  H   H171      1.0  0.18646  0.58015  0.19264  1.0000
  C   C192      1.0  0.09700  0.46261  0.05310  1.0000
  S   S69       1.0  0.24808  0.41756  0.48227  1.0000
  H   H172      1.0  0.09684  0.47515  0.06659  1.0000
  S   S70       1.0  0.07947  0.34434  0.01212  1.0000
  H   H173      1.0  0.23895  0.44237  0.44135  1.0000
  H   H174      1.0  0.21039  0.48289  0.47182  1.0000
  H   H175      1.0  0.04527  0.64424  0.30059  1.0000
  S   S71       1.0  0.03245  0.36291  0.00808  1.0000
  C   C193      1.0  0.23854  0.45703  0.40669  1.0000
  H   H176      1.0  0.01048  0.43291  0.04484  1.0000
  H   H177      1.0  0.02304  0.63980  0.08837  1.0000
  H   H178      1.0  0.22466  0.58550  0.25299  1.0000
  H   H179      1.0  0.19383  0.46085  0.46246  1.0000
  H   H180      1.0  0.20214  0.61574  0.26774  1.0000
  N   N15       1.0  0.01832  0.65314  0.05375  1.0000
  C   C194      1.0  0.18084  0.50796  0.01532  1.0000
  C   C195      1.0  0.20017  0.50326  0.02423  1.0000
  C   C196      1.0  0.05092  0.64176  0.06890  1.0000
  H   H181      1.0  0.06006  0.63428  0.08290  1.0000
  H   H182      1.0  0.23201  0.51032  0.02073  1.0000
  H   H183      1.0  0.02287  0.40629  0.03890  1.0000
  C   C197      1.0  0.03443  0.60714  0.00812  1.0000
  Fe  Fe36      1.0  0.06335  0.37807  0.01251  1.0000
  N   N16       1.0  0.02649  0.43123  0.01227  1.0000
  H   H184      1.0  0.01766  0.66383  0.01777  1.0000
  H   H185      1.0  0.05072  0.54868  0.00986  1.0000
  H   H186      1.0  0.25002  0.44546  0.40005  1.0000
  H   H187      1.0  0.18333  0.33231  0.37861  1.0000
  C   C198      1.0  0.06145  0.33399  0.53230  1.0000
  C   C199      1.0  0.22989  0.59025  0.98668  1.0000
  H   H188      1.0  0.08839  0.33654  0.91676  1.0000
  H   H189      1.0  0.11222  0.39340  0.54187  1.0000
  H   H190      1.0  0.03608  0.42714  0.95416  1.0000
  S   S72       1.0  0.23057  0.34298  0.80531  1.0000
  S   S73       1.0  0.06813  0.38521  0.97416  1.0000
  C   C200      1.0  0.10406  0.33333  0.91199  1.0000
  Fe  Fe37      1.0  0.03812  0.36819  0.96955  1.0000
  Fe  Fe38      1.0  0.08219  0.35038  0.97307  1.0000
  C   C201      1.0  0.13933  0.33594  0.53275  1.0000
  H   H191      1.0  0.12045  0.44982  0.00176  1.0000
  S   S74       1.0  0.05281  0.33389  0.96507  1.0000
  H   H192      1.0  0.15711  0.52447  0.96890  1.0000
  S   S75       1.0  0.09399  0.36203  0.57430  1.0000
  H   H193      1.0  0.03317  0.56190  0.97375  1.0000
  H   H194      1.0  0.06246  0.45470  0.96423  1.0000
  C   C202      1.0  0.11913  0.33461  0.92893  1.0000
  H   H195      1.0  0.23498  0.59772  0.97026  1.0000
  C   C203      1.0  0.05204  0.44855  0.97759  1.0000
  C   C204      1.0  0.02470  0.42439  0.98966  1.0000
  C   C205      1.0  0.05139  0.33929  0.70822  1.0000
  Fe  Fe39      1.0  0.07860  0.33711  0.59980  1.0000
  C   C206      1.0  0.20897  0.58992  0.99228  1.0000
  C   C207      1.0  0.11983  0.37730  0.53948  1.0000
  C   C208      1.0  0.11433  0.35873  0.55379  1.0000
  H   H196      1.0  0.07501  0.36321  0.51606  1.0000
  H   H197      1.0  0.17428  0.35085  0.75788  1.0000
  C   C209      1.0  0.21424  0.52806  0.99453  1.0000
  S   S76       1.0  0.11337  0.34105  0.95847  1.0000
  H   H198      1.0  0.09771  0.41702  0.00510  1.0000
  H   H199      1.0  0.19818  0.59721  0.97998  1.0000
  H   H200      1.0  0.01377  0.41177  0.98529  1.0000
  S   S77       1.0  0.01873  0.61966  0.98626  1.0000
  H   H201      1.0  0.15444  0.54627  0.99052  1.0000
  H   H202      1.0  0.19255  0.54491  0.97213  1.0000
  H   H203      1.0  0.06102  0.60763  0.98590  1.0000
  S   S78       1.0  0.01146  0.35571  0.64461  1.0000
  C   C210      1.0  0.15641  0.34911  0.72675  1.0000
  C   C211      1.0  0.19465  0.53267  0.98634  1.0000
  H   H204      1.0  0.04908  0.34349  0.54020  1.0000
  C   C212      1.0  0.15797  0.52811  0.98784  1.0000
  C   C213      1.0  0.14466  0.35448  0.51826  1.0000
  S   S79       1.0  0.06942  0.34718  0.63631  1.0000
  N   N17       1.0  0.17829  0.52263  0.99669  1.0000
  S   S80       1.0  0.01556  0.38490  0.94393  1.0000
  C   C214      1.0  0.13493  0.37525  0.52191  1.0000
  H   H205      1.0  0.14155  0.34324  0.69395  1.0000
  C   C215      1.0  0.05509  0.60333  0.00313  1.0000
  H   H206      1.0  0.14423  0.35968  0.73352  1.0000
  C   C216      1.0  0.03730  0.43306  0.97196  1.0000
  H   H207      1.0  0.13875  0.38966  0.51092  1.0000
  H   H208      1.0  0.14611  0.51819  0.99711  1.0000
  C   C217      1.0  0.15494  0.33996  0.70452  1.0000
  C   C218      1.0  0.12440  0.33806  0.55052  1.0000
  N   N18       1.0  0.00359  0.55849  0.98851  1.0000
  Fe  Fe40      1.0  0.03814  0.33414  0.62939  1.0000
  C   C219      1.0  0.17341  0.34395  0.74049  1.0000
  C   C220      1.0  0.02428  0.55682  0.98897  1.0000
  H   H209      1.0  0.22712  0.53654  0.98664  1.0000
  H   H210      1.0  0.05865  0.34554  0.69171  1.0000
  C   C221      1.0  0.07594  0.34504  0.51861  1.0000
  C   C222      1.0  0.24414  0.58093  0.00233  1.0000
  H   H211      1.0  0.01381  0.34612  0.69310  1.0000
  H   H212      1.0  0.04389  0.35368  0.71712  1.0000
  H   H213      1.0  0.20710  0.33529  0.76235  1.0000
  C   C223      1.0  0.05372  0.45551  0.00068  1.0000
  C   C224      1.0  0.09215  0.33279  0.50916  1.0000
  H   H214      1.0  0.06564  0.46686  0.00549  1.0000
  H   H215      1.0  0.06356  0.33248  0.71988  1.0000
  H   H216      1.0  0.02764  0.88040  0.49247  1.0000
  C   C225      1.0  0.04155  0.82669  0.49145  1.0000
  H   H217      1.0  0.05170  0.83108  0.47709  1.0000
  N   N19       1.0  0.02139  0.70271  0.37110  1.0000
  C   C226      1.0  0.01062  0.73782  0.38781  1.0000
  H   H218      1.0  0.21463  0.87718  0.48601  1.0000
  H   H219      1.0  0.02115  0.66738  0.37719  1.0000
  C   C227      1.0  0.03214  0.68093  0.37317  1.0000
  H   H220      1.0  0.04380  0.68082  0.38709  1.0000
  H   H221      1.0  0.24963  0.67847  0.31644  1.0000
  H   H222      1.0  0.06411  0.88992  0.48926  1.0000
  C   C228      1.0  0.23812  0.90147  0.49040  1.0000
  C   C229      1.0  0.02112  0.71716  0.38948  1.0000
  H   H223      1.0  0.01978  0.81070  0.46945  1.0000
  C   C230      1.0  0.02369  0.81532  0.48715  1.0000
  H   H224      1.0  0.02888  0.71270  0.40564  1.0000
  H   H225      1.0  0.24764  0.83507  0.39802  1.0000
  C   C231      1.0  0.24292  0.92159  0.50127  1.0000
  H   H226      1.0  0.04003  0.67686  0.35644  1.0000
  C   C232      1.0  0.21863  0.89268  0.49428  1.0000
  H   H227      1.0  0.01012  0.74917  0.40248  1.0000
  C   C233      1.0  0.01082  0.70796  0.35112  1.0000
  H   H228      1.0  0.24699  0.85481  0.43606  1.0000
  H   H229      1.0  0.09613  0.97249  0.47127  1.0000
  C   C234      1.0  0.08653  0.97854  0.48540  1.0000
  H   H230      1.0  0.21306  0.66992  0.31282  1.0000
  H   H231      1.0  0.01055  0.69627  0.33679  1.0000
  C   C235      1.0  0.01066  0.81007  0.50574  1.0000
  C   C236      1.0  0.08297  0.96483  0.50521  1.0000
  H   H232      1.0  0.21518  0.96843  0.60229  1.0000
  Fe  Fe41      1.0  0.15876  0.93505  0.55206  1.0000
  S   S81       1.0  0.15161  0.95328  0.58578  1.0000
  S   S82       1.0  0.19127  0.93917  0.53747  1.0000
  Fe  Fe42      1.0  0.11493  0.91788  0.54912  1.0000
  S   S83       1.0  0.10527  0.93403  0.58269  1.0000
  S   S84       1.0  0.09392  0.90131  0.52309  1.0000
  Fe  Fe43      1.0  0.12223  0.96409  0.56856  1.0000
  H   H233      1.0  0.22938  0.85664  0.85737  1.0000
  Fe  Fe44      1.0  0.13522  0.92206  0.59753  1.0000
  S   S85       1.0  0.13947  0.90318  0.63297  1.0000
  S   S86       1.0  0.13049  0.94860  0.53427  1.0000
  S   S87       1.0  0.14385  0.90313  0.56463  1.0000
  H   H234      1.0  0.24059  0.83666  0.77451  1.0000
  Fe  Fe45      1.0  0.16560  0.89029  0.81624  1.0000
  S   S88       1.0  0.16654  0.92675  0.80399  1.0000
  S   S89       1.0  0.19426  0.87305  0.83221  1.0000
  Fe  Fe46      1.0  0.11806  0.88971  0.81420  1.0000
  S   S90       1.0  0.11679  0.92612  0.80229  1.0000
  S   S91       1.0  0.09048  0.86575  0.81587  1.0000
  Fe  Fe47      1.0  0.14265  0.91727  0.77773  1.0000
  S   S92       1.0  0.14053  0.93345  0.74064  1.0000
  Fe  Fe48      1.0  0.14083  0.93289  0.82929  1.0000
  S   S93       1.0  0.13724  0.96223  0.85531  1.0000
  S   S94       1.0  0.14323  0.88046  0.78848  1.0000
  S   S95       1.0  0.14046  0.89680  0.84273  1.0000
  C   C237      1.0  0.20887  0.92409  0.51920  1.0000
  H   H235      1.0  0.00694  0.78030  0.85974  1.0000
  H   H236      1.0  0.21724  0.89861  0.56603  1.0000
  C   C238      1.0  0.06772  0.95827  0.54419  1.0000
  H   H237      1.0  0.05089  0.84563  0.55695  1.0000
  H   H238      1.0  0.21098  0.91938  0.83606  1.0000
  C   C239      1.0  0.14311  0.99733  0.88560  1.0000
  C   C240      1.0  0.02274  0.85946  0.83922  1.0000
  C   C241      1.0  0.03376  0.87886  0.84442  1.0000
  C   C242      1.0  0.05435  0.88113  0.83757  1.0000
  C   C243      1.0  0.06444  0.86393  0.82541  1.0000
  C   C244      1.0  0.05340  0.84455  0.82016  1.0000
  C   C245      1.0  0.03279  0.84231  0.82694  1.0000
  H   H239      1.0  0.02632  0.89229  0.85393  1.0000
  H   H240      1.0  0.06244  0.89616  0.84184  1.0000
  H   H241      1.0  0.06087  0.83109  0.81073  1.0000
  H   H242      1.0  0.02471  0.82730  0.82262  1.0000
  C   C246      1.0  0.13915  0.91195  0.66283  1.0000
  C   C247      1.0  0.13618  0.93447  0.66901  1.0000
  C   C248      1.0  0.13667  0.94061  0.69282  1.0000
  C   C249      1.0  0.14014  0.92443  0.71087  1.0000
  C   C250      1.0  0.14312  0.90190  0.70468  1.0000
  C   C251      1.0  0.14263  0.89576  0.68087  1.0000
  H   H243      1.0  0.13354  0.94719  0.65545  1.0000
  H   H244      1.0  0.13439  0.95810  0.69728  1.0000
  H   H245      1.0  0.14611  0.88922  0.71817  1.0000
  H   H246      1.0  0.14511  0.87831  0.67637  1.0000
  C   C252      1.0  0.02598  0.88540  0.52966  1.0000
  C   C253      1.0  0.03686  0.89186  0.54945  1.0000
  C   C254      1.0  0.05751  0.89740  0.54767  1.0000
  C   C255      1.0  0.06754  0.89647  0.52602  1.0000
  H   H247      1.0  0.17997  0.90888  0.85999  1.0000
  H   H248      1.0  0.02939  0.89207  0.56641  1.0000
  H   H249      1.0  0.06578  0.90178  0.56317  1.0000
  H   H250      1.0  0.07156  0.96736  0.56037  1.0000
  H   H251      1.0  0.03300  0.78221  0.86902  1.0000
  H   H252      1.0  0.04465  0.93789  0.78364  1.0000
  C   C256      1.0  0.22031  0.85286  0.79918  1.0000
  C   C257      1.0  0.21686  0.85858  0.82257  1.0000
  C   C258      1.0  0.23181  0.85248  0.83920  1.0000
  H   H253      1.0  0.19366  0.96291  0.63801  1.0000
  H   H254      1.0  0.20907  0.85730  0.78611  1.0000
  C   C259      1.0  0.03766  0.83432  0.55644  1.0000
  H   H255      1.0  0.22277  0.90222  0.85862  1.0000
  C   C260      1.0  0.17103  0.92995  0.88848  1.0000
  C   C261      1.0  0.06990  0.88981  0.76885  1.0000
  H   H256      1.0  0.08971  0.94801  0.50601  1.0000
  H   H257      1.0  0.05994  0.84166  0.51755  1.0000
  H   H258      1.0  0.06919  0.87172  0.77180  1.0000
  C   C262      1.0  0.21835  0.91981  0.85353  1.0000
  N   N20       1.0  0.20155  0.91447  0.59444  1.0000
  C   C263      1.0  0.18944  0.91143  0.61379  1.0000
  C   C264      1.0  0.21083  0.93463  0.59036  1.0000
  C   C265      1.0  0.18675  0.92867  0.62993  1.0000
  C   C266      1.0  0.17722  0.94619  0.90406  1.0000
  C   C267      1.0  0.19608  0.94927  0.62588  1.0000
  C   C268      1.0  0.20362  0.89641  0.57741  1.0000
  H   H259      1.0  0.18153  0.89574  0.61672  1.0000
  H   H260      1.0  0.21995  0.93730  0.57467  1.0000
  C   C269      1.0  0.06286  0.99378  0.52236  1.0000
  H   H261      1.0  0.20193  0.96664  0.91487  1.0000
  C   C270      1.0  0.04610  0.83265  0.51440  1.0000
  C   C271      1.0  0.23827  0.84109  0.79264  1.0000
  N   N21       1.0  0.01082  0.79578  0.89237  1.0000
  C   C272      1.0  0.01722  0.77916  0.87506  1.0000
  C   C273      1.0  0.15223  0.98325  0.86877  1.0000
  H   H262      1.0  0.01662  0.76167  0.88240  1.0000
  H   H263      1.0  0.02458  0.84372  0.56417  1.0000
  H   H264      1.0  0.17710  0.92618  0.64522  1.0000
  H   H265      1.0  0.20499  0.87968  0.58640  1.0000
  H   H266      1.0  0.10340  0.86857  0.75716  1.0000
  C   C274      1.0  0.21058  0.94481  0.88643  1.0000
  H   H267      1.0  0.22596  0.95087  0.88568  1.0000
  N   N22       1.0  0.07142  0.97263  0.52345  1.0000
  C   C275      1.0  0.05497  0.90365  0.77889  1.0000
  C   C276      1.0  0.17286  0.98599  0.86374  1.0000
  H   H268      1.0  0.09842  0.92897  0.74183  1.0000
  H   H269      1.0  0.18925  0.89684  0.51116  1.0000
  H   H270      1.0  0.09730  0.87981  0.72813  1.0000
  H   H271      1.0  0.07259  0.95420  0.75940  1.0000
  H   H272      1.0  0.00483  0.81333  0.54258  1.0000
  H   H273      1.0  0.19017  0.89664  0.56583  1.0000
  C   C277      1.0  0.19715  0.95361  0.90317  1.0000
  C   C278      1.0  0.08627  0.92174  0.75230  1.0000
  C   C279      1.0  0.07161  0.93610  0.76209  1.0000
  C   C280      1.0  0.01541  0.81679  0.52836  1.0000
  H   H274      1.0  0.11616  0.89272  0.74588  1.0000
  H   H275      1.0  0.23224  0.92994  0.85148  1.0000
  C   C281      1.0  0.10131  0.88422  0.74630  1.0000
  C   C282      1.0  0.22840  0.93278  0.51549  1.0000
  H   H276      1.0  0.04294  0.89629  0.78947  1.0000
  H   H277      1.0  0.23232  0.94844  0.52351  1.0000
  N   N23       1.0  0.08557  0.89896  0.75629  1.0000
  C   C283      1.0  0.05596  0.92696  0.77563  1.0000
  S   S96       1.0  0.00086  0.87566  0.53355  1.0000
  H   H278      1.0  0.15542  0.92450  0.88856  1.0000
  H   H279      1.0  0.16640  0.95350  0.91628  1.0000
  H   H280      1.0  0.18015  0.97546  0.85082  1.0000
  H   H281      1.0  0.01157  0.85205  0.90030  1.0000
  C   C284      1.0  0.20817  0.95234  0.60594  1.0000
  N   N24       1.0  0.20427  0.92909  0.87100  1.0000
  C   C285      1.0  0.18488  0.92144  0.87208  1.0000
  C   C286      1.0  0.03581  0.88527  0.50786  1.0000
  N   N25       1.0  0.03294  0.82793  0.53244  1.0000
  H   H282      1.0  0.02383  0.82312  0.87304  1.0000
  C   C287      1.0  0.01531  0.81795  0.88850  1.0000
  H   H283      1.0  0.04102  0.81906  0.56740  1.0000
  C   C288      1.0  0.00848  0.83441  0.90400  1.0000
  H   H284      1.0  0.12718  0.99550  0.88968  1.0000
  H   H285      1.0  0.05161  0.95326  0.54492  1.0000
  H   H286      1.0  0.24820  0.77829  0.83263  1.0000
  H   H287      1.0  0.07721  0.94265  0.54396  1.0000
  S   S97       1.0  0.10535  0.99766  0.57217  1.0000
  C   C289      1.0  0.05652  0.89061  0.50611  1.0000
  C   C290      1.0  0.20414  0.90382  0.50859  1.0000
  C   C291      1.0  0.24989  0.84093  0.83262  1.0000
  H   H288      1.0  0.27528  0.13580  0.00894  1.0000
  Fe  Fe49      1.0  0.39771  0.06674  0.04752  1.0000
  S   S98       1.0  0.40696  0.04785  0.08031  1.0000
  C   C292      1.0  0.47805  0.10145  0.00762  1.0000
  Fe  Fe50      1.0  0.35237  0.05496  0.05332  1.0000
  S   S99       1.0  0.35899  0.03492  0.08674  1.0000
  S   S100      1.0  0.31875  0.05372  0.04227  1.0000
  Fe  Fe51      1.0  0.37899  0.06323  0.09710  1.0000
  S   S101      1.0  0.38019  0.08072  0.13276  1.0000
  Fe  Fe52      1.0  0.38631  0.02110  0.06756  1.0000
  S   S102      1.0  0.37092  0.08434  0.06471  1.0000
  S   S103      1.0  0.37850  0.03886  0.03376  1.0000
  Fe  Fe53      1.0  0.37043  0.05365  0.32871  1.0000
  S   S104      1.0  0.37306  0.08995  0.33952  1.0000
  H   H289      1.0  0.35451  0.06970  0.39268  1.0000
  Fe  Fe54      1.0  0.36833  0.06812  0.27638  1.0000
  S   S105      1.0  0.37022  0.10508  0.28429  1.0000
  S   S106      1.0  0.36706  0.05096  0.24060  1.0000
  Fe  Fe55      1.0  0.39535  0.09472  0.30964  1.0000
  S   S107      1.0  0.42502  0.11549  0.30690  1.0000
  Fe  Fe56      1.0  0.34786  0.09768  0.31363  1.0000
  S   S108      1.0  0.32119  0.11886  0.32874  1.0000
  S   S109      1.0  0.39425  0.05801  0.30023  1.0000
  S   S110      1.0  0.34444  0.06117  0.30435  1.0000
  C   C293      1.0  0.29748  0.13082  0.31898  1.0000
  C   C294      1.0  0.29173  0.13146  0.29541  1.0000
  C   C295      1.0  0.27305  0.14165  0.28864  1.0000
  C   C296      1.0  0.26420  0.12555  0.01813  1.0000
  H   H290      1.0  0.30412  0.07211  0.33139  1.0000
  C   C297      1.0  0.28406  0.14027  0.33563  1.0000
  H   H291      1.0  0.30178  0.12438  0.28231  1.0000
  C   C298      1.0  0.29036  0.11350  0.04625  1.0000
  C   C299      1.0  0.30526  0.04021  0.37611  1.0000
  H   H292      1.0  0.28828  0.13999  0.35391  1.0000
  C   C300      1.0  0.25575  0.09917  0.04836  1.0000
  C   C301      1.0  0.26526  0.15019  0.32889  1.0000
  H   H293      1.0  0.29135  0.12715  0.05916  1.0000
  H   H294      1.0  0.40734  0.10071  0.25522  1.0000
  H   H295      1.0  0.47794  0.10440  0.36822  1.0000
  C   C302      1.0  0.47273  0.16857  0.37733  1.0000
  C   C303      1.0  0.35845  0.00190  0.36804  1.0000
  C   C304      1.0  0.48779  0.12797  0.34137  1.0000
  C   C305      1.0  0.48218  0.13869  0.32019  1.0000
  C   C306      1.0  0.46309  0.13457  0.31000  1.0000
  C   C307      1.0  0.44921  0.11955  0.32058  1.0000
  C   C308      1.0  0.45489  0.10872  0.34166  1.0000
  C   C309      1.0  0.47393  0.11292  0.35191  1.0000
  H   H296      1.0  0.49248  0.15033  0.31175  1.0000
  H   H297      1.0  0.45904  0.14312  0.29373  1.0000
  H   H298      1.0  0.44458  0.09710  0.35015  1.0000
  H   H299      1.0  0.29181  0.03143  0.37097  1.0000
  C   C310      1.0  0.37465  0.07234  0.16239  1.0000
  C   C311      1.0  0.37527  0.08858  0.18004  1.0000
  C   C312      1.0  0.37244  0.08256  0.20396  1.0000
  C   C313      1.0  0.36890  0.06013  0.21060  1.0000
  C   C314      1.0  0.36786  0.04398  0.19291  1.0000
  C   C315      1.0  0.37072  0.04999  0.16900  1.0000
  H   H300      1.0  0.37820  0.10594  0.17518  1.0000
  H   H301      1.0  0.37321  0.09523  0.21724  1.0000
  H   H302      1.0  0.36509  0.02659  0.19777  1.0000
  H   H303      1.0  0.37015  0.03729  0.15574  1.0000
  H   H304      1.0  0.42648  0.08222  0.26777  1.0000
  H   H305      1.0  0.33085  0.08755  0.36423  1.0000
  H   H306      1.0  0.33082  0.01791  0.01097  1.0000
  C   C316      1.0  0.33581  0.04080  0.39898  1.0000
  C   C317      1.0  0.45547  0.08629  0.04666  1.0000
  C   C318      1.0  0.44600  0.08847  0.02486  1.0000
  C   C319      1.0  0.44168  0.02228  0.03401  1.0000
  H   H307      1.0  0.45605  0.19187  0.32596  1.0000
  N   N26       1.0  0.42209  0.07952  0.23079  1.0000
  C   C320      1.0  0.42460  0.09000  0.20939  1.0000
  C   C321      1.0  0.41787  0.05705  0.23228  1.0000
  C   C322      1.0  0.42341  0.07779  0.18874  1.0000
  C   C323      1.0  0.41666  0.04433  0.21200  1.0000
  C   C324      1.0  0.41943  0.05481  0.19012  1.0000
  C   C325      1.0  0.42246  0.09282  0.25211  1.0000
  H   H308      1.0  0.42703  0.10800  0.20817  1.0000
  H   H309      1.0  0.41464  0.04902  0.24913  1.0000
  H   H310      1.0  0.42459  0.08625  0.17172  1.0000
  H   H311      1.0  0.41247  0.02676  0.21325  1.0000
  H   H312      1.0  0.41753  0.04541  0.17420  1.0000
  H   H313      1.0  0.43389  0.10630  0.25082  1.0000
  C   C326      1.0  0.32708  0.07145  0.37231  1.0000
  H   H314      1.0  0.44689  0.08062  0.06183  1.0000
  N   N27       1.0  0.30975  0.06079  0.36628  1.0000
  H   H315      1.0  0.48586  0.21601  0.33284  1.0000
  H   H316      1.0  0.28197  0.06222  0.34683  1.0000
  H   H317      1.0  0.43588  0.03893  0.03826  1.0000
  H   H318      1.0  0.30147  0.11662  0.03184  1.0000
  N   N28       1.0  0.26969  0.11247  0.03716  1.0000
  H   H319      1.0  0.29240  0.08897  0.35372  1.0000
  H   H320      1.0  0.26323  0.20140  0.31453  1.0000
  H   H321      1.0  0.34637  0.03263  0.41106  1.0000
  H   H322      1.0  0.26898  0.14222  0.27031  1.0000
  S   S111      1.0  0.42012  0.08161  0.02085  1.0000
  H   H323      1.0  0.44079  0.01033  0.07004  1.0000
  H   H324      1.0  0.48309  0.09053  0.06596  1.0000
  C   C327      1.0  0.34039  0.06161  0.38866  1.0000
  C   C328      1.0  0.48744  0.09963  0.02949  1.0000
  C   C329      1.0  0.48184  0.20283  0.34541  1.0000
  C   C330      1.0  0.47603  0.09196  0.04895  1.0000
  C   C331      1.0  0.25963  0.15107  0.30527  1.0000
  C   C332      1.0  0.29633  0.07141  0.34874  1.0000
  C   C333      1.0  0.30310  0.06450  0.01895  1.0000
  C   C334      1.0  0.31813  0.02999  0.39273  1.0000
  S   S112      1.0  0.37233  0.02603  0.35799  1.0000
  H   H325      1.0  0.46960  0.15448  0.38915  1.0000
  H   H326      1.0  0.27683  0.04689  0.03180  1.0000
  H   H327      1.0  0.32979  0.00726  0.05307  1.0000
  C   C335      1.0  0.28255  0.05849  0.01855  1.0000
  C   C336      1.0  0.49367  0.19889  0.36537  1.0000
  H   H328      1.0  0.29508  0.09725  0.05485  1.0000
  C   C337      1.0  0.46040  0.17225  0.35774  1.0000
  H   H329      1.0  0.44784  0.16118  0.35453  1.0000
  C   C338      1.0  0.44468  0.00629  0.05207  1.0000
  N   N29       1.0  0.48904  0.18189  0.38098  1.0000
  C   C339      1.0  0.46511  0.18939  0.34161  1.0000
  H   H330      1.0  0.26012  0.08877  0.06341  1.0000
  C   C340      1.0  0.25380  0.21584  0.30937  1.0000
  N   N30       1.0  0.44568  0.01694  0.01122  1.0000
  C   C341      1.0  0.33800  0.00226  0.01705  1.0000
  H   H331      1.0  0.49254  0.17716  0.41774  1.0000
  H   H332      1.0  0.31484  0.01342  0.40011  1.0000
  H   H333      1.0  0.25393  0.20738  0.27290  1.0000
  H   H334      1.0  0.33597  0.00310  0.34098  1.0000
  H   H335      1.0  0.25524  0.15735  0.34197  1.0000
  S   S113      1.0  0.25979  0.09607  0.96299  1.0000
  C   C342      1.0  0.27618  0.08280  0.98422  1.0000
  C   C343      1.0  0.49338  0.31297  0.90363  1.0000
  H   H336      1.0  0.42619  0.04059  0.99379  1.0000
  H   H337      1.0  0.48791  0.31779  0.86683  1.0000
  H   H338      1.0  0.29909  0.32761  0.83835  1.0000
  H   H339      1.0  0.32588  0.08439  0.00159  1.0000
  H   H340      1.0  0.44449  0.02727  0.97490  1.0000
  C   C344      1.0  0.29679  0.08862  0.98448  1.0000
  H   H341      1.0  0.30244  0.10040  0.97136  1.0000
  C   C345      1.0  0.49385  0.30634  0.88026  1.0000
  C   C346      1.0  0.26919  0.06750  0.00133  1.0000
  H   H342      1.0  0.48656  0.10742  0.99251  1.0000
  C   C347      1.0  0.44207  0.03402  0.99271  1.0000
  H   H343      1.0  0.45028  0.09782  0.98844  1.0000
  H   H344      1.0  0.48737  0.32949  0.90809  1.0000
  H   H345      1.0  0.33425  0.32331  0.79263  1.0000
  H   H346      1.0  0.35792  0.31327  0.78068  1.0000
  H   H347      1.0  0.25345  0.06278  0.00143  1.0000
  C   C348      1.0  0.31017  0.07951  0.00162  1.0000
  H   H348      1.0  0.45238  0.04840  0.99494  1.0000
  H   H349      1.0  0.48890  0.27119  0.84473  1.0000
  C   C349      1.0  0.34943  0.32860  0.78621  1.0000
  H   H350      1.0  0.26300  0.31858  0.83162  1.0000
  C   C350      1.0  0.45744  0.09600  0.00538  1.0000
  C   C351      1.0  0.47917  0.62060  0.05173  1.0000
  S   S114      1.0  0.41793  0.62992  0.08115  1.0000
  S   S115      1.0  0.42859  0.62996  0.50114  1.0000
  N   N31       1.0  0.31503  0.62142  0.03782  1.0000
  S   S116      1.0  0.44359  0.64981  0.13899  1.0000
  C   C352      1.0  0.48616  0.60519  0.09721  1.0000
  C   C353      1.0  0.31497  0.59840  0.03700  1.0000
  C   C354      1.0  0.41007  0.36853  0.50193  1.0000
  S   S117      1.0  0.46515  0.59945  0.47592  1.0000
  N   N32       1.0  0.28651  0.65631  0.38637  1.0000
  H   H351      1.0  0.30840  0.64604  0.01150  1.0000
  Fe  Fe57      1.0  0.44152  0.62540  0.46488  1.0000
  H   H352      1.0  0.45973  0.40667  0.48349  1.0000
  Fe  Fe58      1.0  0.47566  0.65951  0.12882  1.0000
  S   S118      1.0  0.42219  0.61637  0.43370  1.0000
  H   H353      1.0  0.26319  0.60768  0.32357  1.0000
  C   C355      1.0  0.38951  0.54416  0.46647  1.0000
  C   C356      1.0  0.39763  0.52526  0.47824  1.0000
  C   C357      1.0  0.40230  0.56130  0.45876  1.0000
  C   C358      1.0  0.40671  0.63711  0.41958  1.0000
  H   H354      1.0  0.45791  0.52176  0.48314  1.0000
  C   C359      1.0  0.29674  0.63736  0.37925  1.0000
  H   H355      1.0  0.43943  0.58487  0.08947  1.0000
  H   H356      1.0  0.37680  0.59743  0.01896  1.0000
  S   S119      1.0  0.28556  0.64879  0.32424  1.0000
  H   H357      1.0  0.37468  0.64324  0.37279  1.0000
  C   C360      1.0  0.39514  0.61214  0.04587  1.0000
  C   C361      1.0  0.40106  0.63201  0.05684  1.0000
  C   C362      1.0  0.39294  0.65263  0.04871  1.0000
  C   C363      1.0  0.37892  0.65330  0.03012  1.0000
  C   C364      1.0  0.38307  0.64768  0.38817  1.0000
  H   H358      1.0  0.40126  0.59606  0.05198  1.0000
  H   H359      1.0  0.30403  0.58994  0.02636  1.0000
  H   H360      1.0  0.35484  0.58634  0.07280  1.0000
  C   C365      1.0  0.41357  0.65902  0.31971  1.0000
  H   H361      1.0  0.45800  0.57573  0.11071  1.0000
  C   C366      1.0  0.40494  0.65893  0.42816  1.0000
  H   H362      1.0  0.27576  0.37785  0.48643  1.0000
  H   H363      1.0  0.42576  0.64486  0.27804  1.0000
  C   C367      1.0  0.25230  0.62136  0.32118  1.0000
  C   C368      1.0  0.30029  0.63503  0.02435  1.0000
  C   C369      1.0  0.37534  0.38183  0.49343  1.0000
  H   H364      1.0  0.32952  0.65031  0.05097  1.0000
  C   C370      1.0  0.37289  0.63346  0.01922  1.0000
  H   H365      1.0  0.35471  0.62812  0.07405  1.0000
  H   H366      1.0  0.37310  0.40025  0.49590  1.0000
  H   H367      1.0  0.41416  0.37133  0.48367  1.0000
  C   C371      1.0  0.39576  0.63155  0.39952  1.0000
  H   H368      1.0  0.32524  0.61893  0.37899  1.0000
  H   H369      1.0  0.44523  0.60284  0.11329  1.0000
  Fe  Fe59      1.0  0.48568  0.62843  0.48151  1.0000
  C   C372      1.0  0.27256  0.41280  0.49514  1.0000
  H   H370      1.0  0.41702  0.64109  0.32027  1.0000
  C   C373      1.0  0.30224  0.38927  0.50476  1.0000
  C   C374      1.0  0.28280  0.39193  0.49464  1.0000
  C   C375      1.0  0.32900  0.63206  0.05105  1.0000
  C   C376      1.0  0.42309  0.55925  0.46294  1.0000
  Fe  Fe60      1.0  0.45209  0.65698  0.50478  1.0000
  C   C377      1.0  0.41351  0.65788  0.27681  1.0000
  C   C378      1.0  0.38127  0.61284  0.02708  1.0000
  H   H371      1.0  0.30991  0.37304  0.50420  1.0000
  H   H372      1.0  0.46167  0.54597  0.46432  1.0000
  S   S120      1.0  0.46308  0.65400  0.46739  1.0000
  C   C379      1.0  0.31706  0.63367  0.38520  1.0000
  C   C380      1.0  0.46426  0.60911  0.06452  1.0000
  H   H373      1.0  0.39708  0.61469  0.39278  1.0000
  S   S121      1.0  0.46738  0.66425  0.09078  1.0000
  H   H374      1.0  0.44958  0.60683  0.05658  1.0000
  C   C381      1.0  0.34329  0.61959  0.06412  1.0000
  C   C382      1.0  0.45189  0.59060  0.10076  1.0000
  C   C383      1.0  0.34343  0.59612  0.06328  1.0000
  H   H375      1.0  0.39896  0.64965  0.27290  1.0000
  C   C384      1.0  0.32688  0.64949  0.39855  1.0000
  N   N33       1.0  0.46791  0.60152  0.08695  1.0000
  H   H376      1.0  0.43284  0.57274  0.45696  1.0000
  H   H377      1.0  0.32932  0.56719  0.04854  1.0000
  H   H378      1.0  0.28976  0.62438  0.01446  1.0000
  H   H379      1.0  0.34271  0.64708  0.40302  1.0000
  H   H380      1.0  0.28938  0.62529  0.36828  1.0000
  C   C385      1.0  0.25913  0.64375  0.32026  1.0000
  C   C386      1.0  0.32921  0.58541  0.04962  1.0000
  Fe  Fe61      1.0  0.43511  0.65694  0.10108  1.0000
  H   H381      1.0  0.47600  0.62709  0.03420  1.0000
  H   H382      1.0  0.40471  0.66280  0.19351  1.0000
  H   H383      1.0  0.39624  0.57627  0.44980  1.0000
  H   H384      1.0  0.29103  0.64566  0.03627  1.0000
  H   H385      1.0  0.25842  0.64530  0.37234  1.0000
  H   H386      1.0  0.37330  0.54566  0.46370  1.0000
  S   S122      1.0  0.49769  0.38225  0.48473  1.0000
  H   H387      1.0  0.41328  0.66341  0.44358  1.0000
  H   H388      1.0  0.45601  0.54957  0.49501  1.0000
  H   H389      1.0  0.36057  0.37361  0.49687  1.0000
  C   C387      1.0  0.46263  0.40219  0.50165  1.0000
  C   C388      1.0  0.26561  0.66077  0.37881  1.0000
  C   C389      1.0  0.49784  0.62445  0.06210  1.0000
  H   H390      1.0  0.41298  0.66150  0.35747  1.0000
  H   H391      1.0  0.38270  0.65421  0.22805  1.0000
  H   H392      1.0  0.42452  0.50958  0.49237  1.0000
  H   H393      1.0  0.38776  0.51217  0.48505  1.0000
  H   H394      1.0  0.48883  0.59977  0.11523  1.0000
  C   C390      1.0  0.41849  0.52389  0.48232  1.0000
  N   N34       1.0  0.43095  0.54066  0.47447  1.0000
  H   H395      1.0  0.37954  0.37885  0.47486  1.0000
  C   C391      1.0  0.45270  0.53937  0.47945  1.0000
  Fe  Fe62      1.0  0.35783  0.42517  0.54884  1.0000
  S   S123      1.0  0.35066  0.45640  0.56908  1.0000
  H   H396      1.0  0.35911  0.53504  0.82561  1.0000
  Fe  Fe63      1.0  0.40283  0.42587  0.56364  1.0000
  S   S124      1.0  0.39837  0.45733  0.58491  1.0000
  S   S125      1.0  0.43334  0.40705  0.56497  1.0000
  Fe  Fe64      1.0  0.36975  0.44120  0.59842  1.0000
  S   S126      1.0  0.35649  0.44409  0.63579  1.0000
  Fe  Fe65      1.0  0.37992  0.46983  0.55414  1.0000
  S   S127      1.0  0.37918  0.50542  0.53813  1.0000
  S   S128      1.0  0.37520  0.40903  0.57907  1.0000
  S   S129      1.0  0.38612  0.43940  0.53201  1.0000
  Fe  Fe66      1.0  0.39358  0.40270  0.82601  1.0000
  S   S130      1.0  0.39092  0.43616  0.80631  1.0000
  S   S131      1.0  0.42177  0.39033  0.84731  1.0000
  Fe  Fe67      1.0  0.34813  0.39191  0.81576  1.0000
  S   S132      1.0  0.34339  0.42413  0.79494  1.0000
  S   S133      1.0  0.32452  0.36438  0.82380  1.0000
  Fe  Fe68      1.0  0.37414  0.41704  0.77876  1.0000
  S   S134      1.0  0.38491  0.41666  0.74019  1.0000
  Fe  Fe69      1.0  0.36039  0.44091  0.82422  1.0000
  S   S135      1.0  0.34489  0.47356  0.83798  1.0000
  S   S136      1.0  0.37797  0.38351  0.79799  1.0000
  S   S137      1.0  0.36386  0.40873  0.84555  1.0000
  Fe  Fe70      1.0  0.33085  0.57179  0.93930  1.0000
  S   S138      1.0  0.29936  0.58364  0.92969  1.0000
  S   S139      1.0  0.34766  0.53990  0.92590  1.0000
  Fe  Fe71      1.0  0.33689  0.61243  0.97236  1.0000
  S   S140      1.0  0.30581  0.62672  0.96380  1.0000
  C   C392      1.0  0.43442  0.53385  0.54597  1.0000
  Fe  Fe72      1.0  0.29460  0.59118  0.96822  1.0000
  C   C393      1.0  0.42019  0.35797  0.54124  1.0000
  Fe  Fe73      1.0  0.31320  0.61842  0.92636  1.0000
  S   S141      1.0  0.30868  0.64009  0.89283  1.0000
  S   S142      1.0  0.32558  0.57725  0.97812  1.0000
  S   S143      1.0  0.34482  0.60612  0.93446  1.0000
  C   C394      1.0  0.28584  0.37365  0.80525  1.0000
  H   H397      1.0  0.47924  0.35572  0.80238  1.0000
  H   H398      1.0  0.39709  0.46609  0.64161  1.0000
  C   C395      1.0  0.38592  0.37033  0.53295  1.0000
  C   C396      1.0  0.33004  0.35668  0.76286  1.0000
  C   C397      1.0  0.33758  0.59356  0.87229  1.0000
  C   C398      1.0  0.29825  0.35905  0.81865  1.0000
  C   C399      1.0  0.33153  0.43833  0.89782  1.0000
  N   N35       1.0  0.35195  0.57552  0.86599  1.0000
  H   H399      1.0  0.33604  0.56701  0.83510  1.0000
  C   C400      1.0  0.34553  0.49109  0.86321  1.0000
  C   C401      1.0  0.33077  0.50841  0.86557  1.0000
  C   C402      1.0  0.33085  0.52315  0.88477  1.0000
  C   C403      1.0  0.34575  0.52083  0.90203  1.0000
  C   C404      1.0  0.36027  0.50323  0.89990  1.0000
  C   C405      1.0  0.36019  0.48848  0.88071  1.0000
  H   H400      1.0  0.31926  0.51060  0.85229  1.0000
  H   H401      1.0  0.31950  0.53644  0.88608  1.0000
  H   H402      1.0  0.37190  0.50117  0.91307  1.0000
  H   H403      1.0  0.37166  0.47531  0.87930  1.0000
  C   C406      1.0  0.48671  0.35822  0.83893  1.0000
  N   N36       1.0  0.31419  0.42137  0.86602  1.0000
  C   C407      1.0  0.45420  0.37099  0.82143  1.0000
  C   C408      1.0  0.44680  0.37809  0.84323  1.0000
  C   C409      1.0  0.45962  0.37513  0.86280  1.0000
  C   C410      1.0  0.47935  0.36543  0.86071  1.0000
  H   H404      1.0  0.39688  0.36151  0.56760  1.0000
  C   C411      1.0  0.32864  0.37313  0.74498  1.0000
  C   C412      1.0  0.36375  0.36593  0.73530  1.0000
  C   C413      1.0  0.47389  0.36111  0.81936  1.0000
  C   C414      1.0  0.39952  0.52442  0.53805  1.0000
  H   H405      1.0  0.38774  0.52518  0.85202  1.0000
  S   S144      1.0  0.35396  0.63552  0.99706  1.0000
  C   C415      1.0  0.42499  0.36069  0.51751  1.0000
  H   H406      1.0  0.44918  0.52895  0.55269  1.0000
  H   H407      1.0  0.28607  0.42360  0.84834  1.0000
  H   H408      1.0  0.37074  0.37436  0.53921  1.0000
  H   H409      1.0  0.29202  0.38891  0.79766  1.0000
  C   C416      1.0  0.33053  0.39785  0.89528  1.0000
  C   C417      1.0  0.45166  0.40200  0.54253  1.0000
  C   C418      1.0  0.46972  0.39031  0.54839  1.0000
  C   C419      1.0  0.48420  0.38466  0.53105  1.0000
  S   S145      1.0  0.27084  0.58028  0.99616  1.0000
  H   H410      1.0  0.47249  0.38544  0.56649  1.0000
  C   C420      1.0  0.31981  0.44019  0.87754  1.0000
  C   C421      1.0  0.36455  0.43577  0.66460  1.0000
  C   C422      1.0  0.38310  0.42472  0.66884  1.0000
  C   C423      1.0  0.38904  0.41919  0.69204  1.0000
  C   C424      1.0  0.37659  0.42460  0.71138  1.0000
  C   C425      1.0  0.35802  0.43564  0.70716  1.0000
  C   C426      1.0  0.35208  0.44118  0.68394  1.0000
  H   H411      1.0  0.39290  0.42042  0.65426  1.0000
  H   H412      1.0  0.40344  0.41064  0.69503  1.0000
  H   H413      1.0  0.34827  0.43999  0.72176  1.0000
  H   H414      1.0  0.33772  0.44979  0.68096  1.0000
  C   C427      1.0  0.37800  0.53966  0.85564  1.0000
  H   H415      1.0  0.49793  0.37552  0.53586  1.0000
  C   C428      1.0  0.41870  0.51812  0.54637  1.0000
  H   H416      1.0  0.39285  0.54739  0.88793  1.0000
  C   C429      1.0  0.26529  0.36843  0.80147  1.0000
  C   C430      1.0  0.26919  0.33394  0.82423  1.0000
  C   C431      1.0  0.30255  0.42371  0.84431  1.0000
  C   C432      1.0  0.39627  0.54647  0.52921  1.0000
  H   H417      1.0  0.30852  0.44225  0.52444  1.0000
  C   C433      1.0  0.28974  0.33916  0.82803  1.0000
  H   H418      1.0  0.41044  0.53610  0.59243  1.0000
  C   C434      1.0  0.40055  0.36283  0.54906  1.0000
  H   H419      1.0  0.32634  0.58704  0.88523  1.0000
  C   C435      1.0  0.44829  0.40816  0.51905  1.0000
  H   H420      1.0  0.37721  0.37001  0.72510  1.0000
  N   N37       1.0  0.38821  0.49885  0.62990  1.0000
  C   C436      1.0  0.40313  0.51132  0.61941  1.0000
  C   C437      1.0  0.36878  0.50024  0.62174  1.0000
  C   C438      1.0  0.39861  0.52623  0.60078  1.0000
  C   C439      1.0  0.36382  0.51463  0.60285  1.0000
  C   C440      1.0  0.37880  0.52786  0.59251  1.0000
  C   C441      1.0  0.39334  0.48286  0.64897  1.0000
  H   H421      1.0  0.41867  0.50966  0.62532  1.0000
  H   H422      1.0  0.35700  0.49005  0.62966  1.0000
  H   H423      1.0  0.40640  0.48856  0.65929  1.0000
  H   H424      1.0  0.34852  0.51521  0.59600  1.0000
  H   H425      1.0  0.37517  0.53890  0.57765  1.0000
  H   H426      1.0  0.38037  0.48081  0.66137  1.0000
  C   C442      1.0  0.36465  0.34970  0.75342  1.0000
  H   H427      1.0  0.34646  0.41530  0.92208  1.0000
  S   S146      1.0  0.47588  0.63300  0.51901  1.0000
  H   H428      1.0  0.38144  0.55151  0.52284  1.0000
  C   C443      1.0  0.33707  0.41699  0.90659  1.0000
  H   H429      1.0  0.31683  0.35340  0.77373  1.0000
  H   H430      1.0  0.43188  0.35307  0.55370  1.0000
  C   C444      1.0  0.43124  0.55580  0.53681  1.0000
  H   H431      1.0  0.33475  0.38115  0.90188  1.0000
  H   H432      1.0  0.31394  0.38541  0.86622  1.0000
  C   C445      1.0  0.31177  0.40732  0.51566  1.0000
  H   H433      1.0  0.34550  0.60792  0.88015  1.0000
  H   H434      1.0  0.32930  0.60053  0.85681  1.0000
  H   H435      1.0  0.34492  0.39065  0.71739  1.0000
  H   H436      1.0  0.36947  0.57902  0.89692  1.0000
  H   H437      1.0  0.45428  0.38060  0.87976  1.0000
  C   C446      1.0  0.36191  0.54522  0.84080  1.0000
  C   C447      1.0  0.38093  0.55215  0.87572  1.0000
  C   C448      1.0  0.34888  0.56325  0.84634  1.0000
  C   C449      1.0  0.36762  0.57006  0.88072  1.0000
  H   H438      1.0  0.42138  0.50120  0.55326  1.0000
  C   C450      1.0  0.30152  0.42817  0.51619  1.0000
  S   S147      1.0  0.33655  0.40288  0.52784  1.0000
  H   H439      1.0  0.44475  0.37307  0.80612  1.0000
  H   H440      1.0  0.43446  0.41709  0.51425  1.0000
  H   H441      1.0  0.25589  0.37989  0.79111  1.0000
  H   H442      1.0  0.30633  0.43960  0.83463  1.0000
  S   S148      1.0  0.45139  0.57503  0.53688  1.0000
  H   H443      1.0  0.40946  0.57889  0.52129  1.0000
  C   C451      1.0  0.31885  0.40037  0.87501  1.0000
  H   H444      1.0  0.31562  0.45683  0.87079  1.0000
  H   H445      1.0  0.30628  0.40970  0.83233  1.0000
  C   C452      1.0  0.34563  0.37770  0.73110  1.0000
  H   H446      1.0  0.31457  0.38246  0.74211  1.0000
  H   H447      1.0  0.33650  0.45338  0.90642  1.0000
  C   C453      1.0  0.25673  0.34855  0.81092  1.0000
  Fe  Fe74      1.0  0.45344  0.60562  0.51231  1.0000
  N   N38       1.0  0.34786  0.34512  0.76679  1.0000
  C   C454      1.0  0.41212  0.56200  0.52824  1.0000
  H   H448      1.0  0.37900  0.34121  0.75709  1.0000
  H   H449      1.0  0.48891  0.36369  0.87595  1.0000
  H   H450      1.0  0.27445  0.44709  0.50654  1.0000
  C   C455      1.0  0.48067  0.39039  0.50752  1.0000
  N   N39       1.0  0.39076  0.37300  0.50971  1.0000
  H   H451      1.0  0.35734  0.33619  0.80117  1.0000
  H   H452      1.0  0.44044  0.35770  0.51145  1.0000
  C   C456      1.0  0.28213  0.43086  0.50596  1.0000
  H   H453      1.0  0.42528  0.91652  0.03469  1.0000
  H   H454      1.0  0.31524  0.91762  0.35329  1.0000
  S   S149      1.0  0.43644  0.82068  0.03502  1.0000
  S   S150      1.0  0.46954  0.69607  0.13683  1.0000
  C   C457      1.0  0.33034  0.97579  0.36603  1.0000
  Fe  Fe75      1.0  0.45940  0.70028  0.09929  1.0000
  S   S151      1.0  0.47309  0.72778  0.07573  1.0000
  H   H455      1.0  0.39988  0.72245  0.31812  1.0000
  H   H456      1.0  0.41243  0.93927  0.06797  1.0000
  Fe  Fe76      1.0  0.34634  0.69417  0.29619  1.0000
  H   H457      1.0  0.29528  0.78844  0.47033  1.0000
  S   S152      1.0  0.36523  0.68106  0.26473  1.0000
  Fe  Fe77      1.0  0.32139  0.72784  0.32636  1.0000
  S   S153      1.0  0.31390  0.70139  0.35360  1.0000
  S   S154      1.0  0.31021  0.76433  0.33192  1.0000
  Fe  Fe78      1.0  0.34681  0.69137  0.35045  1.0000
  H   H458      1.0  0.34848  0.98560  0.08459  1.0000
  H   H459      1.0  0.33810  0.83770  0.33620  1.0000
  H   H460      1.0  0.26924  0.84142  0.46815  1.0000
  S   S155      1.0  0.35457  0.71872  0.32418  1.0000
  S   S156      1.0  0.31331  0.70531  0.29599  1.0000
  Fe  Fe79      1.0  0.32101  0.91413  0.42772  1.0000
  S   S157      1.0  0.29755  0.88739  0.42170  1.0000
  S   S158      1.0  0.32239  0.94056  0.39720  1.0000
  Fe  Fe80      1.0  0.33383  0.89128  0.47469  1.0000
  S   S159      1.0  0.31134  0.86373  0.47111  1.0000
  C   C458      1.0  0.43873  0.78695  0.11879  1.0000
  Fe  Fe81      1.0  0.32138  0.86221  0.43329  1.0000
  S   S160      1.0  0.32977  0.82726  0.41879  1.0000
  Fe  Fe82      1.0  0.28896  0.89100  0.45998  1.0000
  C   C459      1.0  0.38702  0.67143  0.22438  1.0000
  S   S161      1.0  0.34543  0.88843  0.43749  1.0000
  S   S162      1.0  0.31087  0.91904  0.46536  1.0000
  N   N40       1.0  0.44893  0.76805  0.12674  1.0000
  H   H461      1.0  0.37889  0.85777  0.49029  1.0000
  H   H462      1.0  0.40370  0.70220  0.35656  1.0000
  C   C460      1.0  0.34589  0.97059  0.07376  1.0000
  C   C461      1.0  0.31570  0.78161  0.35626  1.0000
  C   C462      1.0  0.30699  0.80344  0.35739  1.0000
  C   C463      1.0  0.31103  0.81768  0.37631  1.0000
  C   C464      1.0  0.32393  0.81027  0.39436  1.0000
  C   C465      1.0  0.33260  0.78847  0.39323  1.0000
  C   C466      1.0  0.32850  0.77423  0.37439  1.0000
  H   H463      1.0  0.29704  0.80935  0.34350  1.0000
  H   H464      1.0  0.30420  0.83436  0.37688  1.0000
  H   H465      1.0  0.34264  0.78251  0.40701  1.0000
  H   H466      1.0  0.33538  0.75755  0.37382  1.0000
  C   C467      1.0  0.43811  0.75082  0.14043  1.0000
  H   H467      1.0  0.29244  0.81520  0.48427  1.0000
  C   C468      1.0  0.46880  0.79948  0.09843  1.0000
  H   H468      1.0  0.49447  0.77657  0.10079  1.0000
  C   C469      1.0  0.40619  0.69334  0.34028  1.0000
  H   H469      1.0  0.31193  0.81130  0.46246  1.0000
  C   C470      1.0  0.33663  0.96425  0.38668  1.0000
  H   H470      1.0  0.41727  0.66931  0.26174  1.0000
  C   C471      1.0  0.41902  0.94244  0.00869  1.0000
  C   C472      1.0  0.40530  0.69840  0.19955  1.0000
  H   H471      1.0  0.32866  0.91600  0.32550  1.0000
  C   C473      1.0  0.40436  0.97750  0.02369  1.0000
  C   C474      1.0  0.37999  0.68860  0.23928  1.0000
  C   C475      1.0  0.38571  0.71076  0.23412  1.0000
  C   C476      1.0  0.29612  0.80695  0.46740  1.0000
  C   C477      1.0  0.26955  0.83254  0.45172  1.0000
  C   C478      1.0  0.44608  0.79358  0.04357  1.0000
  C   C479      1.0  0.43380  0.77915  0.05724  1.0000
  C   C480      1.0  0.44152  0.75848  0.06645  1.0000
  C   C481      1.0  0.46169  0.75208  0.06219  1.0000
  C   C482      1.0  0.47379  0.76622  0.04800  1.0000
  C   C483      1.0  0.46603  0.78680  0.03866  1.0000
  H   H472      1.0  0.41833  0.78421  0.06110  1.0000
  H   H473      1.0  0.43201  0.74778  0.07726  1.0000
  C   C484      1.0  0.34890  0.89010  0.37266  1.0000
  H   H474      1.0  0.47568  0.79771  0.02825  1.0000
  C   C485      1.0  0.45206  0.98482  0.04672  1.0000
  C   C486      1.0  0.40471  0.96850  0.04653  1.0000
  C   C487      1.0  0.41213  0.94639  0.05035  1.0000
  C   C488      1.0  0.41940  0.93345  0.03154  1.0000
  C   C489      1.0  0.44854  0.80301  0.10463  1.0000
  S   S163      1.0  0.42132  0.70569  0.17506  1.0000
  C   C490      1.0  0.35637  0.86895  0.38018  1.0000
  H   H475      1.0  0.35912  0.96310  0.41375  1.0000
  H   H476      1.0  0.39082  0.69177  0.42384  1.0000
  C   C491      1.0  0.29609  0.67197  0.39936  1.0000
  C   C492      1.0  0.33025  0.91455  0.34484  1.0000
  C   C493      1.0  0.25686  0.84019  0.43360  1.0000
  C   C494      1.0  0.40648  0.69278  0.29799  1.0000
  H   H477      1.0  0.40252  0.73279  0.21072  1.0000
  H   H478      1.0  0.36391  0.94726  0.03952  1.0000
  H   H479      1.0  0.29338  0.78953  0.42512  1.0000
  H   H480      1.0  0.47627  0.81126  0.08654  1.0000
  H   H481      1.0  0.27091  0.80200  0.39273  1.0000
  H   H482      1.0  0.46143  0.96269  0.01900  1.0000
  H   H483      1.0  0.34052  0.92817  0.35016  1.0000
  C   C495      1.0  0.35397  0.97169  0.39791  1.0000
  H   H484      1.0  0.43108  0.73876  0.12849  1.0000
  H   H485      1.0  0.33089  0.96350  0.07822  1.0000
  C   C496      1.0  0.36476  0.99030  0.38864  1.0000
  C   C497      1.0  0.34111  0.99444  0.35677  1.0000
  S   S164      1.0  0.42663  0.69333  0.10730  1.0000
  H   H486      1.0  0.25775  0.92867  0.49853  1.0000
  Fe  Fe83      1.0  0.44907  0.84435  0.00640  1.0000
  H   H487      1.0  0.35799  0.95811  0.07866  1.0000
  H   H488      1.0  0.45382  0.97205  0.06048  1.0000
  H   H489      1.0  0.42278  0.78941  0.12283  1.0000
  H   H490      1.0  0.40404  0.70155  0.28133  1.0000
  C   C498      1.0  0.39955  0.67624  0.20471  1.0000
  C   C499      1.0  0.47903  0.78008  0.10647  1.0000
  N   N41       1.0  0.34686  0.97672  0.04875  1.0000
  C   C500      1.0  0.35637  0.96263  0.03331  1.0000
  C   C501      1.0  0.27022  0.81056  0.40935  1.0000
  N   N42       1.0  0.33829  0.89236  0.35221  1.0000
  H   H491      1.0  0.44848  0.74121  0.15241  1.0000
  N   N43       1.0  0.28232  0.81440  0.44866  1.0000
  C   C502      1.0  0.35265  0.85008  0.36688  1.0000
  C   C503      1.0  0.34145  0.85245  0.34633  1.0000
  Fe  Fe84      1.0  0.30815  0.67817  0.32364  1.0000
  H   H492      1.0  0.35152  0.90468  0.38334  1.0000
  C   C504      1.0  0.39220  0.67497  0.41692  1.0000
  H   H493      1.0  0.31697  0.97031  0.35711  1.0000
  H   H494      1.0  0.42603  0.75836  0.15162  1.0000
  C   C505      1.0  0.39827  0.71557  0.21445  1.0000
  H   H495      1.0  0.48941  0.76143  0.04458  1.0000
  C   C506      1.0  0.46876  0.76437  0.12056  1.0000
  H   H496      1.0  0.25614  0.66721  0.39345  1.0000
  C   C507      1.0  0.45634  0.97959  0.02345  1.0000
  C   C508      1.0  0.35716  0.96819  0.00936  1.0000
  H   H497      1.0  0.32530  0.87550  0.32345  1.0000
  Fe  Fe85      1.0  0.43702  0.68673  0.14470  1.0000
  C   C509      1.0  0.28281  0.80348  0.42780  1.0000
  S   S165      1.0  0.36502  0.69032  0.38418  1.0000
  C   C510      1.0  0.33424  0.87384  0.33928  1.0000
  H   H498      1.0  0.44025  0.81755  0.09752  1.0000
  H   H499      1.0  0.47654  0.74879  0.12571  1.0000
  H   H500      1.0  0.36469  0.86707  0.39645  1.0000
  H   H501      1.0  0.38050  0.72423  0.24526  1.0000
  H   H502      1.0  0.35800  0.83353  0.37285  1.0000
  S   S166      1.0  0.25560  0.88667  0.47171  1.0000
  C   C511      1.0  0.40399  0.70467  0.31875  1.0000
  S   S167      1.0  0.46442  0.87753  0.01220  1.0000
  S   S168      1.0  0.39577  0.98415  0.07068  1.0000
  H   H503      1.0  0.28823  0.68739  0.40424  1.0000
  H   H504      1.0  0.39727  0.66806  0.05692  1.0000
  C   C512      1.0  0.25724  0.82912  0.41228  1.0000
  H   H505      1.0  0.48355  0.69729  0.48541  1.0000
  H   H506      1.0  0.37811  0.99583  0.39758  1.0000
  H   H507      1.0  0.26555  0.67338  0.36409  1.0000
  H   H508      1.0  0.39867  0.99447  0.02050  1.0000
  C   C513      1.0  0.41118  0.67041  0.34080  1.0000
  H   H509      1.0  0.37259  0.66936  0.02423  1.0000
  C   C514      1.0  0.38122  0.66946  0.39693  1.0000
  H   H510      1.0  0.32428  0.68158  0.41519  1.0000
  C   C515      1.0  0.33752  0.99618  0.04088  1.0000
  N   N44       1.0  0.41144  0.67029  0.29866  1.0000
  S   S169      1.0  0.34087  0.66614  0.32287  1.0000
  C   C516      1.0  0.49999  0.69380  0.48812  1.0000
  C   C517      1.0  0.31641  0.66880  0.40563  1.0000
  Fe  Fe86      1.0  0.44856  0.85156  0.95310  1.0000
  S   S170      1.0  0.42602  0.85976  0.98141  1.0000
  S   S171      1.0  0.44198  0.83234  0.92000  1.0000
  Fe  Fe87      1.0  0.48439  0.86852  0.98128  1.0000
  H   H511      1.0  0.49785  0.85551  0.93836  1.0000
  Fe  Fe88      1.0  0.44303  0.89208  0.98510  1.0000
  S   S172      1.0  0.42836  0.92727  0.98443  1.0000
  S   S173      1.0  0.47063  0.83425  0.97778  1.0000
  S   S174      1.0  0.46398  0.88497  0.95448  1.0000
  Fe  Fe89      1.0  0.32911  0.77020  0.84381  1.0000
  S   S175      1.0  0.31533  0.80414  0.85255  1.0000
  S   S176      1.0  0.32742  0.74477  0.87475  1.0000
  Fe  Fe90      1.0  0.34784  0.78932  0.79736  1.0000
  S   S177      1.0  0.33542  0.82425  0.80360  1.0000
  S   S178      1.0  0.36964  0.77867  0.76760  1.0000
  Fe  Fe91      1.0  0.34532  0.81813  0.84099  1.0000
  S   S179      1.0  0.35986  0.84490  0.86283  1.0000
  Fe  Fe92      1.0  0.30626  0.80747  0.81473  1.0000
  S   S180      1.0  0.27538  0.81959  0.79981  1.0000
  S   S181      1.0  0.35955  0.78442  0.83434  1.0000
  S   S182      1.0  0.31813  0.77235  0.80640  1.0000
  C   C518      1.0  0.42113  0.90603  0.55651  1.0000
  Fe  Fe93      1.0  0.43184  0.81726  0.64647  1.0000
  S   S183      1.0  0.44197  0.84665  0.62347  1.0000
  S   S184      1.0  0.41038  0.82656  0.67717  1.0000
  Fe  Fe94      1.0  0.45539  0.78395  0.61540  1.0000
  S   S185      1.0  0.46743  0.81122  0.59149  1.0000
  S   S186      1.0  0.46145  0.74632  0.60983  1.0000
  Fe  Fe95      1.0  0.47347  0.83063  0.62433  1.0000
  Fe  Fe96      1.0  0.43532  0.82517  0.59249  1.0000
  S   S187      1.0  0.42197  0.83156  0.55576  1.0000
  S   S188      1.0  0.46345  0.80219  0.64860  1.0000
  S   S189      1.0  0.42320  0.79698  0.61520  1.0000
  H   H512      1.0  0.40618  0.83449  0.50910  1.0000
  H   H513      1.0  0.43571  0.79429  0.74917  1.0000
  C   C519      1.0  0.38934  0.86229  0.55705  1.0000
  C   C520      1.0  0.40119  0.84747  0.54374  1.0000
  C   C521      1.0  0.39713  0.84586  0.51964  1.0000
  H   H514      1.0  0.44050  0.87318  0.53317  1.0000
  H   H515      1.0  0.39212  0.86365  0.57562  1.0000
  C   C522      1.0  0.26402  0.73323  0.83970  1.0000
  C   C523      1.0  0.26464  0.77416  0.83386  1.0000
  C   C524      1.0  0.45205  0.70773  0.54158  1.0000
  C   C525      1.0  0.45096  0.73144  0.54147  1.0000
  C   C526      1.0  0.45415  0.74349  0.56209  1.0000
  C   C527      1.0  0.45836  0.73194  0.58316  1.0000
  C   C528      1.0  0.45991  0.70824  0.58318  1.0000
  C   C529      1.0  0.45678  0.69617  0.56250  1.0000
  C   C530      1.0  0.35778  0.81015  0.91535  1.0000
  H   H516      1.0  0.45770  0.67795  0.56287  1.0000
  C   C531      1.0  0.37039  0.77269  0.90743  1.0000
  H   H517      1.0  0.27797  0.77204  0.87810  1.0000
  C   C532      1.0  0.40719  0.74234  0.58492  1.0000
  C   C533      1.0  0.37913  0.79169  0.74118  1.0000
  C   C534      1.0  0.39291  0.77951  0.72705  1.0000
  C   C535      1.0  0.40211  0.78956  0.70700  1.0000
  C   C536      1.0  0.39766  0.81204  0.70074  1.0000
  C   C537      1.0  0.38354  0.82405  0.71459  1.0000
  C   C538      1.0  0.37434  0.81401  0.73464  1.0000
  H   H518      1.0  0.39676  0.76224  0.73185  1.0000
  H   H519      1.0  0.41293  0.78003  0.69667  1.0000
  H   H520      1.0  0.37988  0.84141  0.70996  1.0000
  H   H521      1.0  0.36374  0.82364  0.74515  1.0000
  C   C539      1.0  0.32367  0.71520  0.87878  1.0000
  C   C540      1.0  0.32451  0.70587  0.90168  1.0000
  C   C541      1.0  0.32046  0.68289  0.90619  1.0000
  C   C542      1.0  0.31882  0.70113  0.86035  1.0000
  H   H522      1.0  0.32821  0.71653  0.91612  1.0000
  H   H523      1.0  0.41972  0.79294  0.94176  1.0000
  H   H524      1.0  0.31805  0.70798  0.84265  1.0000
  C   C543      1.0  0.40533  0.79943  0.94960  1.0000
  H   H525      1.0  0.39874  0.74715  0.52701  1.0000
  H   H526      1.0  0.41209  0.71116  0.60436  1.0000
  C   C544      1.0  0.40837  0.71887  0.58748  1.0000
  C   C545      1.0  0.41923  0.83623  0.90404  1.0000
  C   C546      1.0  0.41409  0.82037  0.88723  1.0000
  C   C547      1.0  0.39596  0.82274  0.87447  1.0000
  C   C548      1.0  0.38298  0.84125  0.87813  1.0000
  C   C549      1.0  0.38822  0.85718  0.89480  1.0000
  C   C550      1.0  0.40614  0.85459  0.90789  1.0000
  H   H527      1.0  0.42413  0.80611  0.88417  1.0000
  H   H528      1.0  0.39209  0.81031  0.86176  1.0000
  H   H529      1.0  0.37828  0.87157  0.89773  1.0000
  H   H530      1.0  0.40996  0.86696  0.92071  1.0000
  H   H531      1.0  0.37558  0.82908  0.93899  1.0000
  C   C551      1.0  0.40579  0.70555  0.56792  1.0000
  C   C552      1.0  0.27695  0.73651  0.88557  1.0000
  H   H532      1.0  0.46325  0.69916  0.59938  1.0000
  H   H533      1.0  0.42428  0.92416  0.55341  1.0000
  C   C553      1.0  0.26653  0.71364  0.85358  1.0000
  C   C554      1.0  0.27297  0.71536  0.87668  1.0000
  C   C555      1.0  0.25325  0.83506  0.80923  1.0000
  C   C556      1.0  0.40095  0.73933  0.54418  1.0000
  C   C557      1.0  0.47495  0.87077  0.57691  1.0000
  H   H534      1.0  0.41094  0.97150  0.98721  1.0000
  H   H535      1.0  0.36532  0.88759  0.55655  1.0000
  H   H536      1.0  0.45318  0.76170  0.56175  1.0000
  H   H537      1.0  0.25903  0.73181  0.82173  1.0000
  H   H538      1.0  0.26383  0.69720  0.84641  1.0000
  C   C558      1.0  0.35601  0.78986  0.90376  1.0000
  H   H539      1.0  0.36523  0.95724  0.99730  1.0000
  H   H540      1.0  0.41921  0.78296  0.56167  1.0000
  C   C559      1.0  0.27440  0.75573  0.87118  1.0000
  H   H541      1.0  0.41456  0.89938  0.54019  1.0000
  H   H542      1.0  0.40251  0.79057  0.96662  1.0000
  H   H543      1.0  0.36898  0.75684  0.89845  1.0000
  H   H544      1.0  0.41000  0.75253  0.60006  1.0000
  C   C560      1.0  0.37411  0.87583  0.54618  1.0000
  H   H545      1.0  0.40777  0.81757  0.95296  1.0000
  H   H546      1.0  0.40745  0.68736  0.56946  1.0000
  H   H547      1.0  0.32109  0.67610  0.92393  1.0000
  N   N45       1.0  0.38836  0.79628  0.93364  1.0000
  C   C561      1.0  0.31526  0.66888  0.88787  1.0000
  H   H548      1.0  0.34698  0.82383  0.91202  1.0000
  N   N46       1.0  0.40339  0.75227  0.56349  1.0000
  H   H549      1.0  0.47360  0.89100  0.60775  1.0000
  C   C562      1.0  0.37014  0.87435  0.52203  1.0000
  N   N47       1.0  0.40464  0.82981  0.77880  1.0000
  C   C563      1.0  0.41527  0.81053  0.77357  1.0000
  C   C564      1.0  0.40679  0.84890  0.76520  1.0000
  C   C565      1.0  0.42807  0.80988  0.75391  1.0000
  C   C566      1.0  0.41940  0.84881  0.74534  1.0000
  C   C567      1.0  0.43002  0.82912  0.73965  1.0000
  C   C568      1.0  0.39126  0.83001  0.79945  1.0000
  H   H550      1.0  0.41318  0.79524  0.78401  1.0000
  H   H551      1.0  0.39834  0.86417  0.76930  1.0000
  H   H552      1.0  0.42043  0.86362  0.73396  1.0000
  H   H553      1.0  0.43911  0.82854  0.72370  1.0000
  H   H554      1.0  0.40016  0.83263  0.81557  1.0000
  H   H555      1.0  0.37940  0.84349  0.79800  1.0000
  H   H556      1.0  0.38319  0.81380  0.80124  1.0000
  N   N48       1.0  0.43971  0.89378  0.56341  1.0000
  C   C569      1.0  0.44794  0.87762  0.54928  1.0000
  C   C570      1.0  0.44880  0.89877  0.58409  1.0000
  H   H557      1.0  0.26114  0.83649  0.84566  1.0000
  C   C571      1.0  0.46659  0.88742  0.59110  1.0000
  C   C572      1.0  0.46556  0.86576  0.55590  1.0000
  H   H558      1.0  0.40939  0.90427  0.57048  1.0000
  H   H559      1.0  0.39457  0.78481  0.57549  1.0000
  H   H560      1.0  0.44216  0.91138  0.59544  1.0000
  H   H561      1.0  0.27080  0.77176  0.81586  1.0000
  S   S190      1.0  0.44645  0.69362  0.51535  1.0000
  H   H562      1.0  0.28277  0.73792  0.90319  1.0000
  H   H563      1.0  0.44738  0.74056  0.52536  1.0000
  C   C573      1.0  0.37409  0.81306  0.93043  1.0000
  H   H564      1.0  0.39778  0.76282  0.92527  1.0000
  C   C574      1.0  0.40341  0.77690  0.56107  1.0000
  C   C575      1.0  0.40203  0.71580  0.54611  1.0000
  H   H565      1.0  0.34360  0.78749  0.89177  1.0000
  C   C576      1.0  0.38657  0.77619  0.92256  1.0000
  C   C577      1.0  0.31449  0.67818  0.86492  1.0000
  N   N49       1.0  0.26802  0.75390  0.84855  1.0000
  H   H566      1.0  0.27229  0.78906  0.84092  1.0000
  H   H567      1.0  0.39660  0.78305  0.54431  1.0000
  H   H568      1.0  0.27554  0.70027  0.88745  1.0000
  H   H569      1.0  0.49277  0.72644  0.51818  1.0000
  S   S191      1.0  0.35185  0.89315  0.50894  1.0000
  H   H570      1.0  0.40092  0.70559  0.53063  1.0000
  H   H571      1.0  0.47154  0.85233  0.54510  1.0000
  H   H572      1.0  0.45585  0.99146  0.98772  1.0000
  H   H573      1.0  0.49361  0.84262  0.91053  1.0000
  H   H574      1.0  0.31048  0.66756  0.85057  1.0000
  C   C578      1.0  0.38162  0.85903  0.50888  1.0000
  S   S192      1.0  0.49953  0.85556  0.63145  1.0000
  H   H575      1.0  0.49982  0.72616  0.56073  1.0000
  C   C579      1.0  0.34800  0.98821  0.00125  1.0000
  H   H576      1.0  0.48846  0.86146  0.58248  1.0000
  C   C580      1.0  0.45299  0.99593  0.00579  1.0000
  H   H577      1.0  0.34871  0.99291  0.98277  1.0000
  C   C581      1.0  0.41130  0.96444  0.00486  1.0000
  C   C582      1.0  0.49992  0.71167  0.52628  1.0000
  H   H578      1.0  0.71672  0.32273  0.07983  1.0000
  H   H579      1.0  0.57138  0.24900  0.45389  1.0000
  C   C583      1.0  0.61883  0.30265  0.46887  1.0000
  Fe  Fe97      1.0  0.67373  0.09922  0.50452  1.0000
  Fe  Fe98      1.0  0.67107  0.19696  0.18392  1.0000
  S   S193      1.0  0.66957  0.16432  0.16483  1.0000
  S   S194      1.0  0.66246  0.20115  0.22299  1.0000
  Fe  Fe99      1.0  0.69136  0.22104  0.14079  1.0000
  S   S195      1.0  0.69110  0.18961  0.11931  1.0000
  S   S196      1.0  0.70698  0.25292  0.12662  1.0000
  Fe  Fe100     1.0  0.65945  0.18556  0.13365  1.0000
  S   S197      1.0  0.63026  0.18225  0.11294  1.0000
  Fe  Fe101     1.0  0.70172  0.17108  0.15227  1.0000
  S   S198      1.0  0.72475  0.14118  0.15396  1.0000
  S   S199      1.0  0.65923  0.21807  0.15352  1.0000
  S   S200      1.0  0.70371  0.20273  0.17304  1.0000
  C   C584      1.0  0.60884  0.20514  0.02278  1.0000
  C   C585      1.0  0.57691  0.26126  0.46606  1.0000
  S   S201      1.0  0.64331  0.10318  0.48534  1.0000
  H   H580      1.0  0.58599  0.08727  0.06212  1.0000
  Fe  Fe102     1.0  0.57260  0.18057  0.32336  1.0000
  S   S202      1.0  0.57103  0.14536  0.33890  1.0000
  S   S203      1.0  0.58189  0.18336  0.28430  1.0000
  Fe  Fe103     1.0  0.55560  0.20132  0.36900  1.0000
  S   S204      1.0  0.55382  0.16717  0.38684  1.0000
  S   S205      1.0  0.54068  0.22929  0.39073  1.0000
  Fe  Fe104     1.0  0.58465  0.16026  0.37124  1.0000
  S   S206      1.0  0.61473  0.14671  0.38666  1.0000
  Fe  Fe105     1.0  0.54004  0.15541  0.35301  1.0000
  S   S207      1.0  0.51119  0.13349  0.35616  1.0000
  S   S208      1.0  0.58727  0.19521  0.35504  1.0000
  S   S209      1.0  0.54080  0.18979  0.33581  1.0000
  C   C586      1.0  0.63581  0.11638  0.45822  1.0000
  C   C587      1.0  0.61499  0.11930  0.45347  1.0000
  C   C588      1.0  0.60823  0.12906  0.43203  1.0000
  C   C589      1.0  0.62224  0.13579  0.41482  1.0000
  C   C590      1.0  0.64306  0.13307  0.41968  1.0000
  C   C591      1.0  0.64982  0.12363  0.44127  1.0000
  H   H581      1.0  0.60397  0.11369  0.46635  1.0000
  H   H582      1.0  0.59219  0.13086  0.42859  1.0000
  H   H583      1.0  0.65406  0.13811  0.40653  1.0000
  H   H584      1.0  0.66586  0.12143  0.44451  1.0000
  C   C592      1.0  0.56539  0.29528  0.42022  1.0000
  C   C593      1.0  0.54640  0.28731  0.42714  1.0000
  C   C594      1.0  0.53914  0.26711  0.41794  1.0000
  C   C595      1.0  0.55083  0.25446  0.40197  1.0000
  C   C596      1.0  0.56992  0.26230  0.39530  1.0000
  C   C597      1.0  0.57705  0.28266  0.40422  1.0000
  H   H585      1.0  0.53725  0.29679  0.43942  1.0000
  H   H586      1.0  0.52432  0.26130  0.42317  1.0000
  H   H587      1.0  0.57905  0.25287  0.38294  1.0000
  H   H588      1.0  0.59173  0.28868  0.39866  1.0000
  H   H589      1.0  0.66047  0.14665  0.49011  1.0000
  C   C598      1.0  0.63952  0.19723  0.23942  1.0000
  C   C599      1.0  0.63949  0.20095  0.26376  1.0000
  C   C600      1.0  0.62203  0.19713  0.27774  1.0000
  C   C601      1.0  0.60419  0.18972  0.26753  1.0000
  C   C602      1.0  0.60411  0.18648  0.24312  1.0000
  C   C603      1.0  0.62162  0.19008  0.22917  1.0000
  H   H590      1.0  0.65316  0.20661  0.27193  1.0000
  H   H591      1.0  0.62237  0.19992  0.29640  1.0000
  H   H592      1.0  0.59042  0.18087  0.23495  1.0000
  H   H593      1.0  0.62127  0.18723  0.21052  1.0000
  C   C604      1.0  0.69802  0.27620  0.10899  1.0000
  C   C605      1.0  0.67739  0.28035  0.10501  1.0000
  C   C606      1.0  0.67098  0.29982  0.09221  1.0000
  C   C607      1.0  0.68503  0.31529  0.08292  1.0000
  C   C608      1.0  0.70568  0.31107  0.08679  1.0000
  C   C609      1.0  0.71208  0.29175  0.09987  1.0000
  H   H594      1.0  0.66636  0.26867  0.11196  1.0000
  H   H595      1.0  0.65497  0.30288  0.08939  1.0000
  C   C610      1.0  0.63388  0.21079  0.05262  1.0000
  H   H596      1.0  0.72808  0.28877  0.10282  1.0000
  C   C611      1.0  0.61727  0.13614  0.05155  1.0000
  C   C612      1.0  0.60336  0.15294  0.05810  1.0000
  C   C613      1.0  0.60761  0.16683  0.07703  1.0000
  C   C614      1.0  0.62582  0.16419  0.08944  1.0000
  C   C615      1.0  0.63981  0.14752  0.08280  1.0000
  C   C616      1.0  0.63550  0.13351  0.06393  1.0000
  H   H597      1.0  0.58927  0.15512  0.04878  1.0000
  H   H598      1.0  0.59675  0.17976  0.08206  1.0000
  H   H599      1.0  0.65389  0.14536  0.09225  1.0000
  H   H600      1.0  0.64634  0.12053  0.05896  1.0000
  N   N50       1.0  0.62942  0.14431  0.30240  1.0000
  C   C617      1.0  0.64782  0.14912  0.29248  1.0000
  C   C618      1.0  0.61387  0.13725  0.28885  1.0000
  C   C619      1.0  0.65110  0.14659  0.26839  1.0000
  C   C620      1.0  0.61662  0.13451  0.26473  1.0000
  C   C621      1.0  0.63536  0.13926  0.25447  1.0000
  C   C622      1.0  0.62575  0.14825  0.32736  1.0000
  H   H601      1.0  0.65990  0.15556  0.30304  1.0000
  H   H602      1.0  0.59897  0.13457  0.29649  1.0000
  H   H603      1.0  0.66543  0.15122  0.26035  1.0000
  H   H604      1.0  0.60400  0.12976  0.25397  1.0000
  H   H605      1.0  0.63747  0.13814  0.23564  1.0000
  H   H606      1.0  0.61671  0.13447  0.33547  1.0000
  H   H607      1.0  0.64004  0.14889  0.33746  1.0000
  H   H608      1.0  0.61732  0.16444  0.32952  1.0000
  C   C623      1.0  0.50184  0.17729  0.40146  1.0000
  N   N51       1.0  0.70280  0.27562  0.17908  1.0000
  C   C624      1.0  0.68403  0.28099  0.17031  1.0000
  C   C625      1.0  0.70482  0.26056  0.19743  1.0000
  C   C626      1.0  0.66668  0.27113  0.17995  1.0000
  C   C627      1.0  0.68778  0.25055  0.20761  1.0000
  C   C628      1.0  0.66861  0.25587  0.19878  1.0000
  C   C629      1.0  0.72099  0.28601  0.16904  1.0000
  H   H609      1.0  0.68244  0.29243  0.15533  1.0000
  H   H610      1.0  0.71970  0.25593  0.20405  1.0000
  H   H611      1.0  0.65189  0.27490  0.17254  1.0000
  H   H612      1.0  0.68943  0.23833  0.22193  1.0000
  H   H613      1.0  0.65533  0.24775  0.20621  1.0000
  H   H614      1.0  0.71753  0.29605  0.15283  1.0000
  H   H615      1.0  0.72797  0.29714  0.18196  1.0000
  N   N52       1.0  0.61994  0.18727  0.01451  1.0000
  H   H616      1.0  0.51370  0.19021  0.40330  1.0000
  H   H617      1.0  0.73208  0.27266  0.16381  1.0000
  S   S210      1.0  0.55801  0.14501  0.01323  1.0000
  H   H618      1.0  0.55195  0.25751  0.49031  1.0000
  H   H619      1.0  0.65396  0.17611  0.48634  1.0000
  H   H620      1.0  0.50674  0.20931  0.36808  1.0000
  H   H621      1.0  0.50957  0.16060  0.39966  1.0000
  H   H622      1.0  0.64609  0.16599  0.01911  1.0000
  H   H623      1.0  0.63047  0.29209  0.45994  1.0000
  S   S211      1.0  0.51316  0.10712  0.03362  1.0000
  C   C630      1.0  0.59055  0.29411  0.49557  1.0000
  H   H624      1.0  0.61405  0.31663  0.45671  1.0000
  N   N53       1.0  0.55415  0.12742  0.08325  1.0000
  C   C631      1.0  0.56111  0.11021  0.06961  1.0000
  C   C632      1.0  0.56577  0.13513  0.10106  1.0000
  C   C633      1.0  0.58020  0.10031  0.07356  1.0000
  C   C634      1.0  0.58489  0.12551  0.10559  1.0000
  C   C635      1.0  0.59212  0.10801  0.09170  1.0000
  C   C636      1.0  0.53411  0.13749  0.07851  1.0000
  H   H625      1.0  0.55198  0.10426  0.05537  1.0000
  H   H626      1.0  0.56047  0.14901  0.11168  1.0000
  H   H627      1.0  0.59438  0.13214  0.11920  1.0000
  H   H628      1.0  0.60724  0.10099  0.09441  1.0000
  C   C637      1.0  0.64508  0.19256  0.04403  1.0000
  C   C638      1.0  0.56595  0.26615  0.48639  1.0000
  C   C639      1.0  0.61567  0.21722  0.04191  1.0000
  S   S212      1.0  0.61228  0.11791  0.02832  1.0000
  H   H629      1.0  0.53038  0.15171  0.09020  1.0000
  C   C640      1.0  0.59453  0.27316  0.46082  1.0000
  H   H630      1.0  0.65890  0.18701  0.05277  1.0000
  C   C641      1.0  0.63777  0.18080  0.02496  1.0000
  H   H631      1.0  0.52223  0.12456  0.08085  1.0000
  C   C642      1.0  0.57285  0.28259  0.50134  1.0000
  H   H632      1.0  0.63906  0.21948  0.06797  1.0000
  H   H633      1.0  0.60241  0.27002  0.44443  1.0000
  H   H634      1.0  0.53340  0.14396  0.06008  1.0000
  H   H635      1.0  0.60674  0.23119  0.04867  1.0000
  S   S213      1.0  0.70211  0.11869  0.49750  1.0000
  S   S214      1.0  0.57572  0.32024  0.43172  1.0000
  Fe  Fe106     1.0  0.58358  0.12078  0.00679  1.0000
  N   N54       1.0  0.60113  0.28932  0.47552  1.0000
  H   H636      1.0  0.59447  0.20989  0.01477  1.0000
  H   H637      1.0  0.62599  0.31004  0.48444  1.0000
  S   S215      1.0  0.74555  0.06806  0.48796  1.0000
  H   H638      1.0  0.67780  0.16713  0.49960  1.0000
  C   C643      1.0  0.66139  0.16346  0.49819  1.0000
  Fe  Fe107     1.0  0.53713  0.11641  0.00599  1.0000
  Fe  Fe108     1.0  0.71939  0.08664  0.50722  1.0000
  S   S216      1.0  0.53570  0.12505  0.96736  1.0000
  S   S217      1.0  0.58574  0.12853  0.96815  1.0000
  Fe  Fe109     1.0  0.55893  0.15180  0.97412  1.0000
  S   S218      1.0  0.56174  0.18965  0.96617  1.0000
  Fe  Fe110     1.0  0.56286  0.10125  0.96441  1.0000
  S   S219      1.0  0.56352  0.07316  0.93784  1.0000
  Fe  Fe111     1.0  0.56122  0.28574  0.86630  1.0000
  C   C644      1.0  0.71276  0.01014  0.54715  1.0000
  S   S220      1.0  0.55433  0.24830  0.87100  1.0000
  C   C645      1.0  0.63832  0.32813  0.57966  1.0000
  H   H639      1.0  0.59775  0.00507  0.90870  1.0000
  S   S221      1.0  0.59241  0.29968  0.86782  1.0000
  S   S222      1.0  0.55513  0.30186  0.83088  1.0000
  H   H640      1.0  0.51482  0.26563  0.92818  1.0000
  H   H641      1.0  0.71723  0.99966  0.53200  1.0000
  Fe  Fe112     1.0  0.68372  0.26112  0.64107  1.0000
  S   S223      1.0  0.70158  0.28860  0.62317  1.0000
  S   S224      1.0  0.68531  0.22298  0.63467  1.0000
  Fe  Fe113     1.0  0.66235  0.29452  0.67542  1.0000
  H   H642      1.0  0.67065  0.01429  0.89728  1.0000
  S   S225      1.0  0.63462  0.29686  0.70032  1.0000
  Fe  Fe114     1.0  0.67220  0.30876  0.62460  1.0000
  H   H643      1.0  0.51625  0.26817  0.84630  1.0000
  Fe  Fe115     1.0  0.70700  0.30204  0.65926  1.0000
  C   C646      1.0  0.66594  0.01330  0.57588  1.0000
  S   S226      1.0  0.65414  0.28057  0.64023  1.0000
  S   S227      1.0  0.69082  0.27302  0.67743  1.0000
  C   C647      1.0  0.72786  0.22026  0.66874  1.0000
  H   H644      1.0  0.62366  0.16346  0.98699  1.0000
  Fe  Fe116     1.0  0.69105  0.07612  0.54959  1.0000
  S   S228      1.0  0.72055  0.09489  0.54561  1.0000
  S   S229      1.0  0.68788  0.05285  0.58251  1.0000
  Fe  Fe117     1.0  0.70133  0.12570  0.53642  1.0000
  S   S230      1.0  0.70638  0.16281  0.54535  1.0000
  H   H645      1.0  0.50121  0.30346  0.93915  1.0000
  S   S231      1.0  0.67213  0.10773  0.54294  1.0000
  Fe  Fe118     1.0  0.54199  0.33148  0.85081  1.0000
  C   C648      1.0  0.67723  0.02626  0.59111  1.0000
  C   C649      1.0  0.68079  0.01759  0.61396  1.0000
  S   S232      1.0  0.61263  0.31830  0.80784  1.0000
  C   C650      1.0  0.69024  0.20677  0.60920  1.0000
  C   C651      1.0  0.68829  0.18319  0.61070  1.0000
  C   C652      1.0  0.69303  0.16946  0.59141  1.0000
  C   C653      1.0  0.70011  0.17913  0.57039  1.0000
  C   C654      1.0  0.70206  0.20272  0.56888  1.0000
  C   C655      1.0  0.69702  0.21648  0.58805  1.0000
  H   H646      1.0  0.68314  0.17544  0.62697  1.0000
  H   H647      1.0  0.69140  0.15138  0.59290  1.0000
  H   H648      1.0  0.70747  0.21044  0.55271  1.0000
  H   H649      1.0  0.69865  0.23456  0.58657  1.0000
  H   H650      1.0  0.65028  0.31712  0.78220  1.0000
  C   C656      1.0  0.60539  0.31087  0.57600  1.0000
  C   C657      1.0  0.62448  0.31172  0.58675  1.0000
  H   H651      1.0  0.58755  0.30727  0.76702  1.0000
  H   H652      1.0  0.60598  0.02892  0.86598  1.0000
  H   H653      1.0  0.59468  0.29833  0.58185  1.0000
  H   H654      1.0  0.62835  0.29991  0.60076  1.0000
  C   C658      1.0  0.61821  0.31270  0.77770  1.0000
  C   C659      1.0  0.62683  0.14890  0.54846  1.0000
  C   C660      1.0  0.64391  0.30825  0.74649  1.0000
  C   C661      1.0  0.62897  0.30302  0.73031  1.0000
  H   H655      1.0  0.73914  0.03116  0.51929  1.0000
  H   H656      1.0  0.68180  0.02620  0.87079  1.0000
  C   C662      1.0  0.65765  0.17851  0.53766  1.0000
  H   H657      1.0  0.73121  0.20731  0.62413  1.0000
  C   C663      1.0  0.61929  0.01935  0.86046  1.0000
  C   C664      1.0  0.55968  0.20547  0.93936  1.0000
  C   C665      1.0  0.56321  0.22880  0.93945  1.0000
  C   C666      1.0  0.56173  0.24211  0.91872  1.0000
  C   C667      1.0  0.55659  0.23225  0.89760  1.0000
  C   C668      1.0  0.55305  0.20894  0.89747  1.0000
  C   C669      1.0  0.55463  0.19560  0.91819  1.0000
  H   H658      1.0  0.56710  0.23665  0.95570  1.0000
  H   H659      1.0  0.56452  0.26001  0.91914  1.0000
  H   H660      1.0  0.54902  0.20111  0.88125  1.0000
  H   H661      1.0  0.55182  0.17771  0.91782  1.0000
  C   C670      1.0  0.58478  0.05490  0.93455  1.0000
  C   C671      1.0  0.60294  0.05862  0.94614  1.0000
  C   C672      1.0  0.61923  0.04314  0.94409  1.0000
  C   C673      1.0  0.61738  0.02363  0.93085  1.0000
  C   C674      1.0  0.59930  0.01998  0.91904  1.0000
  C   C675      1.0  0.58314  0.03571  0.92071  1.0000
  H   H662      1.0  0.60440  0.07338  0.95676  1.0000
  H   H663      1.0  0.63323  0.04615  0.95315  1.0000
  H   H664      1.0  0.59689  0.29869  0.72581  1.0000
  H   H665      1.0  0.56912  0.03278  0.91165  1.0000
  H   H666      1.0  0.72223  0.02115  0.59086  1.0000
  H   H667      1.0  0.63837  0.03295  0.88674  1.0000
  H   H668      1.0  0.54974  0.03046  0.97067  1.0000
  H   H669      1.0  0.68939  0.02737  0.62603  1.0000
  H   H670      1.0  0.65410  0.19010  0.57311  1.0000
  C   C676      1.0  0.63855  0.31303  0.76996  1.0000
  H   H671      1.0  0.59992  0.16278  0.00257  1.0000
  C   C677      1.0  0.74412  0.23659  0.60767  1.0000
  S   S233      1.0  0.73835  0.31050  0.67428  1.0000
  C   C678      1.0  0.61820  0.00459  0.84181  1.0000
  S   S234      1.0  0.63808  0.00437  0.92955  1.0000
  H   H672      1.0  0.69020  0.31426  0.94863  1.0000
  C   C679      1.0  0.59624  0.00798  0.98285  1.0000
  C   C680      1.0  0.57981  0.02309  0.98337  1.0000
  C   C681      1.0  0.74163  0.03404  0.53775  1.0000
  H   H673      1.0  0.65959  0.30868  0.74092  1.0000
  H   H674      1.0  0.72429  0.32224  0.96466  1.0000
  C   C682      1.0  0.73671  0.22415  0.62690  1.0000
  C   C683      1.0  0.64877  0.17866  0.56000  1.0000
  C   C684      1.0  0.63342  0.16356  0.56548  1.0000
  C   C685      1.0  0.50884  0.27110  0.89134  1.0000
  H   H675      1.0  0.61033  0.01204  0.99132  1.0000
  C   C686      1.0  0.63765  0.02151  0.87220  1.0000
  H   H676      1.0  0.63070  0.13795  0.51311  1.0000
  H   H677      1.0  0.66986  0.18999  0.53366  1.0000
  H   H678      1.0  0.60490  0.18525  0.98166  1.0000
  H   H679      1.0  0.51470  0.25458  0.88675  1.0000
  C   C687      1.0  0.69622  0.33112  0.94731  1.0000
  N   N55       1.0  0.60861  0.25651  0.82306  1.0000
  C   C688      1.0  0.59845  0.24403  0.83964  1.0000
  C   C689      1.0  0.62639  0.26657  0.82850  1.0000
  C   C690      1.0  0.60619  0.24111  0.86228  1.0000
  C   C691      1.0  0.63451  0.26415  0.85101  1.0000
  C   C692      1.0  0.62430  0.25133  0.86799  1.0000
  C   C693      1.0  0.59961  0.26045  0.79990  1.0000
  H   H680      1.0  0.58400  0.23665  0.83562  1.0000
  H   H681      1.0  0.63414  0.27705  0.81556  1.0000
  H   H682      1.0  0.59779  0.23163  0.87550  1.0000
  H   H683      1.0  0.64829  0.27273  0.85537  1.0000
  H   H684      1.0  0.63010  0.24979  0.88570  1.0000
  H   H685      1.0  0.58942  0.27555  0.80041  1.0000
  H   H686      1.0  0.61147  0.26354  0.78630  1.0000
  H   H687      1.0  0.59079  0.24575  0.79441  1.0000
  S   S235      1.0  0.54663  0.31407  0.88605  1.0000
  N   N56       1.0  0.50209  0.28593  0.87431  1.0000
  H   H688      1.0  0.66285  0.01965  0.55833  1.0000
  C   C694      1.0  0.63597  0.14934  0.52624  1.0000
  C   C695      1.0  0.60863  0.30264  0.73808  1.0000
  Fe  Fe119     1.0  0.57799  0.32921  0.88593  1.0000
  H   H689      1.0  0.74897  0.04681  0.60306  1.0000
  N   N57       1.0  0.65435  0.00905  0.86581  1.0000
  C   C696      1.0  0.56219  0.01825  0.97129  1.0000
  H   H690      1.0  0.62671  0.16318  0.58291  1.0000
  C   C697      1.0  0.74735  0.04297  0.58468  1.0000
  H   H691      1.0  0.72007  0.20485  0.66307  1.0000
  C   C698      1.0  0.60327  0.30746  0.76153  1.0000
  N   N58       1.0  0.65159  0.16356  0.52133  1.0000
  H   H692      1.0  0.61491  0.13704  0.55244  1.0000
  H   H693      1.0  0.50512  0.29478  0.83802  1.0000
  Fe  Fe120     1.0  0.58549  0.31810  0.83373  1.0000
  C   C699      1.0  0.60342  0.32474  0.65433  1.0000
  S   S236      1.0  0.69074  0.06635  0.51172  1.0000
  C   C700      1.0  0.73225  0.02839  0.57766  1.0000
  H   H694      1.0  0.69968  0.02121  0.54206  1.0000
  H   H695      1.0  0.71630  0.23041  0.67831  1.0000
  C   C701      1.0  0.50306  0.27963  0.84963  1.0000
  H   H696      1.0  0.74423  0.22943  0.59033  1.0000
  C   C702      1.0  0.67347  0.01163  0.87827  1.0000
  N   N59       1.0  0.73581  0.23331  0.64870  1.0000
  H   H697      1.0  0.58100  0.03900  0.99225  1.0000
  N   N60       1.0  0.72955  0.02413  0.55443  1.0000
  C   C703      1.0  0.74271  0.25457  0.65211  1.0000
  S   S237      1.0  0.56302  0.09148  0.00258  1.0000
  S   S238      1.0  0.67881  0.32423  0.65946  1.0000
  H   H698      1.0  0.74033  0.21525  0.68080  1.0000
  C   C704      1.0  0.50873  0.27718  0.91489  1.0000
  H   H699      1.0  0.60105  0.31258  0.66856  1.0000
  C   C705      1.0  0.59997  0.32634  0.55803  1.0000
  S   S239      1.0  0.57520  0.32586  0.54640  1.0000
  C   C706      1.0  0.61178  0.17408  0.99547  1.0000
  H   H700      1.0  0.74200  0.26187  0.66939  1.0000
  H   H701      1.0  0.57362  0.32164  0.64015  1.0000
  H   H702      1.0  0.56435  0.28681  0.51708  1.0000
  C   C707      1.0  0.50109  0.29836  0.92101  1.0000
  C   C708      1.0  0.58806  0.32992  0.63822  1.0000
  S   S240      1.0  0.66182  0.33112  0.59394  1.0000
  H   H703      1.0  0.60402  0.00247  0.83271  1.0000
  H   H704      1.0  0.63406  0.33133  0.66430  1.0000
  H   H705      1.0  0.59560  0.30714  0.50706  1.0000
  Fe  Fe121     1.0  0.69318  0.42058  0.04342  1.0000
  S   S241      1.0  0.71480  0.39170  0.05256  1.0000
  S   S242      1.0  0.69581  0.45129  0.06748  1.0000
  H   H706      1.0  0.64964  0.46235  0.48238  1.0000
  H   H707      1.0  0.71591  0.42012  0.09856  1.0000
  Fe  Fe122     1.0  0.68912  0.36863  0.04477  1.0000
  H   H708      1.0  0.71673  0.39278  0.11284  1.0000
  H   H709      1.0  0.62959  0.40765  0.10050  1.0000
  S   S243      1.0  0.66696  0.39756  0.03763  1.0000
  C   C709      1.0  0.74548  0.57416  0.47466  1.0000
  Fe  Fe123     1.0  0.65608  0.55916  0.43027  1.0000
  S   S244      1.0  0.66540  0.53858  0.39914  1.0000
  S   S245      1.0  0.67651  0.57199  0.45950  1.0000
  Fe  Fe124     1.0  0.61033  0.55690  0.41798  1.0000
  S   S246      1.0  0.61705  0.53672  0.38580  1.0000
  S   S247      1.0  0.57624  0.55818  0.42493  1.0000
  Fe  Fe125     1.0  0.63856  0.51700  0.40890  1.0000
  S   S248      1.0  0.63804  0.47874  0.40832  1.0000
  Fe  Fe126     1.0  0.64278  0.56008  0.37860  1.0000
  S   S249      1.0  0.64886  0.57944  0.34400  1.0000
  S   S250      1.0  0.63080  0.53593  0.44129  1.0000
  S   S251      1.0  0.63464  0.58197  0.40943  1.0000
  H   H710      1.0  0.63521  0.62112  0.07408  1.0000
  Fe  Fe127     1.0  0.64685  0.55473  0.14741  1.0000
  S   S252      1.0  0.65016  0.59035  0.13362  1.0000
  S   S253      1.0  0.64198  0.52462  0.12307  1.0000
  Fe  Fe128     1.0  0.64418  0.57123  0.19879  1.0000
  S   S254      1.0  0.64756  0.60782  0.18794  1.0000
  S   S255      1.0  0.64076  0.55472  0.23552  1.0000
  Fe  Fe129     1.0  0.62513  0.60023  0.15908  1.0000
  S   S256      1.0  0.59975  0.62467  0.14521  1.0000
  Fe  Fe130     1.0  0.67213  0.59534  0.16317  1.0000
  S   S257      1.0  0.70524  0.60633  0.15664  1.0000
  S   S258      1.0  0.62070  0.56439  0.17128  1.0000
  S   S259      1.0  0.66986  0.55901  0.17568  1.0000
  Fe  Fe131     1.0  0.57302  0.38872  0.48303  1.0000
  S   S260      1.0  0.58691  0.42351  0.48437  1.0000
  S   S261      1.0  0.58845  0.35466  0.48527  1.0000
  S   S262      1.0  0.55042  0.37793  0.45653  1.0000
  C   C710      1.0  0.56168  0.45698  0.43266  1.0000
  C   C711      1.0  0.72308  0.62863  0.15912  1.0000
  C   C712      1.0  0.71772  0.64995  0.16751  1.0000
  C   C713      1.0  0.57200  0.47311  0.41912  1.0000
  H   H711      1.0  0.73552  0.55035  0.19401  1.0000
  C   C714      1.0  0.52928  0.63351  0.14292  1.0000
  C   C715      1.0  0.54210  0.64916  0.13198  1.0000
  C   C716      1.0  0.56345  0.64619  0.13300  1.0000
  C   C717      1.0  0.57251  0.62759  0.14498  1.0000
  C   C718      1.0  0.55968  0.61181  0.15572  1.0000
  C   C719      1.0  0.53833  0.61475  0.15464  1.0000
  H   H712      1.0  0.65134  0.37458  0.09019  1.0000
  H   H713      1.0  0.68823  0.37574  0.09636  1.0000
  H   H714      1.0  0.56619  0.59741  0.16507  1.0000
  H   H715      1.0  0.52873  0.60247  0.16325  1.0000
  C   C720      1.0  0.56090  0.57900  0.43868  1.0000
  C   C721      1.0  0.54011  0.57499  0.44173  1.0000
  C   C722      1.0  0.52719  0.59106  0.45229  1.0000
  C   C723      1.0  0.53495  0.61142  0.45979  1.0000
  C   C724      1.0  0.55575  0.61546  0.45667  1.0000
  C   C725      1.0  0.56870  0.59932  0.44622  1.0000
  H   H716      1.0  0.53391  0.55935  0.43589  1.0000
  H   H717      1.0  0.51123  0.58776  0.45451  1.0000
  H   H718      1.0  0.56190  0.63115  0.46245  1.0000
  H   H719      1.0  0.58468  0.60261  0.44406  1.0000
  C   C726      1.0  0.62329  0.46349  0.42909  1.0000
  C   C727      1.0  0.61562  0.47372  0.44921  1.0000
  C   C728      1.0  0.60478  0.46107  0.46602  1.0000
  C   C729      1.0  0.60103  0.43816  0.46268  1.0000
  C   C730      1.0  0.60839  0.42792  0.44238  1.0000
  C   C731      1.0  0.61968  0.44051  0.42577  1.0000
  H   H720      1.0  0.61823  0.49131  0.45205  1.0000
  H   H721      1.0  0.59909  0.46913  0.48164  1.0000
  H   H722      1.0  0.60562  0.41026  0.43964  1.0000
  H   H723      1.0  0.62560  0.43241  0.41028  1.0000
  C   C732      1.0  0.64622  0.57217  0.31399  1.0000
  C   C733      1.0  0.64129  0.55047  0.30715  1.0000
  C   C734      1.0  0.63954  0.54559  0.28312  1.0000
  C   C735      1.0  0.64244  0.56232  0.26557  1.0000
  C   C736      1.0  0.64686  0.58417  0.27245  1.0000
  C   C737      1.0  0.64890  0.58898  0.29646  1.0000
  H   H724      1.0  0.63910  0.53736  0.32034  1.0000
  H   H725      1.0  0.63602  0.52865  0.27808  1.0000
  H   H726      1.0  0.64872  0.59739  0.25931  1.0000
  H   H727      1.0  0.65260  0.60587  0.30149  1.0000
  C   C738      1.0  0.70325  0.57294  0.46444  1.0000
  C   C739      1.0  0.71031  0.58328  0.48476  1.0000
  C   C740      1.0  0.73124  0.58404  0.48977  1.0000
  H   H728      1.0  0.58105  0.50785  0.41670  1.0000
  C   C741      1.0  0.71752  0.56326  0.44920  1.0000
  C   C742      1.0  0.74351  0.62450  0.15285  1.0000
  H   H729      1.0  0.69172  0.62027  0.20401  1.0000
  H   H730      1.0  0.71251  0.55554  0.43332  1.0000
  C   C743      1.0  0.68050  0.47227  0.08170  1.0000
  C   C744      1.0  0.65938  0.47339  0.07979  1.0000
  C   C745      1.0  0.64796  0.48951  0.09250  1.0000
  C   C746      1.0  0.65741  0.50490  0.10720  1.0000
  C   C747      1.0  0.67854  0.50393  0.10892  1.0000
  C   C748      1.0  0.68995  0.48772  0.09633  1.0000
  H   H731      1.0  0.65181  0.46173  0.06864  1.0000
  H   H732      1.0  0.63164  0.49004  0.09092  1.0000
  H   H733      1.0  0.68612  0.51560  0.12005  1.0000
  H   H734      1.0  0.70626  0.48713  0.09798  1.0000
  C   C749      1.0  0.62958  0.60448  0.07840  1.0000
  C   C750      1.0  0.65458  0.42679  0.11305  1.0000
  C   C751      1.0  0.64073  0.58526  0.07224  1.0000
  C   C752      1.0  0.59322  0.57855  0.32603  1.0000
  H   H735      1.0  0.65510  0.58682  0.06304  1.0000
  C   C753      1.0  0.57685  0.57174  0.36341  1.0000
  C   C754      1.0  0.70943  0.40979  0.11319  1.0000
  H   H736      1.0  0.59634  0.57386  0.30805  1.0000
  H   H737      1.0  0.54582  0.44666  0.48617  1.0000
  H   H738      1.0  0.60745  0.62370  0.38696  1.0000
  N   N61       1.0  0.70574  0.59075  0.21818  1.0000
  C   C755      1.0  0.72356  0.55778  0.20463  1.0000
  C   C756      1.0  0.57279  0.49524  0.42678  1.0000
  H   H739      1.0  0.68239  0.44210  0.12276  1.0000
  C   C757      1.0  0.64577  0.40784  0.10366  1.0000
  H   H740      1.0  0.67014  0.53049  0.48740  1.0000
  H   H741      1.0  0.68051  0.48810  0.40911  1.0000
  C   C758      1.0  0.55316  0.48443  0.46095  1.0000
  H   H742      1.0  0.52497  0.44851  0.46561  1.0000
  H   H743      1.0  0.54548  0.42841  0.46194  1.0000
  C   C759      1.0  0.71008  0.54409  0.21708  1.0000
  H   H744      1.0  0.57570  0.59359  0.10891  1.0000
  H   H745      1.0  0.67964  0.58490  0.23957  1.0000
  H   H746      1.0  0.69705  0.62123  0.23505  1.0000
  H   H747      1.0  0.68350  0.54351  0.23936  1.0000
  H   H748      1.0  0.66861  0.45879  0.44506  1.0000
  C   C760      1.0  0.69148  0.48942  0.42368  1.0000
  C   C761      1.0  0.66952  0.47429  0.45472  1.0000
  C   C762      1.0  0.70277  0.61529  0.21785  1.0000
  H   H749      1.0  0.56690  0.56187  0.37467  1.0000
  C   C763      1.0  0.61089  0.62130  0.36806  1.0000
  N   N62       1.0  0.59979  0.60247  0.35846  1.0000
  C   C764      1.0  0.58689  0.59020  0.37237  1.0000
  C   C765      1.0  0.68084  0.51184  0.45755  1.0000
  H   H750      1.0  0.62748  0.61796  0.36639  1.0000
  H   H751      1.0  0.59046  0.57817  0.13046  1.0000
  C   C766      1.0  0.67555  0.42697  0.11633  1.0000
  H   H752      1.0  0.60697  0.63718  0.35835  1.0000
  C   C767      1.0  0.73842  0.56374  0.45439  1.0000
  H   H753      1.0  0.56396  0.51818  0.45390  1.0000
  H   H754      1.0  0.57293  0.55118  0.33314  1.0000
  C   C768      1.0  0.65794  0.38930  0.09789  1.0000
  S   S263      1.0  0.51923  0.63234  0.47286  1.0000
  H   H755      1.0  0.56155  0.43970  0.42686  1.0000
  Fe  Fe132     1.0  0.56400  0.34289  0.46110  1.0000
  C   C769      1.0  0.72118  0.58121  0.20543  1.0000
  S   S264      1.0  0.50202  0.63607  0.14217  1.0000
  N   N63       1.0  0.68739  0.40872  0.11058  1.0000
  H   H756      1.0  0.64536  0.44154  0.11714  1.0000
  H   H757      1.0  0.71334  0.41761  0.13002  1.0000
  H   H758      1.0  0.57986  0.46833  0.40314  1.0000
  H   H759      1.0  0.70121  0.47396  0.42423  1.0000
  H   H760      1.0  0.68920  0.52601  0.45045  1.0000
  H   H761      1.0  0.57305  0.65859  0.12460  1.0000
  H   H762      1.0  0.71718  0.62409  0.21392  1.0000
  Fe  Fe133     1.0  0.53051  0.36924  0.48776  1.0000
  C   C770      1.0  0.60275  0.59710  0.33548  1.0000
  H   H763      1.0  0.54596  0.48897  0.47738  1.0000
  H   H764      1.0  0.58449  0.59436  0.39063  1.0000
  C   C771      1.0  0.69439  0.55395  0.23002  1.0000
  H   H765      1.0  0.57793  0.56346  0.10744  1.0000
  C   C772      1.0  0.69229  0.57744  0.23014  1.0000
  C   C773      1.0  0.58021  0.56579  0.34015  1.0000
  N   N64       1.0  0.55256  0.46273  0.45338  1.0000
  N   N65       1.0  0.68050  0.49192  0.44595  1.0000
  H   H766      1.0  0.70133  0.50403  0.41967  1.0000
  C   C774      1.0  0.67008  0.51445  0.47856  1.0000
  C   C775      1.0  0.65867  0.47626  0.47578  1.0000
  C   C776      1.0  0.58622  0.57895  0.11163  1.0000
  H   H767      1.0  0.61031  0.54571  0.09674  1.0000
  C   C777      1.0  0.50139  0.61668  0.08498  1.0000
  H   H768      1.0  0.61326  0.60660  0.32459  1.0000
  N   N66       1.0  0.60455  0.58118  0.09717  1.0000
  C   C778      1.0  0.61145  0.60212  0.09104  1.0000
  C   C779      1.0  0.61540  0.56229  0.09122  1.0000
  C   C780      1.0  0.63362  0.56401  0.07866  1.0000
  H   H769      1.0  0.60321  0.61715  0.09641  1.0000
  H   H770      1.0  0.64246  0.54892  0.07472  1.0000
  C   C781      1.0  0.56328  0.50100  0.44780  1.0000
  C   C782      1.0  0.67886  0.39006  0.10139  1.0000
  H   H771      1.0  0.70215  0.65358  0.17234  1.0000
  C   C783      1.0  0.65889  0.49654  0.48768  1.0000
  H   H772      1.0  0.71151  0.52589  0.21634  1.0000
  C   C784      1.0  0.54158  0.44583  0.46738  1.0000
  H   H773      1.0  0.73632  0.59226  0.50535  1.0000
  H   H774      1.0  0.73143  0.59173  0.19525  1.0000
  S   S265      1.0  0.67579  0.33994  0.06764  1.0000
  H   H775      1.0  0.69950  0.59094  0.49665  1.0000
  H   H776      1.0  0.74925  0.55616  0.44245  1.0000
  S   S266      1.0  0.54246  0.33326  0.49017  1.0000
  Fe  Fe134     1.0  0.72254  0.39105  0.01384  1.0000
  H   H777      1.0  0.51554  0.62025  0.09361  1.0000
  H   H778      1.0  0.53559  0.66371  0.12287  1.0000
  H   H779      1.0  0.50930  0.63396  0.05268  1.0000
  H   H780      1.0  0.74795  0.60816  0.14628  1.0000
  H   H781      1.0  0.65017  0.49848  0.50373  1.0000
  S   S267      1.0  0.69832  0.36557  0.00683  1.0000
  S   S268      1.0  0.65947  0.39889  0.96606  1.0000
  H   H782      1.0  0.58021  0.35952  0.58784  1.0000
  S   S269      1.0  0.57252  0.34884  0.85193  1.0000
  Fe  Fe135     1.0  0.67774  0.39551  0.00007  1.0000
  H   H783      1.0  0.66983  0.34541  0.92999  1.0000
  H   H784      1.0  0.63982  0.35846  0.63121  1.0000
  H   H785      1.0  0.74663  0.35403  0.71921  1.0000
  C   C785      1.0  0.71529  0.33559  0.95634  1.0000
  H   H786      1.0  0.74702  0.55133  0.56568  1.0000
  H   H787      1.0  0.74346  0.34451  0.63617  1.0000
  H   H788      1.0  0.56309  0.36140  0.61258  1.0000
  C   C786      1.0  0.57470  0.35058  0.60394  1.0000
  C   C787      1.0  0.61392  0.34251  0.55065  1.0000
  H   H789      1.0  0.60989  0.35464  0.53697  1.0000
  C   C788      1.0  0.69255  0.37030  0.93584  1.0000
  C   C789      1.0  0.64130  0.38062  0.95379  1.0000
  C   C790      1.0  0.63313  0.36246  0.96646  1.0000
  H   H790      1.0  0.68345  0.38381  0.92794  1.0000
  C   C791      1.0  0.61152  0.35320  0.93317  1.0000
  C   C792      1.0  0.62018  0.37094  0.92024  1.0000
  C   C793      1.0  0.63483  0.38463  0.93056  1.0000
  H   H791      1.0  0.63788  0.35910  0.98432  1.0000
  C   C794      1.0  0.60945  0.35558  0.61786  1.0000
  H   H792      1.0  0.61514  0.37453  0.90253  1.0000
  H   H793      1.0  0.64094  0.39866  0.92056  1.0000
  H   H794      1.0  0.56752  0.33492  0.59795  1.0000
  S   S270      1.0  0.55250  0.38174  0.51403  1.0000
  C   C795      1.0  0.72245  0.35764  0.95527  1.0000
  H   H795      1.0  0.61218  0.36730  0.60337  1.0000
  H   H796      1.0  0.74625  0.55008  0.52212  1.0000
  H   H797      1.0  0.64357  0.35618  0.55590  1.0000
  H   H798      1.0  0.70507  0.41013  0.94768  1.0000
  H   H799      1.0  0.51676  0.65961  0.51326  1.0000
  N   N67       1.0  0.59123  0.34510  0.62022  1.0000
  H   H800      1.0  0.73710  0.36109  0.96276  1.0000
  H   H801      1.0  0.72653  0.40176  0.92949  1.0000
  C   C796      1.0  0.71800  0.39795  0.94589  1.0000
  S   S271      1.0  0.51133  0.34483  0.83530  1.0000
  C   C797      1.0  0.63299  0.34339  0.56146  1.0000
  C   C798      1.0  0.61823  0.34902  0.95628  1.0000
  H   H802      1.0  0.72803  0.40056  0.96111  1.0000
  C   C799      1.0  0.62204  0.33527  0.65196  1.0000
  N   N68       1.0  0.71078  0.37476  0.94581  1.0000
  Fe  Fe136     1.0  0.56626  0.34681  0.51407  1.0000
  C   C800      1.0  0.74977  0.38059  0.69321  1.0000
  H   H803      1.0  0.61164  0.33543  0.96653  1.0000
  C   C801      1.0  0.62516  0.35072  0.63360  1.0000
  S   S272      1.0  0.59180  0.33632  0.92193  1.0000
  H   H804      1.0  0.73515  0.37770  0.68536  1.0000
  H   H805      1.0  0.52343  0.65839  0.55577  1.0000
  C   C802      1.0  0.68482  0.34853  0.93681  1.0000
  S   S273      1.0  0.70248  0.42093  0.00512  1.0000
  H   H806      1.0  0.50377  0.67752  0.47970  1.0000
  H   H807      1.0  0.72807  0.68319  0.17578  1.0000
  C   C803      1.0  0.73526  0.92861  0.02367  1.0000
  H   H808      1.0  0.72644  0.93256  0.00751  1.0000
  H   H809      1.0  0.50890  0.70711  0.47908  1.0000
  H   H810      1.0  0.72448  0.92892  0.03871  1.0000
  C   C804      1.0  0.73252  0.66679  0.16941  1.0000
  H   H811      1.0  0.74187  0.91134  0.02213  1.0000
  S   S274      1.0  0.51885  0.87189  0.98271  1.0000
  Fe  Fe137     1.0  0.64602  0.93840  0.87289  1.0000
  S   S275      1.0  0.63934  0.90715  0.89460  1.0000
  S   S276      1.0  0.65962  0.93943  0.83558  1.0000
  Fe  Fe138     1.0  0.63701  0.96916  0.91483  1.0000
  S   S277      1.0  0.62975  0.94011  0.93907  1.0000
  H   H812      1.0  0.51853  0.86293  0.88836  1.0000
  Fe  Fe139     1.0  0.65751  0.92306  0.92336  1.0000
  S   S278      1.0  0.67957  0.90315  0.94756  1.0000
  Fe  Fe140     1.0  0.61241  0.92695  0.90867  1.0000
  S   S279      1.0  0.57895  0.91728  0.90837  1.0000
  S   S280      1.0  0.66566  0.95304  0.90091  1.0000
  S   S281      1.0  0.61820  0.95739  0.88516  1.0000
  C   C805      1.0  0.74657  0.85350  0.63512  1.0000
  Fe  Fe141     1.0  0.64931  0.93013  0.64511  1.0000
  S   S282      1.0  0.65109  0.89383  0.63339  1.0000
  S   S283      1.0  0.65213  0.95637  0.61451  1.0000
  Fe  Fe142     1.0  0.63811  0.91519  0.69573  1.0000
  S   S284      1.0  0.63939  0.87868  0.68619  1.0000
  S   S285      1.0  0.62538  0.92107  0.73287  1.0000
  Fe  Fe143     1.0  0.66844  0.88669  0.66675  1.0000
  S   S286      1.0  0.69476  0.86147  0.67531  1.0000
  Fe  Fe144     1.0  0.62187  0.88851  0.65381  1.0000
  S   S287      1.0  0.59684  0.86530  0.63960  1.0000
  S   S288      1.0  0.66798  0.92310  0.67785  1.0000
  S   S289      1.0  0.61924  0.92490  0.66383  1.0000
  C   C806      1.0  0.71920  0.85281  0.66426  1.0000
  C   C807      1.0  0.72735  0.86122  0.64315  1.0000
  N   N69       1.0  0.60161  0.90413  0.59334  1.0000
  C   C808      1.0  0.73074  0.83667  0.67719  1.0000
  H   H813      1.0  0.71879  0.87357  0.63291  1.0000
  C   C809      1.0  0.51225  0.69231  0.56109  1.0000
  H   H814      1.0  0.72473  0.82992  0.69350  1.0000
  C   C810      1.0  0.52665  0.85715  0.63477  1.0000
  C   C811      1.0  0.53491  0.87643  0.64489  1.0000
  C   C812      1.0  0.55613  0.87889  0.64728  1.0000
  C   C813      1.0  0.56968  0.86232  0.63910  1.0000
  C   C814      1.0  0.56144  0.84311  0.62886  1.0000
  C   C815      1.0  0.54020  0.84043  0.62689  1.0000
  H   H815      1.0  0.52476  0.88951  0.65118  1.0000
  H   H816      1.0  0.56201  0.89373  0.65531  1.0000
  H   H817      1.0  0.57158  0.83010  0.62239  1.0000
  H   H818      1.0  0.53433  0.82551  0.61900  1.0000
  C   C816      1.0  0.64968  0.93439  0.80719  1.0000
  C   C817      1.0  0.62962  0.92808  0.80378  1.0000
  C   C818      1.0  0.62250  0.92431  0.78093  1.0000
  C   C819      1.0  0.63528  0.92668  0.76115  1.0000
  C   C820      1.0  0.65528  0.93320  0.76453  1.0000
  C   C821      1.0  0.66240  0.93702  0.78739  1.0000
  H   H819      1.0  0.61960  0.92603  0.81874  1.0000
  H   H820      1.0  0.60696  0.91941  0.77856  1.0000
  H   H821      1.0  0.66528  0.93527  0.74954  1.0000
  H   H822      1.0  0.67792  0.94201  0.78974  1.0000
  C   C822      1.0  0.70574  0.90654  0.95458  1.0000
  C   C823      1.0  0.71509  0.89126  0.97057  1.0000
  H   H823      1.0  0.62878  0.88484  0.58800  1.0000
  C   C824      1.0  0.53004  0.85692  0.90054  1.0000
  C   C825      1.0  0.71741  0.92390  0.94484  1.0000
  C   C826      1.0  0.60121  0.94226  0.60666  1.0000
  C   C827      1.0  0.66206  0.98341  0.60624  1.0000
  H   H824      1.0  0.71056  0.93577  0.93247  1.0000
  H   H825      1.0  0.56066  0.95771  0.94179  1.0000
  C   C828      1.0  0.57080  0.92045  0.60869  1.0000
  C   C829      1.0  0.55037  0.86162  0.89570  1.0000
  H   H826      1.0  0.64980  0.98236  0.57137  1.0000
  H   H827      1.0  0.67619  0.99014  0.63911  1.0000
  H   H828      1.0  0.55456  0.87132  0.88011  1.0000
  H   H829      1.0  0.62733  0.92536  0.59224  1.0000
  H   H830      1.0  0.57091  0.83891  0.94541  1.0000
  N   N70       1.0  0.52469  0.84561  0.92076  1.0000
  C   C830      1.0  0.53495  0.88735  0.96337  1.0000
  C   C831      1.0  0.52774  0.89772  0.94275  1.0000
  C   C832      1.0  0.54141  0.90755  0.92657  1.0000
  C   C833      1.0  0.56238  0.90730  0.93083  1.0000
  C   C834      1.0  0.56950  0.89783  0.95192  1.0000
  C   C835      1.0  0.55585  0.88783  0.96803  1.0000
  C   C836      1.0  0.55960  0.84343  0.93237  1.0000
  H   H831      1.0  0.53572  0.91490  0.91034  1.0000
  H   H832      1.0  0.58559  0.89742  0.95543  1.0000
  C   C837      1.0  0.53913  0.83906  0.93669  1.0000
  C   C838      1.0  0.73571  0.89318  0.97669  1.0000
  H   H833      1.0  0.66689  0.98541  0.84178  1.0000
  H   H834      1.0  0.61138  0.88597  0.56359  1.0000
  H   H835      1.0  0.60634  0.86875  0.58957  1.0000
  H   H836      1.0  0.51172  0.89763  0.93896  1.0000
  H   H837      1.0  0.54772  0.99490  0.94897  1.0000
  C   C839      1.0  0.59480  0.98815  0.97020  1.0000
  C   C840      1.0  0.63546  0.99243  0.83500  1.0000
  H   H838      1.0  0.56158  0.87987  0.98394  1.0000
  H   H839      1.0  0.57292  0.95439  0.62107  1.0000
  C   C841      1.0  0.73803  0.92582  0.95094  1.0000
  N   N71       1.0  0.57735  0.98335  0.95870  1.0000
  C   C842      1.0  0.67330  0.99640  0.62148  1.0000
  C   C843      1.0  0.61254  0.88502  0.58297  1.0000
  C   C844      1.0  0.61142  0.92386  0.59678  1.0000
  C   C845      1.0  0.58083  0.94042  0.61288  1.0000
  C   C846      1.0  0.50326  0.84214  0.92642  1.0000
  H   H840      1.0  0.58090  0.85927  0.90865  1.0000
  C   C847      1.0  0.56520  0.85483  0.91175  1.0000
  H   H841      1.0  0.53476  0.83128  0.95333  1.0000
  H   H842      1.0  0.70631  0.87768  0.97816  1.0000
  H   H843      1.0  0.60794  0.97695  0.96910  1.0000
  C   C848      1.0  0.57650  0.96291  0.94482  1.0000
  H   H844      1.0  0.58397  0.96575  0.92751  1.0000
  H   H845      1.0  0.68320  0.99618  0.87707  1.0000
  N   N72       1.0  0.66721  0.84455  0.72746  1.0000
  C   C849      1.0  0.64964  0.85227  0.73763  1.0000
  C   C850      1.0  0.68541  0.85348  0.73331  1.0000
  C   C851      1.0  0.65006  0.86891  0.75460  1.0000
  C   C852      1.0  0.68639  0.87003  0.75033  1.0000
  C   C853      1.0  0.66860  0.87756  0.76121  1.0000
  C   C854      1.0  0.66627  0.82715  0.70964  1.0000
  H   H846      1.0  0.63512  0.84593  0.73227  1.0000
  H   H847      1.0  0.69926  0.84812  0.72454  1.0000
  H   H848      1.0  0.63606  0.87547  0.76220  1.0000
  H   H849      1.0  0.70081  0.87720  0.75479  1.0000
  H   H850      1.0  0.66913  0.89034  0.77447  1.0000
  H   H851      1.0  0.65986  0.83452  0.69318  1.0000
  H   H852      1.0  0.68157  0.82023  0.70521  1.0000
  H   H853      1.0  0.65673  0.81299  0.71584  1.0000
  H   H854      1.0  0.55500  0.91867  0.61367  1.0000
  H   H855      1.0  0.74258  0.88111  0.98883  1.0000
  C   C855      1.0  0.51306  0.67430  0.52356  1.0000
  H   H856      1.0  0.58426  0.94847  0.95394  1.0000
  C   C856      1.0  0.65356  0.99501  0.84716  1.0000
  C   C857      1.0  0.58143  0.90245  0.59861  1.0000
  H   H857      1.0  0.57363  0.88682  0.59582  1.0000
  H   H858      1.0  0.60921  0.95771  0.60986  1.0000
  N   N73       1.0  0.50445  0.69315  0.51325  1.0000
  H   H859      1.0  0.51491  0.69189  0.57985  1.0000
  C   C858      1.0  0.65849  0.99209  0.58338  1.0000
  C   C859      1.0  0.51695  0.67354  0.54763  1.0000
  H   H860      1.0  0.50106  0.82551  0.93531  1.0000
  H   H861      1.0  0.74681  0.93927  0.94313  1.0000
  C   C860      1.0  0.74735  0.91054  0.96694  1.0000
  C   C861      1.0  0.56124  0.99821  0.95889  1.0000
  H   H862      1.0  0.63484  0.98075  0.82063  1.0000
  C   C862      1.0  0.50385  0.71159  0.55035  1.0000
  C   C863      1.0  0.75002  0.82907  0.66923  1.0000
  H   H863      1.0  0.70772  0.99860  0.56158  1.0000
  N   N74       1.0  0.89878  0.03352  0.10149  1.0000
  Fe  Fe145     1.0  0.85860  0.06476  0.42580  1.0000
  S   S290      1.0  0.85362  0.03166  0.40871  1.0000
  S   S291      1.0  0.83355  0.08668  0.44284  1.0000
  Fe  Fe146     1.0  0.90432  0.06383  0.41259  1.0000
  S   S292      1.0  0.90189  0.03056  0.39446  1.0000
  S   S293      1.0  0.93628  0.07833  0.41102  1.0000
  Fe  Fe147     1.0  0.87304  0.04493  0.37871  1.0000
  S   S294      1.0  0.86153  0.03768  0.34169  1.0000
  Fe  Fe148     1.0  0.88296  0.02030  0.42553  1.0000
  S   S295      1.0  0.87648  0.07890  0.39484  1.0000
  S   S296      1.0  0.88689  0.05272  0.44464  1.0000
  Fe  Fe149     1.0  0.89176  0.08731  0.15262  1.0000
  S   S297      1.0  0.88993  0.05571  0.17519  1.0000
  S   S298      1.0  0.92109  0.09603  0.13153  1.0000
  Fe  Fe150     1.0  0.84527  0.09756  0.16053  1.0000
  S   S299      1.0  0.84124  0.06652  0.18347  1.0000
  S   S300      1.0  0.82178  0.12671  0.15605  1.0000
  Fe  Fe151     1.0  0.87063  0.07579  0.20042  1.0000
  S   S301      1.0  0.87698  0.08204  0.23942  1.0000
  Fe  Fe152     1.0  0.86070  0.04866  0.15622  1.0000
  C   C864      1.0  0.92660  0.01094  0.47966  1.0000
  S   S302      1.0  0.87394  0.10773  0.17859  1.0000
  S   S303      1.0  0.86329  0.07934  0.13243  1.0000
  C   C865      1.0  0.98349  0.13119  0.13934  1.0000
  C   C866      1.0  0.96918  0.13125  0.15787  1.0000
  C   C867      1.0  0.95020  0.12060  0.15596  1.0000
  C   C868      1.0  0.94501  0.10974  0.13532  1.0000
  C   C869      1.0  0.95929  0.10982  0.11673  1.0000
  C   C870      1.0  0.97831  0.12036  0.11870  1.0000
  H   H864      1.0  0.97281  0.13952  0.17397  1.0000
  H   H865      1.0  0.93957  0.12083  0.17049  1.0000
  H   H866      1.0  0.95563  0.10157  0.10064  1.0000
  H   H867      1.0  0.98895  0.12006  0.10419  1.0000
  C   C871      1.0  0.87289  0.06884  0.26752  1.0000
  C   C872      1.0  0.88169  0.07827  0.28739  1.0000
  C   C873      1.0  0.87870  0.06882  0.31009  1.0000
  C   C874      1.0  0.86665  0.04983  0.31331  1.0000
  C   C875      1.0  0.85771  0.04049  0.29347  1.0000
  C   C876      1.0  0.86085  0.04984  0.27072  1.0000
  H   H868      1.0  0.89106  0.09294  0.28518  1.0000
  H   H869      1.0  0.88573  0.07623  0.32506  1.0000
  H   H870      1.0  0.84835  0.02581  0.29566  1.0000
  H   H871      1.0  0.85399  0.04231  0.25571  1.0000
  H   H872      1.0  0.82484  0.13256  0.38977  1.0000
  C   C877      1.0  0.83578  0.11018  0.36298  1.0000
  H   H873      1.0  0.77657  0.03872  0.46949  1.0000
  H   H874      1.0  0.85357  0.12264  0.22445  1.0000
  C   C878      1.0  0.90893  0.03360  0.12230  1.0000
  C   C879      1.0  0.98015  0.10177  0.46765  1.0000
  C   C880      1.0  0.98722  0.09618  0.44530  1.0000
  C   C881      1.0  0.97368  0.08823  0.42848  1.0000
  C   C882      1.0  0.95301  0.08551  0.43383  1.0000
  C   C883      1.0  0.94613  0.09005  0.45652  1.0000
  C   C884      1.0  0.95962  0.09823  0.47327  1.0000
  C   C885      1.0  0.97762  0.14069  0.41111  1.0000
  H   H875      1.0  0.97920  0.08467  0.41101  1.0000
  H   H876      1.0  0.93027  0.08814  0.46091  1.0000
  H   H877      1.0  0.95399  0.10250  0.49051  1.0000
  C   C886      1.0  0.77019  0.07377  0.47611  1.0000
  C   C887      1.0  0.78231  0.05565  0.46811  1.0000
  C   C888      1.0  0.80182  0.05914  0.45840  1.0000
  C   C889      1.0  0.80947  0.08093  0.45621  1.0000
  C   C890      1.0  0.79738  0.09905  0.46425  1.0000
  C   C891      1.0  0.77795  0.09553  0.47421  1.0000
  H   H878      1.0  0.77230  0.12628  0.20395  1.0000
  H   H879      1.0  0.81091  0.04494  0.45261  1.0000
  H   H880      1.0  0.80307  0.11600  0.46279  1.0000
  H   H881      1.0  0.91909  0.01399  0.15241  1.0000
  H   H882      1.0  0.82325  0.05523  0.35964  1.0000
  C   C892      1.0  0.76500  0.15586  0.15342  1.0000
  C   C893      1.0  0.78624  0.15210  0.15369  1.0000
  C   C894      1.0  0.79476  0.13013  0.15438  1.0000
  C   C895      1.0  0.78159  0.11189  0.15474  1.0000
  H   H883      1.0  0.77200  0.08658  0.21871  1.0000
  H   H884      1.0  0.90303  0.05356  0.07066  1.0000
  H   H885      1.0  0.79617  0.16640  0.15334  1.0000
  H   H886      1.0  0.78776  0.09488  0.15529  1.0000
  H   H887      1.0  0.84318  0.13973  0.20104  1.0000
  H   H888      1.0  0.78770  0.06835  0.40857  1.0000
  H   H889      1.0  0.80378  0.06880  0.23442  1.0000
  C   C896      1.0  0.94121  0.02353  0.44211  1.0000
  N   N75       1.0  0.81153  0.07813  0.38496  1.0000
  C   C897      1.0  0.89537  0.05453  0.08800  1.0000
  C   C898      1.0  0.83517  0.08836  0.35449  1.0000
  C   C899      1.0  0.78580  0.09618  0.21947  1.0000
  N   N76       1.0  0.82146  0.12036  0.21966  1.0000
  C   C900      1.0  0.89161  0.01382  0.09305  1.0000
  S   S304      1.0  0.85584  0.01182  0.14519  1.0000
  H   H890      1.0  0.95423  0.16877  0.44527  1.0000
  H   H891      1.0  0.97535  0.17789  0.12423  1.0000
  H   H892      1.0  0.80996  0.05043  0.40871  1.0000
  C   C901      1.0  0.81191  0.09954  0.39331  1.0000
  H   H893      1.0  0.84557  0.12251  0.35465  1.0000
  C   C902      1.0  0.82307  0.07237  0.36591  1.0000
  C   C903      1.0  0.96093  0.15164  0.44786  1.0000
  H   H894      1.0  0.84442  0.08364  0.33951  1.0000
  C   C904      1.0  0.84020  0.13321  0.21915  1.0000
  C   C905      1.0  0.82136  0.09869  0.22833  1.0000
  H   H895      1.0  0.83514  0.09072  0.23494  1.0000
  S   S305      1.0  0.99564  0.11541  0.48819  1.0000
  C   C906      1.0  0.80402  0.13035  0.21140  1.0000
  H   H896      1.0  0.91467  0.04916  0.12905  1.0000
  H   H897      1.0  0.84027  0.02443  0.09803  1.0000
  C   C907      1.0  0.79974  0.06080  0.39729  1.0000
  C   C908      1.0  0.78593  0.11848  0.21127  1.0000
  H   H898      1.0  0.80334  0.10392  0.40893  1.0000
  C   C909      1.0  0.91169  0.01367  0.13552  1.0000
  H   H899      1.0  0.87886  0.05759  0.08552  1.0000
  H   H900      1.0  0.99864  0.16232  0.45891  1.0000
  C   C910      1.0  0.80359  0.08621  0.22819  1.0000
  N   N77       1.0  0.93966  0.00710  0.45917  1.0000
  H   H901      1.0  0.96463  0.14893  0.46674  1.0000
  H   H902      1.0  0.83891  0.14756  0.23122  1.0000
  H   H903      1.0  0.79229  0.04969  0.38467  1.0000
  H   H904      1.0  0.99368  0.13125  0.37955  1.0000
  C   C911      1.0  0.99550  0.21958  0.09254  1.0000
  N   N78       1.0  0.97913  0.14904  0.43320  1.0000
  C   C912      1.0  0.99741  0.15585  0.44134  1.0000
  H   H905      1.0  0.96315  0.13511  0.40471  1.0000
  C   C913      1.0  0.82411  0.11585  0.38256  1.0000
  H   H906      1.0  0.80423  0.14732  0.20393  1.0000
  H   H907      1.0  0.75883  0.17286  0.15283  1.0000
  H   H908      1.0  0.95449  0.03324  0.40878  1.0000
  H   H909      1.0  0.76892  0.10969  0.48024  1.0000
  C   C914      1.0  0.76034  0.11565  0.15447  1.0000
  H   H910      1.0  0.99165  0.16966  0.10034  1.0000
  H   H911      1.0  0.96924  0.18700  0.09501  1.0000
  H   H912      1.0  0.94945  0.13889  0.44361  1.0000
  H   H913      1.0  0.90137  0.06937  0.09710  1.0000
  H   H914      1.0  0.93270  0.03926  0.44352  1.0000
  N   N79       1.0  0.99433  0.20366  0.11020  1.0000
  C   C915      1.0  0.95361  0.02025  0.42244  1.0000
  C   C916      1.0  0.98202  0.18365  0.10719  1.0000
  H   H915      1.0  0.98721  0.21763  0.07642  1.0000
  C   C917      1.0  0.99485  0.13839  0.39681  1.0000
  H   H916      1.0  0.93491  0.02035  0.49303  1.0000
  H   H917      1.0  0.91271  0.02067  0.47457  1.0000
  H   H918      1.0  0.88322  0.01379  0.07679  1.0000
  C   C918      1.0  0.84068  0.00625  0.09973  1.0000
  H   H919      1.0  0.82987  0.00110  0.06460  1.0000
  C   C919      1.0  0.75182  0.13764  0.15379  1.0000
  H   H920      1.0  0.75038  0.10137  0.15470  1.0000
  C   C920      1.0  0.96467  0.00012  0.42046  1.0000
  H   H921      1.0  0.77138  0.06470  0.57288  1.0000
  H   H922      1.0  0.76641  0.05653  0.53079  1.0000
  C   C921      1.0  0.75100  0.25837  0.61096  1.0000
  H   H923      1.0  0.75564  0.28438  0.63610  1.0000
  H   H924      1.0  0.77797  0.31653  0.69356  1.0000
  H   H925      1.0  0.98973  0.31770  0.68032  1.0000
  H   H926      1.0  0.75659  0.26834  0.59619  1.0000
  H   H927      1.0  0.99937  0.27695  0.68278  1.0000
  C   C922      1.0  0.75707  0.04847  0.54416  1.0000
  C   C923      1.0  0.75983  0.05304  0.56778  1.0000
  C   C924      1.0  0.77652  0.32827  0.67887  1.0000
  C   C925      1.0  0.75856  0.32871  0.66564  1.0000
  C   C926      1.0  0.75046  0.26738  0.63334  1.0000
  S   S306      1.0  0.77210  0.57339  0.48052  1.0000
  S   S307      1.0  0.85645  0.63303  0.48068  1.0000
  S   S308      1.0  0.95176  0.63555  0.34677  1.0000
  H   H928      1.0  0.98912  0.63911  0.05107  1.0000
  H   H929      1.0  0.91777  0.59770  0.36834  1.0000
  H   H930      1.0  0.89522  0.58112  0.36460  1.0000
  S   S309      1.0  0.93185  0.62481  0.40974  1.0000
  H   H931      1.0  0.77385  0.63779  0.14972  1.0000
  Fe  Fe153     1.0  0.94915  0.63985  0.02188  1.0000
  H   H932      1.0  0.88492  0.63781  0.26690  1.0000
  H   H933      1.0  0.90445  0.66250  0.42169  1.0000
  C   C927      1.0  0.88764  0.63510  0.07838  1.0000
  C   C928      1.0  0.90604  0.63714  0.06593  1.0000
  H   H934      1.0  0.87741  0.62177  0.07418  1.0000
  H   H935      1.0  0.90992  0.62539  0.05230  1.0000
  H   H936      1.0  0.90935  0.63089  0.21242  1.0000
  N   N80       1.0  0.88974  0.61514  0.37375  1.0000
  C   C929      1.0  0.88235  0.65022  0.09613  1.0000
  C   C930      1.0  0.87755  0.63015  0.46120  1.0000
  C   C931      1.0  0.88851  0.60992  0.45890  1.0000
  C   C932      1.0  0.90529  0.60873  0.44341  1.0000
  C   C933      1.0  0.91119  0.62763  0.42982  1.0000
  C   C934      1.0  0.90014  0.64782  0.43200  1.0000
  C   C935      1.0  0.88350  0.64906  0.44766  1.0000
  H   H937      1.0  0.88422  0.59526  0.46926  1.0000
  H   H938      1.0  0.91375  0.59304  0.44195  1.0000
  H   H939      1.0  0.93292  0.64395  0.24257  1.0000
  H   H940      1.0  0.97593  0.55416  0.00764  1.0000
  H   H941      1.0  0.87453  0.60853  0.40630  1.0000
  H   H942      1.0  0.86637  0.65600  0.23351  1.0000
  C   C936      1.0  0.87597  0.61976  0.39114  1.0000
  S   S310      1.0  0.94294  0.65702  0.05649  1.0000
  C   C937      1.0  0.90219  0.59445  0.37502  1.0000
  Fe  Fe154     1.0  0.94286  0.65005  0.38171  1.0000
  S   S311      1.0  0.85878  0.64724  0.11079  1.0000
  S   S312      1.0  0.96629  0.60718  0.01732  1.0000
  H   H943      1.0  0.90402  0.58836  0.39348  1.0000
  C   C938      1.0  0.86407  0.63950  0.39013  1.0000
  S   S313      1.0  0.91259  0.65405  0.30097  1.0000
  S   S314      1.0  0.83101  0.66434  0.17022  1.0000
  C   C939      1.0  0.89146  0.62931  0.35464  1.0000
  C   C940      1.0  0.75830  0.64133  0.15477  1.0000
  H   H944      1.0  0.87570  0.66016  0.18554  1.0000
  N   N81       1.0  0.90626  0.66318  0.19550  1.0000
  C   C941      1.0  0.91953  0.65407  0.07148  1.0000
  Fe  Fe155     1.0  0.97884  0.65805  0.34742  1.0000
  S   S315      1.0  0.82682  0.57404  0.50095  1.0000
  Fe  Fe156     1.0  0.93401  0.66464  0.33042  1.0000
  H   H945      1.0  0.89206  0.63731  0.17614  1.0000
  C   C942      1.0  0.75294  0.66270  0.16302  1.0000
  C   C943      1.0  0.89110  0.65578  0.17884  1.0000
  H   H946      1.0  0.89324  0.66412  0.16138  1.0000
  H   H947      1.0  0.87519  0.66483  0.44930  1.0000
  H   H948      1.0  0.90223  0.62555  0.34073  1.0000
  C   C944      1.0  0.87961  0.64905  0.35290  1.0000
  C   C945      1.0  0.88624  0.65574  0.26362  1.0000
  H   H949      1.0  0.86726  0.48221  0.01719  1.0000
  C   C946      1.0  0.92742  0.65555  0.22897  1.0000
  H   H950      1.0  0.85372  0.64343  0.40441  1.0000
  C   C947      1.0  0.91403  0.64830  0.21192  1.0000
  H   H951      1.0  0.99179  0.65801  0.07511  1.0000
  C   C948      1.0  0.86600  0.65426  0.37090  1.0000
  H   H952      1.0  0.88131  0.66040  0.33784  1.0000
  Fe  Fe157     1.0  0.83774  0.60946  0.50465  1.0000
  C   C949      1.0  0.99625  0.65491  0.05661  1.0000
  H   H953      1.0  0.77352  0.53001  0.50080  1.0000
  C   C950      1.0  0.99235  0.55283  0.00796  1.0000
  H   H954      1.0  0.99292  0.54152  0.04419  1.0000
  H   H955      1.0  0.79986  0.49859  0.50428  1.0000
  H   H956      1.0  0.99974  0.41441  0.02398  1.0000
  Fe  Fe158     1.0  0.88725  0.46794  0.91441  1.0000
  S   S316      1.0  0.87795  0.44787  0.94636  1.0000
  S   S317      1.0  0.89202  0.50575  0.91131  1.0000
  Fe  Fe159     1.0  0.88433  0.42742  0.88165  1.0000
  S   S318      1.0  0.87467  0.40422  0.91151  1.0000
  S   S319      1.0  0.89503  0.41711  0.84488  1.0000
  Fe  Fe160     1.0  0.85415  0.43278  0.92360  1.0000
  S   S320      1.0  0.82028  0.43522  0.93387  1.0000
  Fe  Fe161     1.0  0.89911  0.42090  0.93224  1.0000
  S   S321      1.0  0.92021  0.40062  0.95659  1.0000
  S   S322      1.0  0.86234  0.45481  0.89210  1.0000
  S   S323      1.0  0.90994  0.44217  0.90195  1.0000
  Fe  Fe162     1.0  0.84005  0.39216  0.66231  1.0000
  S   S324      1.0  0.83821  0.42492  0.68128  1.0000
  S   S325      1.0  0.80997  0.37889  0.64798  1.0000
  Fe  Fe163     1.0  0.88724  0.39235  0.66331  1.0000
  S   S326      1.0  0.88768  0.42521  0.68277  1.0000
  S   S327      1.0  0.91428  0.37181  0.64759  1.0000
  Fe  Fe164     1.0  0.86247  0.41050  0.70518  1.0000
  S   S328      1.0  0.85311  0.41565  0.74380  1.0000
  Fe  Fe165     1.0  0.86314  0.43735  0.65764  1.0000
  S   S329      1.0  0.86244  0.47451  0.64467  1.0000
  S   S330      1.0  0.86315  0.37684  0.68715  1.0000
  S   S331      1.0  0.86390  0.40545  0.63712  1.0000
  H   H957      1.0  0.94018  0.34087  0.62232  1.0000
  H   H958      1.0  0.83692  0.46109  0.00508  1.0000
  Fe  Fe166     1.0  0.80986  0.61759  0.54679  1.0000
  S   S332      1.0  0.84226  0.60527  0.54383  1.0000
  H   H959      1.0  0.83996  0.65481  0.57992  1.0000
  C   C951      1.0  0.86854  0.50193  0.98506  1.0000
  Fe  Fe167     1.0  0.82888  0.57044  0.54052  1.0000
  S   S333      1.0  0.83908  0.53459  0.55302  1.0000
  H   H960      1.0  0.95697  0.42563  0.63912  1.0000
  S   S334      1.0  0.79658  0.58256  0.54592  1.0000
  Fe  Fe168     1.0  0.94749  0.65013  0.96939  1.0000
  Fe  Fe169     1.0  0.94488  0.60086  0.98760  1.0000
  S   S335      1.0  0.93645  0.56368  0.98791  1.0000
  H   H961      1.0  0.82330  0.51215  0.93413  1.0000
  S   S336      1.0  0.92616  0.63228  0.99463  1.0000
  S   S337      1.0  0.96429  0.61794  0.96016  1.0000
  H   H962      1.0  0.88165  0.51140  0.99015  1.0000
  C   C952      1.0  0.83494  0.47829  0.97144  1.0000
  H   H963      1.0  0.80613  0.34258  0.68403  1.0000
  H   H964      1.0  0.97747  0.33421  0.62036  1.0000
  C   C953      1.0  0.85484  0.49069  0.61919  1.0000
  C   C954      1.0  0.85125  0.48090  0.59753  1.0000
  C   C955      1.0  0.84650  0.49462  0.57763  1.0000
  C   C956      1.0  0.84485  0.51829  0.57906  1.0000
  C   C957      1.0  0.84800  0.52803  0.60082  1.0000
  C   C958      1.0  0.85317  0.51435  0.62061  1.0000
  H   H965      1.0  0.85242  0.46281  0.59599  1.0000
  H   H966      1.0  0.84421  0.48679  0.56095  1.0000
  H   H967      1.0  0.84688  0.54614  0.60234  1.0000
  H   H968      1.0  0.85595  0.52221  0.63717  1.0000
  C   C959      1.0  0.94131  0.36707  0.64785  1.0000
  C   C960      1.0  0.95439  0.37955  0.66153  1.0000
  C   C961      1.0  0.97565  0.37584  0.66022  1.0000
  C   C962      1.0  0.98433  0.35949  0.64538  1.0000
  C   C963      1.0  0.85972  0.50587  0.96310  1.0000
  H   H969      1.0  0.96384  0.34138  0.93455  1.0000
  H   H970      1.0  0.94813  0.39216  0.67307  1.0000
  H   H971      1.0  0.84647  0.50240  0.92006  1.0000
  H   H972      1.0  0.93881  0.40156  0.61180  1.0000
  H   H973      1.0  0.90710  0.36908  0.91073  1.0000
  C   C964      1.0  0.94701  0.39817  0.95395  1.0000
  C   C965      1.0  0.95766  0.40839  0.93542  1.0000
  C   C966      1.0  0.97873  0.40465  0.93302  1.0000
  H   H974      1.0  0.81565  0.52225  0.51078  1.0000
  C   C967      1.0  0.97885  0.38082  0.96789  1.0000
  C   C968      1.0  0.95777  0.38456  0.97028  1.0000
  H   H975      1.0  0.94963  0.41891  0.92274  1.0000
  H   H976      1.0  0.98676  0.41244  0.91845  1.0000
  H   H977      1.0  0.78073  0.35943  0.73570  1.0000
  H   H978      1.0  0.94967  0.37653  0.98466  1.0000
  C   C969      1.0  0.90536  0.52146  0.93215  1.0000
  C   C970      1.0  0.90730  0.54485  0.92863  1.0000
  C   C971      1.0  0.91699  0.55804  0.94533  1.0000
  C   C972      1.0  0.92470  0.54794  0.96584  1.0000
  C   C973      1.0  0.92282  0.52453  0.96930  1.0000
  C   C974      1.0  0.91328  0.51132  0.95253  1.0000
  H   H979      1.0  0.90117  0.55288  0.91296  1.0000
  H   H980      1.0  0.91827  0.57604  0.94246  1.0000
  H   H981      1.0  0.92875  0.51654  0.98510  1.0000
  H   H982      1.0  0.91191  0.49334  0.95548  1.0000
  C   C975      1.0  0.88279  0.41562  0.81716  1.0000
  C   C976      1.0  0.89457  0.41080  0.79710  1.0000
  C   C977      1.0  0.88580  0.41041  0.77458  1.0000
  C   C978      1.0  0.86503  0.41468  0.77182  1.0000
  C   C979      1.0  0.85319  0.41908  0.79195  1.0000
  C   C980      1.0  0.86199  0.41966  0.81444  1.0000
  H   H983      1.0  0.91065  0.40751  0.79893  1.0000
  H   H984      1.0  0.89512  0.40688  0.75937  1.0000
  H   H985      1.0  0.83710  0.42230  0.79011  1.0000
  H   H986      1.0  0.85266  0.42325  0.82963  1.0000
  H   H987      1.0  0.96166  0.38092  0.87137  1.0000
  C   C981      1.0  0.77314  0.35865  0.64122  1.0000
  C   C982      1.0  0.79092  0.35858  0.65476  1.0000
  H   H988      1.0  0.77166  0.37045  0.62658  1.0000
  C   C983      1.0  0.77318  0.39941  0.98228  1.0000
  C   C984      1.0  0.76868  0.42013  0.97111  1.0000
  C   C985      1.0  0.78327  0.43073  0.95649  1.0000
  C   C986      1.0  0.80271  0.42103  0.95300  1.0000
  C   C987      1.0  0.80733  0.40052  0.96448  1.0000
  C   C988      1.0  0.79264  0.38977  0.97884  1.0000
  C   C989      1.0  0.80872  0.38858  0.72063  1.0000
  H   H989      1.0  0.77942  0.44658  0.94779  1.0000
  H   H990      1.0  0.82211  0.39273  0.96205  1.0000
  C   C990      1.0  0.78980  0.52011  0.55573  1.0000
  C   C991      1.0  0.76258  0.39687  0.68366  1.0000
  H   H991      1.0  0.92453  0.38643  0.87620  1.0000
  C   C992      1.0  0.75707  0.34391  0.64661  1.0000
  H   H992      1.0  0.91125  0.40615  0.57776  1.0000
  C   C993      1.0  0.97124  0.34685  0.63188  1.0000
  H   H993      1.0  0.88831  0.44734  0.61190  1.0000
  H   H994      1.0  0.94045  0.46104  0.65310  1.0000
  C   C994      1.0  0.93434  0.35359  0.92447  1.0000
  C   C995      1.0  0.80583  0.50895  0.51853  1.0000
  C   C996      1.0  0.92324  0.36639  0.90812  1.0000
  N   N82       1.0  0.84345  0.49372  0.95635  1.0000
  C   C997      1.0  0.75623  0.36728  0.71226  1.0000
  H   H995      1.0  0.82690  0.48287  0.92676  1.0000
  S   S338      1.0  0.79722  0.64543  0.57050  1.0000
  H   H996      1.0  0.81551  0.49792  0.52997  1.0000
  H   H997      1.0  0.79640  0.37378  0.98735  1.0000
  C   C998      1.0  0.95406  0.37310  0.88628  1.0000
  N   N83       1.0  0.78924  0.51957  0.53177  1.0000
  H   H998      1.0  0.81076  0.38060  0.73826  1.0000
  S   S339      1.0  0.80576  0.62311  0.50796  1.0000
  H   H999      1.0  0.88696  0.41503  0.58920  1.0000
  H   H1000     1.0  0.75396  0.42801  0.97367  1.0000
  H   H1001     1.0  0.98548  0.38576  0.67081  1.0000
  H   H1002     1.0  0.82163  0.46915  0.96644  1.0000
  C   C999      1.0  0.77371  0.52999  0.51981  1.0000
  H   H1003     1.0  0.77539  0.53220  0.58726  1.0000
  N   N84       1.0  0.78804  0.38639  0.71193  1.0000
  H   H1004     1.0  0.79205  0.41145  0.68501  1.0000
  H   H1005     1.0  0.90015  0.39146  0.60268  1.0000
  H   H1006     1.0  0.90591  0.47180  0.63915  1.0000
  C   C1000     1.0  0.83454  0.49807  0.93320  1.0000
  N   N85       1.0  0.89045  0.47580  0.82785  1.0000
  C   C1001     1.0  0.87010  0.48044  0.82923  1.0000
  C   C1002     1.0  0.89905  0.46909  0.80719  1.0000
  C   C1003     1.0  0.85780  0.47838  0.80955  1.0000
  C   C1004     1.0  0.88722  0.46700  0.78714  1.0000
  C   C1005     1.0  0.86647  0.47166  0.78837  1.0000
  C   C1006     1.0  0.90338  0.47826  0.84839  1.0000
  H   H1007     1.0  0.86322  0.48554  0.84566  1.0000
  H   H1008     1.0  0.91506  0.46478  0.80629  1.0000
  H   H1009     1.0  0.84160  0.48156  0.81079  1.0000
  H   H1010     1.0  0.89394  0.46102  0.77094  1.0000
  H   H1011     1.0  0.85706  0.46930  0.77311  1.0000
  H   H1012     1.0  0.89445  0.48209  0.86448  1.0000
  H   H1013     1.0  0.91205  0.46233  0.85192  1.0000
  H   H1014     1.0  0.91412  0.49220  0.84534  1.0000
  H   H1015     1.0  0.81961  0.38057  0.70827  1.0000
  H   H1016     1.0  0.99616  0.55361  0.95289  1.0000
  Fe  Fe170     1.0  0.98473  0.62553  0.99036  1.0000
  C   C1007     1.0  0.95527  0.35085  0.92138  1.0000
  C   C1008     1.0  0.75819  0.54134  0.53182  1.0000
  N   N86       1.0  0.91265  0.42312  0.61005  1.0000
  C   C1009     1.0  0.90347  0.44256  0.61758  1.0000
  C   C1010     1.0  0.93169  0.41717  0.61747  1.0000
  C   C1011     1.0  0.91337  0.45653  0.63306  1.0000
  C   C1012     1.0  0.94201  0.43070  0.63301  1.0000
  C   C1013     1.0  0.93273  0.45048  0.64087  1.0000
  C   C1014     1.0  0.90220  0.40829  0.59408  1.0000
  C   C1015     1.0  0.99362  0.56613  0.96682  1.0000
  C   C1016     1.0  0.78181  0.39951  0.69325  1.0000
  C   C1017     1.0  0.98680  0.35754  0.89928  1.0000
  H   H1017     1.0  0.80233  0.51229  0.56525  1.0000
  C   C1018     1.0  0.93309  0.37623  0.88886  1.0000
  C   C1019     1.0  0.77557  0.37036  0.72141  1.0000
  S   S340      1.0  0.96961  0.65905  0.99720  1.0000
  C   C1020     1.0  0.77455  0.53133  0.56832  1.0000
  H   H1018     1.0  0.75806  0.40669  0.66827  1.0000
  N   N87       1.0  0.96487  0.36067  0.90253  1.0000
  C   C1021     1.0  0.98940  0.39065  0.94905  1.0000
  H   H1019     1.0  0.86610  0.51857  0.95140  1.0000
  H   H1020     1.0  0.81261  0.40663  0.72223  1.0000
  H   H1021     1.0  0.98681  0.36993  0.98032  1.0000
  C   C1022     1.0  0.94999  0.35070  0.63305  1.0000
  H   H1022     1.0  0.99972  0.58265  0.96087  1.0000
  C   C1023     1.0  0.79255  0.34308  0.67354  1.0000
  C   C1024     1.0  0.86043  0.48562  0.00022  1.0000
  C   C1025     1.0  0.75867  0.54205  0.55623  1.0000
  H   H1023     1.0  0.98998  0.34571  0.88485  1.0000
  S   S341      1.0  0.75510  0.38448  0.00009  1.0000
  H   H1024     1.0  0.92686  0.34665  0.93994  1.0000
  H   H1025     1.0  0.99403  0.37395  0.89521  1.0000
  Fe  Fe171     1.0  0.79500  0.58751  0.50665  1.0000
  H   H1026     1.0  0.99422  0.35079  0.91549  1.0000
  C   C1026     1.0  0.84344  0.47379  0.99346  1.0000
  H   H1027     1.0  0.97699  0.56842  0.96924  1.0000
  H   H1028     1.0  0.83064  0.66238  0.50678  1.0000
  S   S342      1.0  0.93724  0.84805  0.46130  1.0000
  H   H1029     1.0  0.81927  0.80475  0.15209  1.0000
  S   S343      1.0  0.98492  0.86194  0.46695  1.0000
  Fe  Fe172     1.0  0.95481  0.88018  0.46187  1.0000
  S   S344      1.0  0.95006  0.90796  0.43416  1.0000
  Fe  Fe173     1.0  0.96662  0.83014  0.46972  1.0000
  S   S345      1.0  0.97819  0.79559  0.45755  1.0000
  C   C1027     1.0  0.80493  0.79879  0.14573  1.0000
  N   N88       1.0  0.78138  0.76869  0.14196  1.0000
  Fe  Fe174     1.0  0.95215  0.69767  0.36540  1.0000
  S   S346      1.0  0.95018  0.73555  0.37222  1.0000
  S   S347      1.0  0.96146  0.68654  0.32911  1.0000
  H   H1030     1.0  0.90429  0.69744  0.18356  1.0000
  H   H1031     1.0  0.79791  0.82934  0.12605  1.0000
  C   C1028     1.0  0.88813  0.71948  0.05459  1.0000
  S   S348      1.0  0.86198  0.70243  0.14800  1.0000
  Fe  Fe175     1.0  0.84479  0.67332  0.13485  1.0000
  Fe  Fe176     1.0  0.80529  0.68768  0.15868  1.0000
  S   S349      1.0  0.82020  0.71833  0.17363  1.0000
  C   C1029     1.0  0.89032  0.88031  0.46647  1.0000
  Fe  Fe177     1.0  0.83454  0.72346  0.13805  1.0000
  S   S350      1.0  0.84283  0.75768  0.12158  1.0000
  Fe  Fe178     1.0  0.84670  0.69535  0.18275  1.0000
  S   S351      1.0  0.86585  0.70294  0.21513  1.0000
  S   S352      1.0  0.81816  0.69456  0.12243  1.0000
  C   C1030     1.0  0.87370  0.72759  0.07061  1.0000
  Fe  Fe179     1.0  0.81150  0.86742  0.04077  1.0000
  S   S353      1.0  0.84132  0.88526  0.04410  1.0000
  S   S354      1.0  0.79972  0.83590  0.06035  1.0000
  H   H1032     1.0  0.85705  0.66977  0.36999  1.0000
  N   N89       1.0  0.75159  0.94464  0.02681  1.0000
  H   H1033     1.0  0.84367  0.68173  0.07342  1.0000
  Fe  Fe180     1.0  0.82286  0.91782  0.04212  1.0000
  S   S355      1.0  0.82745  0.95327  0.05762  1.0000
  H   H1034     1.0  0.97172  0.96779  0.43678  1.0000
  S   S356      1.0  0.79280  0.90001  0.04129  1.0000
  C   C1031     1.0  0.85594  0.69263  0.06792  1.0000
  C   C1032     1.0  0.83516  0.96914  0.08240  1.0000
  S   S357      1.0  0.88627  0.98824  0.44791  1.0000
  C   C1033     1.0  0.84157  0.95895  0.10351  1.0000
  H   H1035     1.0  0.89176  0.67923  0.11491  1.0000
  H   H1036     1.0  0.84198  0.94076  0.10524  1.0000
  C   C1034     1.0  0.83153  0.77803  0.10205  1.0000
  C   C1035     1.0  0.81282  0.77478  0.09141  1.0000
  C   C1036     1.0  0.80376  0.79232  0.07775  1.0000
  C   C1037     1.0  0.81329  0.81321  0.07440  1.0000
  C   C1038     1.0  0.83236  0.81608  0.08430  1.0000
  C   C1039     1.0  0.84137  0.79862  0.09805  1.0000
  H   H1037     1.0  0.80511  0.75903  0.09414  1.0000
  H   H1038     1.0  0.78904  0.78988  0.07012  1.0000
  H   H1039     1.0  0.83987  0.83204  0.08201  1.0000
  H   H1040     1.0  0.85587  0.80133  0.10611  1.0000
  C   C1040     1.0  0.90165  0.69050  0.02851  1.0000
  C   C1041     1.0  0.95085  0.98753  0.45768  1.0000
  C   C1042     1.0  0.84744  0.97229  0.12250  1.0000
  S   S358      1.0  0.97129  0.67085  0.38367  1.0000
  Fe  Fe181     1.0  0.97844  0.86583  0.50536  1.0000
  N   N90       1.0  0.88651  0.69841  0.04558  1.0000
  C   C1043     1.0  0.88633  0.92231  0.40544  1.0000
  C   C1044     1.0  0.87740  0.68914  0.23993  1.0000
  C   C1045     1.0  0.88946  0.70183  0.25485  1.0000
  C   C1046     1.0  0.90004  0.69156  0.27383  1.0000
  H   H1041     1.0  0.89083  0.71976  0.25154  1.0000
  H   H1042     1.0  0.90940  0.70158  0.28489  1.0000
  C   C1047     1.0  0.96847  0.77874  0.43486  1.0000
  C   C1048     1.0  0.95729  0.78809  0.41621  1.0000
  C   C1049     1.0  0.95143  0.77449  0.39753  1.0000
  C   C1050     1.0  0.95628  0.75129  0.39740  1.0000
  C   C1051     1.0  0.96698  0.74179  0.41637  1.0000
  C   C1052     1.0  0.97325  0.75551  0.43480  1.0000
  H   H1043     1.0  0.95361  0.80593  0.41586  1.0000
  H   H1044     1.0  0.94322  0.78205  0.38294  1.0000
  H   H1045     1.0  0.97081  0.72400  0.41657  1.0000
  H   H1046     1.0  0.85238  0.96409  0.13864  1.0000
  C   C1053     1.0  0.93327  0.93106  0.43871  1.0000
  C   C1054     1.0  0.93018  0.94713  0.42055  1.0000
  C   C1055     1.0  0.91619  0.96514  0.42324  1.0000
  C   C1056     1.0  0.90507  0.96705  0.44409  1.0000
  C   C1057     1.0  0.90838  0.95118  0.46234  1.0000
  C   C1058     1.0  0.92248  0.93335  0.45973  1.0000
  H   H1047     1.0  0.93846  0.94547  0.40421  1.0000
  H   H1048     1.0  0.91373  0.97723  0.40904  1.0000
  H   H1049     1.0  0.89983  0.95255  0.47853  1.0000
  H   H1050     1.0  0.92477  0.92119  0.47387  1.0000
  C   C1059     1.0  0.79892  0.77674  0.15091  1.0000
  H   H1051     1.0  0.86486  0.94218  0.42525  1.0000
  H   H1052     1.0  0.75978  0.74200  0.14305  1.0000
  H   H1053     1.0  0.86684  0.91715  0.46038  1.0000
  H   H1054     1.0  0.90388  0.88521  0.47642  1.0000
  H   H1055     1.0  0.79742  0.98330  0.03453  1.0000
  N   N91       1.0  0.88836  0.89439  0.44516  1.0000
  C   C1060     1.0  0.90030  0.88977  0.42609  1.0000
  C   C1061     1.0  0.87567  0.91289  0.44494  1.0000
  C   C1062     1.0  0.87570  0.66601  0.24461  1.0000
  C   C1063     1.0  0.87441  0.92708  0.42507  1.0000
  H   H1056     1.0  0.88808  0.97808  0.09923  1.0000
  S   S359      1.0  0.92344  0.67751  0.36546  1.0000
  H   H1057     1.0  0.91109  0.87576  0.42663  1.0000
  H   H1058     1.0  0.94242  0.68413  0.24299  1.0000
  H   H1059     1.0  0.94969  0.97448  0.47120  1.0000
  C   C1064     1.0  0.79295  0.81257  0.13113  1.0000
  H   H1060     1.0  0.89197  0.86218  0.46215  1.0000
  C   C1065     1.0  0.76033  0.94628  0.04835  1.0000
  C   C1066     1.0  0.87055  0.68511  0.05183  1.0000
  S   S360      1.0  0.94947  0.88605  0.50011  1.0000
  C   C1067     1.0  0.96342  0.98368  0.43825  1.0000
  H   H1061     1.0  0.90567  0.97812  0.13757  1.0000
  H   H1062     1.0  0.87685  0.88185  0.47816  1.0000
  C   C1068     1.0  0.85756  0.71402  0.07730  1.0000
  C   C1069     1.0  0.76958  0.78206  0.12752  1.0000
  C   C1070     1.0  0.77669  0.96050  0.05151  1.0000
  H   H1063     1.0  0.77846  0.74041  0.16546  1.0000
  C   C1071     1.0  0.89939  0.90355  0.40591  1.0000
  C   C1072     1.0  0.92470  0.69322  0.21250  1.0000
  C   C1073     1.0  0.89439  0.99353  0.10562  1.0000
  H   H1064     1.0  0.75603  0.77550  0.11974  1.0000
  H   H1065     1.0  0.98186  0.74806  0.44913  1.0000
  H   H1066     1.0  0.78399  0.96138  0.06845  1.0000
  H   H1067     1.0  0.90065  0.73012  0.04944  1.0000
  H   H1068     1.0  0.90936  0.90018  0.39114  1.0000
  C   C1074     1.0  0.91135  0.68541  0.19572  1.0000
  C   C1075     1.0  0.83479  0.99291  0.08074  1.0000
  C   C1076     1.0  0.77598  0.74515  0.14671  1.0000
  H   H1069     1.0  0.78539  0.73376  0.13570  1.0000
  H   H1070     1.0  0.84637  0.72010  0.08977  1.0000
  C   C1077     1.0  0.90426  0.99355  0.12714  1.0000
  C   C1078     1.0  0.77511  0.80423  0.12201  1.0000
  H   H1071     1.0  0.87495  0.74426  0.07791  1.0000
  H   H1072     1.0  0.80877  0.76592  0.16152  1.0000
  H   H1073     1.0  0.91720  0.69437  0.03437  1.0000
  H   H1074     1.0  0.76617  0.81459  0.10989  1.0000
  S   S361      1.0  0.77088  0.68490  0.16561  1.0000
  H   H1075     1.0  0.75502  0.93613  0.06311  1.0000
  H   H1076     1.0  0.88596  0.93357  0.39020  1.0000
  H   H1077     1.0  0.92803  0.71102  0.21316  1.0000
  H   H1078     1.0  0.92459  0.68237  0.09361  1.0000
  C   C1079     1.0  0.93273  0.67816  0.22925  1.0000
  C   C1080     1.0  0.84709  0.99604  0.12084  1.0000
  H   H1079     1.0  0.89892  0.69864  0.01108  1.0000
  H   H1080     1.0  0.99117  0.75899  0.36619  1.0000
  H   H1081     1.0  0.97412  0.99724  0.40513  1.0000
  H   H1082     1.0  0.99679  0.80115  0.50254  1.0000
  H   H1083     1.0  0.99100  0.73216  0.33349  1.0000
  Fe  Fe182     1.0  0.93379  0.85275  0.50023  1.0000
  C   C1081     1.0  0.89865  0.66836  0.27823  1.0000
  H   H1084     1.0  0.92125  0.99476  0.48744  1.0000
  C   C1082     1.0  0.78428  0.97282  0.03240  1.0000
  H   H1085     1.0  0.86925  0.66835  0.04486  1.0000
  C   C1083     1.0  0.77539  0.97092  0.01046  1.0000
  H   H1086     1.0  0.90129  0.67190  0.02656  1.0000
  H   H1087     1.0  0.98978  0.66914  0.04591  1.0000
  C   C1084     1.0  0.91428  0.66917  0.08928  1.0000
  C   C1085     1.0  0.89569  0.66739  0.10143  1.0000
  C   C1086     1.0  0.75890  0.95674  0.00798  1.0000
  C   C1087     1.0  0.99994  0.72833  0.34900  1.0000
  C   C1088     1.0  0.00002  0.74340  0.36740  1.0000
  H   H1088     1.0  0.96289  0.74632  0.82524  1.0000
  S   S362      1.0  0.96204  0.83288  0.50884  1.0000
  S   S363      1.0  0.82464  0.91918  0.00266  1.0000
  S   S364      1.0  0.77335  0.91444  0.97441  1.0000
  Fe  Fe183     1.0  0.80965  0.80533  0.64713  1.0000
  S   S365      1.0  0.81288  0.77241  0.66791  1.0000
  S   S366      1.0  0.78226  0.82816  0.63663  1.0000
  Fe  Fe184     1.0  0.85530  0.80580  0.63585  1.0000
  S   S367      1.0  0.86138  0.77362  0.65598  1.0000
  S   S368      1.0  0.88274  0.82398  0.62140  1.0000
  Fe  Fe185     1.0  0.83350  0.76073  0.63837  1.0000
  S   S369      1.0  0.84058  0.72637  0.62182  1.0000
  Fe  Fe186     1.0  0.84090  0.78774  0.68370  1.0000
  S   S370      1.0  0.84742  0.78528  0.72335  1.0000
  S   S371      1.0  0.82875  0.79251  0.61668  1.0000
  S   S372      1.0  0.83635  0.82099  0.66462  1.0000
  H   H1089     1.0  0.91519  0.75716  0.79417  1.0000
  H   H1090     1.0  0.88804  0.91335  0.91796  1.0000
  S   S373      1.0  0.87089  0.88278  0.98329  1.0000
  Fe  Fe187     1.0  0.93731  0.80778  0.82017  1.0000
  S   S374      1.0  0.93806  0.84217  0.83629  1.0000
  S   S375      1.0  0.92883  0.80043  0.78196  1.0000
  Fe  Fe188     1.0  0.95624  0.78518  0.86432  1.0000
  S   S376      1.0  0.95784  0.81793  0.88325  1.0000
  S   S377      1.0  0.97105  0.75255  0.87830  1.0000
  Fe  Fe189     1.0  0.92639  0.82477  0.86934  1.0000
  S   S378      1.0  0.89682  0.83432  0.88857  1.0000
  Fe  Fe190     1.0  0.96977  0.83269  0.84889  1.0000
  S   S379      1.0  0.92425  0.79081  0.85234  1.0000
  S   S380      1.0  0.96964  0.79947  0.83082  1.0000
  C   C1089     1.0  0.87859  0.86640  0.95884  1.0000
  C   C1090     1.0  0.89849  0.86849  0.95007  1.0000
  C   C1091     1.0  0.90475  0.85774  0.92931  1.0000
  C   C1092     1.0  0.89108  0.84486  0.91693  1.0000
  C   C1093     1.0  0.87137  0.84220  0.92611  1.0000
  C   C1094     1.0  0.86516  0.85279  0.94697  1.0000
  H   H1091     1.0  0.90901  0.87897  0.95910  1.0000
  H   H1092     1.0  0.91989  0.86013  0.92243  1.0000
  H   H1093     1.0  0.86066  0.83228  0.91671  1.0000
  H   H1094     1.0  0.84987  0.85086  0.95353  1.0000
  C   C1095     1.0  0.94402  0.69905  0.92882  1.0000
  C   C1096     1.0  0.93203  0.71746  0.92077  1.0000
  C   C1097     1.0  0.94024  0.73440  0.90600  1.0000
  C   C1098     1.0  0.96046  0.73283  0.89864  1.0000
  C   C1099     1.0  0.97250  0.71453  0.90679  1.0000
  C   C1100     1.0  0.96440  0.69783  0.92195  1.0000
  H   H1095     1.0  0.91627  0.71860  0.92603  1.0000
  H   H1096     1.0  0.93083  0.74847  0.90006  1.0000
  H   H1097     1.0  0.85549  0.74591  0.54823  1.0000
  H   H1098     1.0  0.97377  0.68371  0.92785  1.0000
  C   C1101     1.0  0.87006  0.79091  0.73920  1.0000
  C   C1102     1.0  0.86919  0.79214  0.76386  1.0000
  C   C1103     1.0  0.88681  0.79570  0.77718  1.0000
  C   C1104     1.0  0.90572  0.79766  0.76606  1.0000
  C   C1105     1.0  0.90659  0.79625  0.74144  1.0000
  C   C1106     1.0  0.88893  0.79311  0.72808  1.0000
  H   H1099     1.0  0.85472  0.79052  0.77271  1.0000
  H   H1100     1.0  0.88575  0.79686  0.79604  1.0000
  H   H1101     1.0  0.92106  0.79772  0.73256  1.0000
  H   H1102     1.0  0.88998  0.79223  0.70919  1.0000
  C   C1107     1.0  0.82798  0.70391  0.60810  1.0000
  C   C1108     1.0  0.80691  0.70328  0.60603  1.0000
  C   C1109     1.0  0.79780  0.68512  0.59477  1.0000
  C   C1110     1.0  0.87606  0.70757  0.67272  1.0000
  H   H1103     1.0  0.79760  0.71674  0.61310  1.0000
  N   N92       1.0  0.84389  0.71298  0.54484  1.0000
  C   C1111     1.0  0.91401  0.74918  0.81139  1.0000
  C   C1112     1.0  0.89747  0.83881  0.54392  1.0000
  C   C1113     1.0  0.87841  0.83039  0.55039  1.0000
  C   C1114     1.0  0.87397  0.82466  0.57395  1.0000
  C   C1115     1.0  0.88845  0.82783  0.59127  1.0000
  C   C1116     1.0  0.90753  0.83610  0.58475  1.0000
  C   C1117     1.0  0.91211  0.84139  0.56116  1.0000
  H   H1104     1.0  0.86701  0.82837  0.53713  1.0000
  H   H1105     1.0  0.85920  0.81841  0.57879  1.0000
  H   H1106     1.0  0.91878  0.83865  0.59808  1.0000
  H   H1107     1.0  0.92680  0.84793  0.55640  1.0000
  H   H1108     1.0  0.85889  0.91766  0.94509  1.0000
  C   C1118     1.0  0.99249  0.80539  0.92746  1.0000
  C   C1119     1.0  0.89490  0.74725  0.82191  1.0000
  C   C1120     1.0  0.82427  0.70599  0.54386  1.0000
  H   H1109     1.0  0.78148  0.68478  0.59332  1.0000
  H   H1110     1.0  0.88504  0.88938  0.88296  1.0000
  C   C1121     1.0  0.87200  0.89236  0.89429  1.0000
  N   N93       1.0  0.84179  0.86898  0.61279  1.0000
  C   C1122     1.0  0.85387  0.87247  0.63171  1.0000
  C   C1123     1.0  0.84914  0.87216  0.59050  1.0000
  C   C1124     1.0  0.87379  0.87963  0.62853  1.0000
  C   C1125     1.0  0.86897  0.87938  0.58668  1.0000
  C   C1126     1.0  0.88137  0.88304  0.60585  1.0000
  C   C1127     1.0  0.82119  0.86065  0.61620  1.0000
  H   H1111     1.0  0.84836  0.86909  0.64937  1.0000
  H   H1112     1.0  0.83984  0.86849  0.57552  1.0000
  H   H1113     1.0  0.88357  0.88147  0.64352  1.0000
  H   H1114     1.0  0.87503  0.88103  0.56899  1.0000
  H   H1115     1.0  0.89706  0.88759  0.60312  1.0000
  H   H1116     1.0  0.82069  0.84255  0.61180  1.0000
  H   H1117     1.0  0.81579  0.86230  0.63462  1.0000
  H   H1118     1.0  0.81024  0.87017  0.60491  1.0000
  H   H1119     1.0  0.88682  0.69895  0.66140  1.0000
  H   H1120     1.0  0.90946  0.72040  0.87244  1.0000
  C   C1128     1.0  0.87369  0.90579  0.91392  1.0000
  C   C1129     1.0  0.85712  0.90821  0.92916  1.0000
  C   C1130     1.0  0.91056  0.72851  0.85524  1.0000
  C   C1131     1.0  0.89322  0.73699  0.84407  1.0000
  C   C1132     1.0  0.85881  0.70215  0.53237  1.0000
  H   H1121     1.0  0.81041  0.71971  0.69457  1.0000
  H   H1122     1.0  0.89868  0.72678  0.69011  1.0000
  C   C1133     1.0  0.85381  0.88165  0.89005  1.0000
  H   H1123     1.0  0.86058  0.72665  0.57266  1.0000
  N   N94       1.0  0.84154  0.71517  0.68424  1.0000
  N   N95       1.0  0.83931  0.89771  0.92484  1.0000
  C   C1134     1.0  0.83976  0.68618  0.59872  1.0000
  C   C1135     1.0  0.88269  0.72319  0.68874  1.0000
  C   C1136     1.0  0.83753  0.88445  0.90566  1.0000
  H   H1124     1.0  0.85272  0.87043  0.87537  1.0000
  C   C1137     1.0  0.92946  0.73090  0.84427  1.0000
  H   H1125     1.0  0.94289  0.72444  0.85316  1.0000
  H   H1126     1.0  0.82636  0.88842  0.95750  1.0000
  Fe  Fe191     1.0  0.79568  0.89973  0.00192  1.0000
  H   H1127     1.0  0.82051  0.91692  0.94783  1.0000
  Fe  Fe192     1.0  0.84121  0.88583  0.00438  1.0000
  H   H1128     1.0  0.80802  0.89392  0.93475  1.0000
  C   C1138     1.0  0.81922  0.68762  0.53025  1.0000
  C   C1139     1.0  0.82271  0.89930  0.94199  1.0000
  C   C1140     1.0  0.75810  0.83736  0.64803  1.0000
  N   N96       1.0  0.93102  0.74161  0.82287  1.0000
  H   H1129     1.0  0.82369  0.87542  0.90269  1.0000
  S   S381      1.0  0.90193  0.84737  0.51447  1.0000
  C   C1141     1.0  0.95098  0.74426  0.81180  1.0000
  C   C1142     1.0  0.85532  0.70362  0.67082  1.0000
  C   C1143     1.0  0.86857  0.73459  0.70264  1.0000
  H   H1130     1.0  0.87354  0.74704  0.71491  1.0000
  H   H1131     1.0  0.80379  0.68158  0.53012  1.0000
  H   H1132     1.0  0.98814  0.71308  0.90114  1.0000
  H   H1133     1.0  0.75855  0.81667  0.67943  1.0000
  C   C1144     1.0  0.84791  0.73052  0.70001  1.0000
  H   H1134     1.0  0.83705  0.74008  0.71038  1.0000
  H   H1135     1.0  0.85021  0.69192  0.65785  1.0000
  C   C1145     1.0  0.84920  0.73208  0.55933  1.0000
  H   H1136     1.0  0.87852  0.73566  0.85260  1.0000
  C   C1146     1.0  0.81985  0.71162  0.68077  1.0000
  C   C1147     1.0  0.80959  0.66751  0.58514  1.0000
  H   H1137     1.0  0.98314  0.80030  0.94231  1.0000
  H   H1138     1.0  0.95479  0.72932  0.80117  1.0000
  H   H1139     1.0  0.95127  0.75963  0.80025  1.0000
  H   H1140     1.0  0.83589  0.73893  0.56912  1.0000
  H   H1141     1.0  0.88155  0.75396  0.81301  1.0000
  H   H1142     1.0  0.75241  0.95493  0.99074  1.0000
  H   H1143     1.0  0.85608  0.68642  0.60020  1.0000
  H   H1144     1.0  0.81245  0.71419  0.55408  1.0000
  H   H1145     1.0  0.86603  0.67508  0.50858  1.0000
  H   H1146     1.0  0.81657  0.69333  0.68105  1.0000
  S   S382      1.0  0.99680  0.85738  0.84913  1.0000
  H   H1147     1.0  0.81520  0.71896  0.66349  1.0000
  S   S383      1.0  0.81252  0.86632  0.00111  1.0000
  H   H1148     1.0  0.75252  0.86006  0.61869  1.0000
  C   C1148     1.0  0.85425  0.68383  0.51845  1.0000
  S   S384      1.0  0.93250  0.67752  0.94624  1.0000
  C   C1149     1.0  0.83067  0.66819  0.58718  1.0000
  H   H1149     1.0  0.99535  0.77190  0.91422  1.0000
  H   H1150     1.0  0.78154  0.97992  0.99535  1.0000
  H   H1151     1.0  0.87436  0.70761  0.53322  1.0000
  C   C1150     1.0  0.83432  0.67661  0.51742  1.0000
  H   H1152     1.0  0.99123  0.84075  0.93546  1.0000
  C   C1151     1.0  0.99946  0.78938  0.91149  1.0000
  C   C1152     1.0  0.99701  0.82806  0.92361  1.0000
