data_image0
_chemical_formula_structural       H2CFeSFeS2FeSFeS2FeS2NFeSH2SFeCSC2SCSHCHFeCHCH2NHC2HC2HSC6H4C8H2C6H7NC2HCSCH2CH4SH3SNCFeH5CHCH3SCHNC4HCHCH3CHCH2CH2CHCHSHC2HFeCSNHC3SNSCH3SC6SH3C3HCH3SCH2FeH2CH3C2H6FeCH2SHCH4C2HSCFeHSHSFeSHFeSFeSHFeS2FeS2FeSFeS3HSFeSH2C2H2CSC7H4C2HC6H4C6H3C7H4CHC5H6C2HSHCHNC2H3CH2SH2CHC3HSC2H3S2NC4NCHNCNSH2NC3HC2H3C3H2CFe2CH6NSH4C2H4CFeSNFeSCSHSH2FeHSFeS2FeSH2S2HCHCHS2HC6H4C6H4CHCH2CFeC2NH4C5HCHC2H2SHCH2C2HFeC2NC3HSHFeCHC2H2FeCSC2HFeCH2Fe2S3FeHSCSHFeSCSFeS2FeSFeSH2C4H4C6SHCHSC4H3C2HCHC2NHC4HC6H3C3HC2H2NSH6C2HCHCFeHSHNHCH2C3H2FeC2S2HC3HSH2C2HC3H4FeSFe2S2FeCFeS5HSHSCHC6H5C3H3CH2C6H2CNHCHCH3CH2NCHCHNH2NHC2HSNC2HC2HCH2NH2C2HC3HC3HC3FeH3CHFeS2FeSCSFeSHSFeSHSCFeHFeSC2HCH2C7H4SH3C6H6C2HC2SC2HSCH4N2HNH2SHC3H4SCH2CHC2SH4NHC2FeCH3C2H4C2FeC2HC4HFeH2FeCH2SHCFeSHFeSFeSHFeHS3FeHSC8H4C6H4C6H2C2HCHCNHS2HSC5SH3CHNC3HC2H2C2H2CHCSHS2C2H2SCHCSHCNHC4HFeSFeC2HSCFeS2HFeCFeHS2CHSCSCHCHSC2HCH2CNCHC4H4C6H5NH2CSHCHCHNSH3CHCHCSCH2C2HSCH3C2H2S2FeSHFeS2FeS2FeSFeS4CFeSCFeHSCFeS2FeCSHFeS2H4NC6H4C9H4C2SC3H3C6H4C6H5NC2H2FeCH3CH2CH2CH2NC3HCH4CHSHC2HNCHC3FeCFeHCSNC4HCSH6CH2CSCHCHC2HCH3CHCNCH3SCFeHCH2CH2CSH2SC2SCHC3NH2FeHSHC4H3CHC3FeC2HCNCHC2H4CHC2H3CH2CHFeS2CH2CHC2H2FeS2Fe2CSFeS2CSFeHFeSHSHSFeSCFeSFeSHC7HCH2CSHCSC6H2CHC7H4CFeC2HC2NC5H5CHCH3SHC3HCSH3NH2C2SC2H2SH5C2HSHSH3NH7CSCH2CH2NH2C2SFeCHC
_chemical_formula_sum              "H576 C576 Fe96 S192 N48"
_cell_length_a       32.5525
_cell_length_b       59.1101
_cell_length_c       56.8232
_cell_angle_alpha    89.9324
_cell_angle_beta     96.2484
_cell_angle_gamma    89.8963

_space_group_name_H-M_alt    "P 1"
_space_group_IT_number       1

loop_
  _space_group_symop_operation_xyz
  'x, y, z'

loop_
  _atom_site_type_symbol
  _atom_site_label
  _atom_site_symmetry_multiplicity
  _atom_site_fract_x
  _atom_site_fract_y
  _atom_site_fract_z
  _atom_site_occupancy
  H   H1        1.0  0.08472  0.00170  0.09731  1.0000
  H   H2        1.0  0.04371  0.12726  0.47850  1.0000
  C   C1        1.0  0.02841  0.12288  0.49447  1.0000
  Fe  Fe1       1.0  0.18392  0.00643  0.40265  1.0000
  S   S1        1.0  0.11618  0.00705  0.39059  1.0000
  Fe  Fe2       1.0  0.19945  0.05162  0.37771  1.0000
  S   S2        1.0  0.13123  0.05519  0.36466  1.0000
  S   S3        1.0  0.24746  0.07569  0.36346  1.0000
  Fe  Fe3       1.0  0.11875  0.04384  0.40115  1.0000
  S   S4        1.0  0.06597  0.05157  0.42378  1.0000
  Fe  Fe4       1.0  0.13322  0.01813  0.35499  1.0000
  S   S5        1.0  0.18667  0.04271  0.41504  1.0000
  S   S6        1.0  0.20131  0.01502  0.36619  1.0000
  Fe  Fe5       1.0  0.45496  0.18214  0.08884  1.0000
  S   S7        1.0  0.43183  0.16435  0.12009  1.0000
  S   S8        1.0  0.41153  0.21085  0.07410  1.0000
  N   N1        1.0  0.30289  0.01178  0.40108  1.0000
  Fe  Fe6       1.0  0.45116  0.13194  0.10368  1.0000
  S   S9        1.0  0.41899  0.09787  0.10284  1.0000
  H   H3        1.0  0.02059  0.13166  0.41946  1.0000
  H   H4        1.0  0.40746  0.28854  0.36336  1.0000
  S   S10       1.0  0.46841  0.14921  0.07108  1.0000
  Fe  Fe7       1.0  0.45201  0.16146  0.36215  1.0000
  C   C2        1.0  0.37086  0.20965  0.37298  1.0000
  S   S11       1.0  0.40779  0.14016  0.38273  1.0000
  C   C3        1.0  0.36254  0.18815  0.41557  1.0000
  C   C4        1.0  0.29986  0.01417  0.42651  1.0000
  S   S12       1.0  0.31750  0.05838  0.01062  1.0000
  C   C5        1.0  0.30566  0.00781  0.35250  1.0000
  S   S13       1.0  0.43320  0.18365  0.33059  1.0000
  H   H5        1.0  0.32536  0.19271  0.33652  1.0000
  C   C6        1.0  0.31199  0.11009  0.09961  1.0000
  H   H6        1.0  0.48643  0.14085  0.19413  1.0000
  Fe  Fe8       1.0  0.29186  0.02273  0.00979  1.0000
  C   C7        1.0  0.46373  0.27522  0.35193  1.0000
  H   H7        1.0  0.22536  0.29869  0.01878  1.0000
  C   C8        1.0  0.42774  0.22380  0.13979  1.0000
  H   H8        1.0  0.00145  0.00996  0.38477  1.0000
  H   H9        1.0  0.40462  0.21588  0.12645  1.0000
  N   N2        1.0  0.34803  0.19025  0.37324  1.0000
  H   H10       1.0  0.45274  0.27987  0.08691  1.0000
  C   C9        1.0  0.03550  0.06240  0.32982  1.0000
  C   C10       1.0  0.99838  0.07114  0.44052  1.0000
  H   H11       1.0  0.30502  0.99774  0.43596  1.0000
  C   C11       1.0  0.01800  0.03375  0.35856  1.0000
  C   C12       1.0  0.03300  0.07485  0.42816  1.0000
  H   H12       1.0  0.30043  0.17172  0.35290  1.0000
  S   S14       1.0  0.43194  0.30360  0.01747  1.0000
  C   C13       1.0  0.29213  0.09353  0.36934  1.0000
  C   C14       1.0  0.31022  0.09833  0.39231  1.0000
  C   C15       1.0  0.34557  0.11240  0.39593  1.0000
  C   C16       1.0  0.36374  0.12188  0.37674  1.0000
  C   C17       1.0  0.34573  0.11703  0.35378  1.0000
  C   C18       1.0  0.31028  0.10304  0.35016  1.0000
  H   H13       1.0  0.29681  0.09137  0.40733  1.0000
  H   H14       1.0  0.35898  0.11596  0.41380  1.0000
  H   H15       1.0  0.35918  0.12394  0.33874  1.0000
  H   H16       1.0  0.29687  0.09948  0.33229  1.0000
  C   C19       1.0  0.42490  0.27743  0.03233  1.0000
  C   C20       1.0  0.45884  0.26261  0.03693  1.0000
  C   C21       1.0  0.45525  0.24197  0.04918  1.0000
  C   C22       1.0  0.41758  0.23588  0.05712  1.0000
  C   C23       1.0  0.38363  0.25067  0.05248  1.0000
  C   C24       1.0  0.38719  0.27128  0.04019  1.0000
  C   C25       1.0  0.28771  0.04808  0.09853  1.0000
  C   C26       1.0  0.26207  0.06448  0.06088  1.0000
  H   H17       1.0  0.35430  0.24618  0.05849  1.0000
  H   H18       1.0  0.36081  0.28241  0.03683  1.0000
  C   C27       1.0  0.35018  0.06829  0.03527  1.0000
  C   C28       1.0  0.36137  0.05451  0.05496  1.0000
  C   C29       1.0  0.38370  0.06363  0.07531  1.0000
  C   C30       1.0  0.39537  0.08649  0.07604  1.0000
  C   C31       1.0  0.38569  0.10004  0.05603  1.0000
  C   C32       1.0  0.36301  0.09097  0.03575  1.0000
  H   H19       1.0  0.35171  0.03702  0.05476  1.0000
  H   H20       1.0  0.39109  0.05304  0.09075  1.0000
  H   H21       1.0  0.39433  0.11771  0.05641  1.0000
  H   H22       1.0  0.35452  0.10171  0.02054  1.0000
  H   H23       1.0  0.05381  0.07805  0.33383  1.0000
  H   H24       1.0  0.29245  0.03341  0.11002  1.0000
  H   H25       1.0  0.32614  0.11925  0.08541  1.0000
  N   N3        1.0  0.29730  0.08773  0.09133  1.0000
  C   C33       1.0  0.27722  0.08551  0.06901  1.0000
  C   C34       1.0  0.30239  0.06940  0.10613  1.0000
  H   H26       1.0  0.48817  0.26711  0.03092  1.0000
  C   C35       1.0  0.05350  0.08432  0.48879  1.0000
  S   S15       1.0  0.09329  0.00567  0.32154  1.0000
  C   C36       1.0  0.31025  0.02892  0.36339  1.0000
  H   H27       1.0  0.07785  0.09119  0.47931  1.0000
  H   H28       1.0  0.32308  0.02638  0.43465  1.0000
  C   C37       1.0  0.43976  0.25405  0.11200  1.0000
  H   H29       1.0  0.31865  0.07110  0.12374  1.0000
  H   H30       1.0  0.48171  0.23088  0.05258  1.0000
  H   H31       1.0  0.40094  0.21476  0.43188  1.0000
  H   H32       1.0  0.40657  0.25552  0.10767  1.0000
  S   S16       1.0  0.48940  0.15362  0.27994  1.0000
  H   H33       1.0  0.32702  0.16364  0.39427  1.0000
  H   H34       1.0  0.35216  0.16684  0.34553  1.0000
  H   H35       1.0  0.44438  0.20980  0.14988  1.0000
  S   S17       1.0  0.44651  0.24645  0.35321  1.0000
  N   N4        1.0  0.45588  0.23814  0.12792  1.0000
  C   C38       1.0  0.30846  0.03064  0.38781  1.0000
  Fe  Fe9       1.0  0.47413  0.21086  0.34887  1.0000
  H   H36       1.0  0.07228  0.04979  0.48356  1.0000
  H   H37       1.0  0.30594  0.00638  0.33348  1.0000
  H   H38       1.0  0.28596  0.12022  0.10512  1.0000
  H   H39       1.0  0.05737  0.04923  0.32478  1.0000
  H   H40       1.0  0.31072  0.04725  0.39595  1.0000
  C   C39       1.0  0.26751  0.04567  0.07575  1.0000
  H   H41       1.0  0.26839  0.02011  0.42935  1.0000
  C   C40       1.0  0.38565  0.20800  0.41548  1.0000
  H   H42       1.0  0.37521  0.21795  0.35637  1.0000
  H   H43       1.0  0.27392  0.09989  0.05707  1.0000
  H   H44       1.0  0.40804  0.23421  0.39375  1.0000
  S   S18       1.0  0.22766  0.01575  0.01873  1.0000
  C   C41       1.0  0.49106  0.15329  0.20811  1.0000
  H   H45       1.0  0.06689  0.09987  0.41073  1.0000
  N   N5        1.0  0.01490  0.05555  0.35039  1.0000
  C   C42       1.0  0.38969  0.21891  0.39409  1.0000
  C   C43       1.0  0.01423  0.11472  0.42533  1.0000
  C   C44       1.0  0.04051  0.09673  0.42031  1.0000
  C   C45       1.0  0.34370  0.17952  0.39417  1.0000
  H   H46       1.0  0.41160  0.23402  0.15235  1.0000
  C   C46       1.0  0.43736  0.29276  0.35796  1.0000
  H   H47       1.0  0.36007  0.17915  0.43199  1.0000
  C   C47       1.0  0.33054  0.17994  0.35092  1.0000
  H   H48       1.0  0.31387  0.04404  0.35291  1.0000
  H   H49       1.0  0.25681  0.02915  0.06949  1.0000
  H   H50       1.0  0.33651  0.10873  0.11480  1.0000
  C   C48       1.0  0.44908  0.31577  0.35696  1.0000
  H   H51       1.0  0.24764  0.06263  0.04284  1.0000
  C   C49       1.0  0.99771  0.02705  0.37787  1.0000
  H   H52       1.0  0.47530  0.05329  0.08107  1.0000
  H   H53       1.0  0.01225  0.06536  0.31433  1.0000
  C   C50       1.0  0.46574  0.26783  0.10016  1.0000
  H   H54       1.0  0.48029  0.10097  0.06656  1.0000
  H   H55       1.0  0.03655  0.02141  0.35038  1.0000
  C   C51       1.0  0.05057  0.06083  0.49122  1.0000
  H   H56       1.0  0.47822  0.12992  0.23564  1.0000
  C   C52       1.0  0.48738  0.32170  0.34969  1.0000
  H   H57       1.0  0.99734  0.13088  0.49175  1.0000
  S   S19       1.0  0.48915  0.18952  0.38167  1.0000
  H   H58       1.0  0.14334  0.99481  0.07270  1.0000
  C   C53       1.0  0.48641  0.14714  0.23172  1.0000
  C   C54       1.0  0.49256  0.16297  0.25028  1.0000
  H   H59       1.0  0.10284  0.99626  0.04816  1.0000
  Fe  Fe10      1.0  0.49099  0.17111  0.31613  1.0000
  C   C55       1.0  0.22490  0.31705  0.01848  1.0000
  S   S20       1.0  0.32069  0.99317  0.02998  1.0000
  N   N6        1.0  0.02494  0.09832  0.49723  1.0000
  H   H60       1.0  0.24747  0.32057  0.05541  1.0000
  C   C56       1.0  0.14970  0.32501  0.90665  1.0000
  C   C57       1.0  0.00330  0.20240  0.84062  1.0000
  C   C58       1.0  0.01444  0.02287  0.71016  1.0000
  S   S21       1.0  0.04871  0.30815  0.83482  1.0000
  N   N7        1.0  0.04114  0.17208  0.90089  1.0000
  S   S22       1.0  0.08487  0.07330  0.89468  1.0000
  C   C59       1.0  0.25500  0.00284  0.91010  1.0000
  H   H61       1.0  0.19023  0.99801  0.91329  1.0000
  H   H62       1.0  0.01874  0.20612  0.89734  1.0000
  H   H63       1.0  0.02888  0.20344  0.83000  1.0000
  S   S23       1.0  0.28163  0.00403  0.97530  1.0000
  C   C60       1.0  0.13773  0.01624  0.94462  1.0000
  C   C61       1.0  0.09785  0.01430  0.93249  1.0000
  C   C62       1.0  0.08087  0.03177  0.91750  1.0000
  C   C63       1.0  0.10393  0.05126  0.91422  1.0000
  C   C64       1.0  0.14384  0.05317  0.92634  1.0000
  C   C65       1.0  0.16059  0.03584  0.94157  1.0000
  S   S24       1.0  0.15875  0.99319  0.96211  1.0000
  H   H64       1.0  0.05025  0.03000  0.90819  1.0000
  H   H65       1.0  0.16194  0.06816  0.92391  1.0000
  H   H66       1.0  0.19138  0.03754  0.95070  1.0000
  C   C66       1.0  0.05605  0.13225  0.90214  1.0000
  C   C67       1.0  0.03451  0.15096  0.90957  1.0000
  C   C68       1.0  0.00666  0.01044  0.73006  1.0000
  H   H67       1.0  0.13389  0.31074  0.89788  1.0000
  C   C69       1.0  0.08385  0.13514  0.88539  1.0000
  H   H68       1.0  0.20469  0.31920  0.98108  1.0000
  H   H69       1.0  0.03529  0.19691  0.92723  1.0000
  H   H70       1.0  0.11163  0.15913  0.86335  1.0000
  S   S25       1.0  0.00706  0.10109  0.84634  1.0000
  C   C70       1.0  0.09038  0.15673  0.87657  1.0000
  H   H71       1.0  0.25994  0.32483  0.88991  1.0000
  H   H72       1.0  0.02750  0.24679  0.60599  1.0000
  Fe  Fe11      1.0  0.01864  0.07679  0.87717  1.0000
  H   H73       1.0  0.03295  0.24682  0.63814  1.0000
  H   H74       1.0  0.08005  0.99913  0.93459  1.0000
  C   C71       1.0  0.01848  0.05174  0.50263  1.0000
  H   H75       1.0  0.20340  0.30552  0.92023  1.0000
  H   H76       1.0  0.10004  0.12058  0.87921  1.0000
  H   H77       1.0  0.00122  0.23435  0.54654  1.0000
  C   C72       1.0  0.01963  0.19156  0.90982  1.0000
  C   C73       1.0  0.06902  0.17518  0.88480  1.0000
  H   H78       1.0  0.07406  0.19192  0.87778  1.0000
  H   H79       1.0  0.00323  0.16570  0.84122  1.0000
  H   H80       1.0  0.00448  0.01890  0.74684  1.0000
  H   H81       1.0  0.01861  0.04106  0.71144  1.0000
  H   H82       1.0  0.25082  0.01975  0.90274  1.0000
  H   H83       1.0  0.32128  0.00284  0.91015  1.0000
  Fe  Fe12      1.0  0.21971  0.99457  0.98597  1.0000
  C   C74       1.0  0.01621  0.01183  0.68859  1.0000
  H   H84       1.0  0.21370  0.30848  0.85660  1.0000
  H   H85       1.0  0.14480  0.31151  0.83348  1.0000
  S   S26       1.0  0.01852  0.32467  0.61616  1.0000
  H   H86       1.0  0.04599  0.13031  0.51042  1.0000
  C   C75       1.0  0.18923  0.32212  0.91938  1.0000
  H   H87       1.0  0.01198  0.14843  0.92206  1.0000
  H   H88       1.0  0.05101  0.11553  0.90916  1.0000
  H   H89       1.0  0.03036  0.27299  0.62132  1.0000
  H   H90       1.0  0.02196  0.02132  0.67293  1.0000
  C   C76       1.0  0.19794  0.32468  0.85540  1.0000
  C   C77       1.0  0.01831  0.25543  0.62200  1.0000
  H   H91       1.0  0.01539  0.03356  0.50427  1.0000
  S   S27       1.0  0.00786  0.24901  0.84129  1.0000
  C   C78       1.0  0.29443  0.99335  0.91420  1.0000
  Fe  Fe13      1.0  0.34193  0.37551  0.01785  1.0000
  H   H92       1.0  0.42824  0.32892  0.36157  1.0000
  S   S28       1.0  0.32168  0.39126  0.05162  1.0000
  H   H93       1.0  0.35357  0.44068  0.33504  1.0000
  S   S29       1.0  0.44787  0.44526  0.37823  1.0000
  Fe  Fe14      1.0  0.38969  0.33312  0.00355  1.0000
  S   S30       1.0  0.41466  0.40132  0.34560  1.0000
  H   H94       1.0  0.49010  0.51071  0.20585  1.0000
  Fe  Fe15      1.0  0.45026  0.43344  0.34049  1.0000
  S   S31       1.0  0.42289  0.46089  0.31423  1.0000
  Fe  Fe16      1.0  0.41564  0.41266  0.38356  1.0000
  S   S32       1.0  0.35910  0.41101  0.40365  1.0000
  H   H95       1.0  0.20444  0.49926  0.13147  1.0000
  Fe  Fe17      1.0  0.39097  0.55325  0.14445  1.0000
  S   S33       1.0  0.32849  0.54898  0.12374  1.0000
  S   S34       1.0  0.43114  0.58349  0.13626  1.0000
  Fe  Fe18      1.0  0.37718  0.51254  0.17700  1.0000
  S   S35       1.0  0.31398  0.50567  0.15767  1.0000
  S   S36       1.0  0.41261  0.48829  0.20396  1.0000
  Fe  Fe19      1.0  0.34352  0.51158  0.12410  1.0000
  S   S37       1.0  0.33566  0.49381  0.08786  1.0000
  Fe  Fe20      1.0  0.30393  0.54379  0.15891  1.0000
  S   S38       1.0  0.24055  0.55667  0.16876  1.0000
  S   S39       1.0  0.40725  0.51644  0.14304  1.0000
  S   S40       1.0  0.36588  0.55012  0.18002  1.0000
  H   H96       1.0  0.06370  0.54107  0.48825  1.0000
  S   S41       1.0  0.05754  0.63464  0.41001  1.0000
  Fe  Fe21      1.0  0.10191  0.64354  0.44164  1.0000
  S   S42       1.0  0.15838  0.62100  0.44878  1.0000
  H   H97       1.0  0.41615  0.53422  0.22736  1.0000
  H   H98       1.0  0.17236  0.58090  0.09268  1.0000
  C   C79       1.0  0.49011  0.52841  0.20073  1.0000
  C   C80       1.0  0.10293  0.54427  0.46048  1.0000
  H   H99       1.0  0.42150  0.41210  0.10049  1.0000
  H   H100      1.0  0.17527  0.53746  0.13554  1.0000
  C   C81       1.0  0.22889  0.54737  0.08930  1.0000
  S   S43       1.0  0.47389  0.39379  0.39537  1.0000
  C   C82       1.0  0.42817  0.44772  0.09365  1.0000
  C   C83       1.0  0.21107  0.58239  0.16957  1.0000
  C   C84       1.0  0.17077  0.58139  0.17650  1.0000
  C   C85       1.0  0.14545  0.60092  0.17652  1.0000
  C   C86       1.0  0.15994  0.62195  0.16956  1.0000
  C   C87       1.0  0.20022  0.62293  0.16260  1.0000
  C   C88       1.0  0.22561  0.60341  0.16266  1.0000
  H   H101      1.0  0.15889  0.56530  0.18180  1.0000
  H   H102      1.0  0.11449  0.59959  0.18160  1.0000
  H   H103      1.0  0.21200  0.63900  0.15715  1.0000
  H   H104      1.0  0.25639  0.60466  0.15726  1.0000
  C   C89       1.0  0.16186  0.59997  0.47099  1.0000
  C   C90       1.0  0.19284  0.58336  0.47122  1.0000
  H   H105      1.0  0.21455  0.58393  0.45810  1.0000
  C   C91       1.0  0.35288  0.43095  0.42625  1.0000
  C   C92       1.0  0.31834  0.42946  0.43903  1.0000
  C   C93       1.0  0.31034  0.44637  0.45542  1.0000
  C   C94       1.0  0.33664  0.46505  0.45890  1.0000
  C   C95       1.0  0.37169  0.46623  0.44656  1.0000
  C   C96       1.0  0.37997  0.44920  0.43045  1.0000
  H   H106      1.0  0.29727  0.41537  0.43593  1.0000
  H   H107      1.0  0.28321  0.44530  0.46481  1.0000
  H   H108      1.0  0.39218  0.48061  0.44919  1.0000
  H   H109      1.0  0.40674  0.45050  0.42088  1.0000
  C   C97       1.0  0.41931  0.46739  0.28323  1.0000
  C   C98       1.0  0.44289  0.45627  0.26758  1.0000
  C   C99       1.0  0.43997  0.46273  0.24345  1.0000
  C   C100      1.0  0.41308  0.48017  0.23443  1.0000
  C   C101      1.0  0.38907  0.49109  0.25001  1.0000
  C   C102      1.0  0.39245  0.48486  0.27421  1.0000
  H   H110      1.0  0.09375  0.58541  0.41838  1.0000
  H   H111      1.0  0.04186  0.61735  0.23176  1.0000
  H   H112      1.0  0.36803  0.50442  0.24350  1.0000
  C   C103      1.0  0.43484  0.45732  0.05295  1.0000
  C   C104      1.0  0.32468  0.41993  0.06127  1.0000
  C   C105      1.0  0.32956  0.43783  0.04571  1.0000
  C   C106      1.0  0.33186  0.46030  0.05414  1.0000
  C   C107      1.0  0.33014  0.46518  0.07828  1.0000
  C   C108      1.0  0.32489  0.44730  0.09382  1.0000
  C   C109      1.0  0.32179  0.42485  0.08529  1.0000
  H   H113      1.0  0.33123  0.43442  0.02714  1.0000
  H   H114      1.0  0.33559  0.47400  0.04191  1.0000
  H   H115      1.0  0.32334  0.45073  0.11241  1.0000
  H   H116      1.0  0.31775  0.41117  0.09750  1.0000
  C   C110      1.0  0.06291  0.61431  0.24821  1.0000
  H   H117      1.0  0.24995  0.49170  0.09984  1.0000
  C   C111      1.0  0.35181  0.47448  0.36378  1.0000
  C   C112      1.0  0.29801  0.45454  0.37982  1.0000
  C   C113      1.0  0.35097  0.49128  0.38106  1.0000
  C   C114      1.0  0.29597  0.47118  0.39715  1.0000
  C   C115      1.0  0.32285  0.48956  0.39786  1.0000
  H   H118      1.0  0.37388  0.47590  0.35084  1.0000
  H   H119      1.0  0.37238  0.50535  0.38161  1.0000
  H   H120      1.0  0.27497  0.46931  0.41061  1.0000
  H   H121      1.0  0.32257  0.50206  0.41184  1.0000
  H   H122      1.0  0.42480  0.45282  0.11170  1.0000
  H   H123      1.0  0.46374  0.44285  0.27410  1.0000
  C   C116      1.0  0.18801  0.57430  0.10964  1.0000
  C   C117      1.0  0.19424  0.53421  0.12133  1.0000
  H   H124      1.0  0.13844  0.55272  0.43181  1.0000
  S   S44       1.0  0.12939  0.64742  0.16897  1.0000
  H   H125      1.0  0.24864  0.36238  0.05392  1.0000
  C   C118      1.0  0.19535  0.56574  0.48799  1.0000
  H   H126      1.0  0.21414  0.58563  0.11593  1.0000
  N   N8        1.0  0.43326  0.43488  0.04698  1.0000
  C   C119      1.0  0.24532  0.52580  0.08637  1.0000
  C   C120      1.0  0.13399  0.59919  0.48803  1.0000
  H   H127      1.0  0.16546  0.57495  0.12300  1.0000
  H   H128      1.0  0.27835  0.43975  0.38005  1.0000
  H   H129      1.0  0.23715  0.56105  0.07798  1.0000
  C   C121      1.0  0.23772  0.35298  0.03807  1.0000
  H   H130      1.0  0.32932  0.42172  0.35387  1.0000
  H   H131      1.0  0.12287  0.53033  0.46689  1.0000
  S   S45       1.0  0.32512  0.48826  0.47669  1.0000
  H   H132      1.0  0.40328  0.42218  0.01465  1.0000
  H   H133      1.0  0.43697  0.47019  0.03953  1.0000
  C   C122      1.0  0.47285  0.58539  0.11839  1.0000
  H   H134      1.0  0.43208  0.48191  0.08094  1.0000
  C   C123      1.0  0.11165  0.55681  0.44081  1.0000
  C   C124      1.0  0.21070  0.51253  0.11915  1.0000
  C   C125      1.0  0.23633  0.50833  0.10150  1.0000
  H   H135      1.0  0.29810  0.43944  0.33286  1.0000
  S   S46       1.0  0.01252  0.64981  0.19210  1.0000
  C   C126      1.0  0.06950  0.55054  0.47259  1.0000
  C   C127      1.0  0.42868  0.41875  0.06378  1.0000
  H   H136      1.0  0.08939  0.63880  0.28652  1.0000
  H   H137      1.0  0.37398  0.49362  0.28604  1.0000
  H   H138      1.0  0.47578  0.62176  0.12092  1.0000
  S   S47       1.0  0.05299  0.64990  0.46591  1.0000
  S   S48       1.0  0.40885  0.36822  0.01549  1.0000
  N   N9        1.0  0.04556  0.56885  0.46532  1.0000
  C   C128      1.0  0.48944  0.60679  0.11404  1.0000
  C   C129      1.0  0.32670  0.43872  0.34539  1.0000
  C   C130      1.0  0.43241  0.46407  0.07637  1.0000
  C   C131      1.0  0.11741  0.63543  0.23144  1.0000
  N   N10       1.0  0.22573  0.36410  0.01729  1.0000
  C   C132      1.0  0.13755  0.65843  0.27359  1.0000
  H   H139      1.0  0.01460  0.65189  0.34345  1.0000
  N   N11       1.0  0.20361  0.55132  0.10658  1.0000
  C   C133      1.0  0.14940  0.65130  0.23309  1.0000
  N   N12       1.0  0.32576  0.45631  0.36348  1.0000
  S   S49       1.0  0.32321  0.33953  0.00851  1.0000
  H   H140      1.0  0.10930  0.62683  0.21474  1.0000
  H   H141      1.0  0.26598  0.52279  0.07293  1.0000
  N   N13       1.0  0.09609  0.63117  0.25042  1.0000
  C   C134      1.0  0.01068  0.57538  0.47812  1.0000
  C   C135      1.0  0.10627  0.64213  0.27145  1.0000
  C   C136      1.0  0.42629  0.42490  0.08736  1.0000
  H   H142      1.0  0.45665  0.41381  0.02109  1.0000
  C   C137      1.0  0.08661  0.57517  0.43328  1.0000
  C   C138      1.0  0.49103  0.56621  0.10942  1.0000
  H   H143      1.0  0.04334  0.61553  0.26305  1.0000
  H   H144      1.0  0.21886  0.55280  0.48774  1.0000
  H   H145      1.0  0.45876  0.45410  0.23168  1.0000
  C   C139      1.0  0.01176  0.65720  0.30555  1.0000
  C   C140      1.0  0.23725  0.32931  0.03901  1.0000
  C   C141      1.0  0.05326  0.58086  0.44569  1.0000
  H   H146      1.0  0.03399  0.59520  0.43981  1.0000
  H   H147      1.0  0.45165  0.55050  0.24740  1.0000
  C   C142      1.0  0.43437  0.42795  0.02230  1.0000
  Fe  Fe22      1.0  0.47635  0.38491  0.35721  1.0000
  Fe  Fe23      1.0  0.00823  0.64297  0.43370  1.0000
  C   C143      1.0  0.44928  0.53734  0.23340  1.0000
  H   H148      1.0  0.20076  0.39587  0.00495  1.0000
  H   H149      1.0  0.44416  0.44185  0.01099  1.0000
  H   H150      1.0  0.07614  0.59702  0.24785  1.0000
  H   H151      1.0  0.42569  0.40104  0.05885  1.0000
  H   H152      1.0  0.46258  0.52146  0.24158  1.0000
  H   H153      1.0  0.47877  0.54963  0.11263  1.0000
  N   N14       1.0  0.47077  0.54426  0.21321  1.0000
  S   S50       1.0  0.21114  0.48564  0.49922  1.0000
  H   H154      1.0  0.00854  0.59413  0.47928  1.0000
  H   H155      1.0  0.11024  0.61199  0.48812  1.0000
  H   H156      1.0  0.22828  0.39656  0.03411  1.0000
  H   H157      1.0  0.16571  0.65485  0.21780  1.0000
  C   C144      1.0  0.22782  0.38885  0.01623  1.0000
  C   C145      1.0  0.46936  0.56642  0.20614  1.0000
  H   H158      1.0  0.45251  0.57884  0.21536  1.0000
  H   H159      1.0  0.01405  0.56878  0.49654  1.0000
  H   H160      1.0  0.25664  0.39402  0.00889  1.0000
  H   H161      1.0  0.48713  0.59082  0.18072  1.0000
  C   C146      1.0  0.48895  0.57333  0.18664  1.0000
  Fe  Fe24      1.0  0.31512  0.35160  0.97049  1.0000
  S   S51       1.0  0.38165  0.34340  0.96493  1.0000
  N   N15       1.0  0.22416  0.39947  0.58071  1.0000
  Fe  Fe25      1.0  0.39656  0.37905  0.97732  1.0000
  S   S52       1.0  0.44264  0.40633  0.96807  1.0000
  C   C147      1.0  0.25367  0.58006  0.54523  1.0000
  S   S53       1.0  0.32949  0.38810  0.98033  1.0000
  H   H162      1.0  0.11534  0.58134  0.51824  1.0000
  S   S54       1.0  0.06660  0.38576  0.60197  1.0000
  H   H163      1.0  0.28084  0.34245  0.86797  1.0000
  H   H164      1.0  0.25612  0.52972  0.60723  1.0000
  Fe  Fe26      1.0  0.21584  0.46209  0.53075  1.0000
  H   H165      1.0  0.01089  0.35297  0.68837  1.0000
  S   S55       1.0  0.17725  0.42973  0.52827  1.0000
  Fe  Fe27      1.0  0.28308  0.49114  0.55850  1.0000
  S   S56       1.0  0.28257  0.51680  0.52944  1.0000
  S   S57       1.0  0.32163  0.49325  0.59437  1.0000
  Fe  Fe28      1.0  0.21356  0.51352  0.52617  1.0000
  S   S58       1.0  0.16866  0.54293  0.52601  1.0000
  H   H166      1.0  0.01609  0.42939  0.58868  1.0000
  H   H167      1.0  0.34232  0.58490  0.61443  1.0000
  S   S59       1.0  0.21376  0.48992  0.55734  1.0000
  S   S60       1.0  0.28564  0.46109  0.53434  1.0000
  H   H168      1.0  0.28102  0.44755  0.58510  1.0000
  C   C148      1.0  0.15660  0.36579  0.85246  1.0000
  H   H169      1.0  0.25647  0.56644  0.53203  1.0000
  C   C149      1.0  0.26042  0.43430  0.58994  1.0000
  H   H170      1.0  0.13782  0.38119  0.91600  1.0000
  S   S61       1.0  0.26141  0.33577  0.94571  1.0000
  S   S62       1.0  0.48917  0.59437  0.68735  1.0000
  H   H171      1.0  0.22042  0.58455  0.54492  1.0000
  C   C150      1.0  0.35966  0.51457  0.60070  1.0000
  C   C151      1.0  0.36782  0.53063  0.58372  1.0000
  C   C152      1.0  0.39525  0.54860  0.58990  1.0000
  C   C153      1.0  0.41513  0.55070  0.61303  1.0000
  C   C154      1.0  0.40814  0.53421  0.62983  1.0000
  C   C155      1.0  0.38046  0.51627  0.62369  1.0000
  H   H172      1.0  0.35234  0.52952  0.56596  1.0000
  H   H173      1.0  0.40048  0.56124  0.57676  1.0000
  H   H174      1.0  0.42297  0.53571  0.64775  1.0000
  H   H175      1.0  0.37440  0.50395  0.63697  1.0000
  C   C156      1.0  0.09251  0.39933  0.57991  1.0000
  C   C157      1.0  0.09423  0.38992  0.55747  1.0000
  C   C158      1.0  0.11891  0.40006  0.54147  1.0000
  C   C159      1.0  0.14177  0.41979  0.54758  1.0000
  C   C160      1.0  0.13847  0.42978  0.56959  1.0000
  C   C161      1.0  0.11422  0.41949  0.58571  1.0000
  H   H176      1.0  0.07776  0.37441  0.55275  1.0000
  H   H177      1.0  0.12119  0.39220  0.52446  1.0000
  H   H178      1.0  0.15581  0.44496  0.57453  1.0000
  H   H179      1.0  0.11297  0.42694  0.60300  1.0000
  C   C162      1.0  0.21063  0.34044  0.93086  1.0000
  H   H180      1.0  0.20905  0.37823  0.87478  1.0000
  C   C163      1.0  0.15203  0.36460  0.91694  1.0000
  H   H181      1.0  0.18425  0.37274  0.56719  1.0000
  H   H182      1.0  0.31259  0.55049  0.63101  1.0000
  C   C164      1.0  0.13835  0.34699  0.84082  1.0000
  Fe  Fe29      1.0  0.28069  0.48667  0.50490  1.0000
  C   C165      1.0  0.30123  0.58366  0.58183  1.0000
  C   C166      1.0  0.21478  0.38027  0.56472  1.0000
  N   N16       1.0  0.21545  0.34318  0.86696  1.0000
  H   H183      1.0  0.20772  0.37614  0.93787  1.0000
  H   H184      1.0  0.26296  0.41551  0.55778  1.0000
  H   H185      1.0  0.27037  0.59511  0.53948  1.0000
  H   H186      1.0  0.13996  0.38173  0.85209  1.0000
  C   C167      1.0  0.29983  0.55693  0.61385  1.0000
  C   C168      1.0  0.21316  0.32853  0.99735  1.0000
  C   C169      1.0  0.26818  0.54527  0.60049  1.0000
  C   C170      1.0  0.16726  0.56490  0.50491  1.0000
  C   C171      1.0  0.99906  0.34370  0.70261  1.0000
  H   H187      1.0  0.21281  0.38584  0.54590  1.0000
  C   C172      1.0  0.13073  0.34632  0.90530  1.0000
  H   H188      1.0  0.45258  0.38192  0.92370  1.0000
  C   C173      1.0  0.25658  0.34121  0.88021  1.0000
  C   C174      1.0  0.19170  0.36176  0.92950  1.0000
  H   H189      1.0  0.20321  0.41923  0.63401  1.0000
  H   H190      1.0  0.03982  0.35989  0.73009  1.0000
  S   S63       1.0  0.44433  0.57551  0.62053  1.0000
  H   H191      1.0  0.25071  0.44973  0.62315  1.0000
  C   C175      1.0  0.31650  0.57627  0.60452  1.0000
  H   H192      1.0  0.20584  0.36091  0.98040  1.0000
  H   H193      1.0  0.22884  0.54405  0.56764  1.0000
  C   C176      1.0  0.24344  0.43549  0.61139  1.0000
  C   C177      1.0  0.47430  0.39580  0.92545  1.0000
  H   H194      1.0  0.31508  0.59840  0.57454  1.0000
  Fe  Fe30      1.0  0.01507  0.35910  0.59854  1.0000
  C   C178      1.0  0.25335  0.55326  0.57798  1.0000
  C   C179      1.0  0.47601  0.40985  0.94534  1.0000
  N   N17       1.0  0.26992  0.57221  0.56892  1.0000
  C   C180      1.0  0.21702  0.41838  0.61749  1.0000
  C   C181      1.0  0.19549  0.36362  0.86543  1.0000
  C   C182      1.0  0.20795  0.40027  0.60194  1.0000
  H   H195      1.0  0.99659  0.39424  0.56678  1.0000
  S   S64       1.0  0.08151  0.35142  0.88877  1.0000
  H   H196      1.0  0.23913  0.36713  0.56792  1.0000
  Fe  Fe31      1.0  0.00342  0.32796  0.81005  1.0000
  C   C183      1.0  0.13698  0.58182  0.50508  1.0000
  H   H197      1.0  0.18678  0.38725  0.60662  1.0000
  C   C184      1.0  0.25038  0.41607  0.57470  1.0000
  C   C185      1.0  0.00042  0.33581  0.74520  1.0000
  H   H198      1.0  0.26191  0.35462  0.89392  1.0000
  H   H199      1.0  0.10776  0.34837  0.83116  1.0000
  Fe  Fe32      1.0  0.03351  0.33149  0.86381  1.0000
  C   C186      1.0  0.01541  0.34760  0.72634  1.0000
  S   S65       1.0  0.02142  0.34196  0.77489  1.0000
  C   C187      1.0  0.21394  0.35219  0.99705  1.0000
  C   C188      1.0  0.15910  0.32628  0.84224  1.0000
  H   H200      1.0  0.13193  0.83893  0.23434  1.0000
  Fe  Fe33      1.0  0.25538  0.98464  0.03690  1.0000
  C   C189      1.0  0.12183  0.89978  0.26419  1.0000
  H   H201      1.0  0.01729  0.89771  0.26235  1.0000
  H   H202      1.0  0.13240  0.72827  0.46769  1.0000
  Fe  Fe34      1.0  0.05417  0.68609  0.45248  1.0000
  Fe  Fe35      1.0  0.01996  0.67639  0.22085  1.0000
  S   S66       1.0  0.04645  0.71752  0.47549  1.0000
  S   S67       1.0  0.00849  0.66247  0.25727  1.0000
  S   S68       1.0  0.06728  0.68834  0.36510  1.0000
  Fe  Fe36      1.0  0.05774  0.67147  0.40055  1.0000
  H   H203      1.0  0.09421  0.94188  0.05653  1.0000
  S   S69       1.0  0.03238  0.68961  0.15510  1.0000
  C   C190      1.0  0.04851  0.89268  0.25971  1.0000
  S   S70       1.0  0.07899  0.69023  0.20928  1.0000
  H   H204      1.0  0.00015  0.77252  0.20690  1.0000
  Fe  Fe37      1.0  0.03818  0.71405  0.18587  1.0000
  S   S71       1.0  0.05775  0.75040  0.17710  1.0000
  C   C191      1.0  0.02535  0.73368  0.38782  1.0000
  S   S72       1.0  0.07621  0.94797  0.16401  1.0000
  Fe  Fe38      1.0  0.03448  0.88851  0.17994  1.0000
  S   S73       1.0  0.10203  0.89731  0.18408  1.0000
  S   S74       1.0  0.01614  0.92094  0.19761  1.0000
  Fe  Fe39      1.0  0.08324  0.93061  0.19957  1.0000
  S   S75       1.0  0.12473  0.94454  0.23168  1.0000
  Fe  Fe40      1.0  0.08912  0.91425  0.14845  1.0000
  S   S76       1.0  0.12446  0.90832  0.11662  1.0000
  H   H205      1.0  0.11564  0.95711  0.47877  1.0000
  H   H206      1.0  0.01008  0.76466  0.13379  1.0000
  C   C192      1.0  0.04435  0.77925  0.18225  1.0000
  C   C193      1.0  0.06353  0.79653  0.17029  1.0000
  C   C194      1.0  0.05320  0.81957  0.17304  1.0000
  C   C195      1.0  0.02324  0.82572  0.18775  1.0000
  H   H207      1.0  0.45435  0.82001  0.00012  1.0000
  H   H208      1.0  0.07705  0.92170  0.27774  1.0000
  H   H209      1.0  0.08656  0.79208  0.15872  1.0000
  H   H210      1.0  0.06828  0.83253  0.16364  1.0000
  C   C196      1.0  0.29800  0.99101  0.39052  1.0000
  C   C197      1.0  0.12763  0.88030  0.25101  1.0000
  C   C198      1.0  0.05044  0.68081  0.33526  1.0000
  C   C199      1.0  0.06794  0.74851  0.42247  1.0000
  C   C200      1.0  0.05028  0.68901  0.29282  1.0000
  C   C201      1.0  0.06312  0.69413  0.31677  1.0000
  S   S77       1.0  0.21754  0.97754  0.42370  1.0000
  H   H211      1.0  0.02928  0.86277  0.24024  1.0000
  C   C202      1.0  0.12032  0.98482  0.06114  1.0000
  H   H212      1.0  0.14779  0.91066  0.27004  1.0000
  S   S78       1.0  0.02240  0.90341  0.14326  1.0000
  C   C203      1.0  0.14542  0.76087  0.48427  1.0000
  C   C204      1.0  0.12060  0.74178  0.47791  1.0000
  C   C205      1.0  0.11513  0.96167  0.25643  1.0000
  C   C206      1.0  0.07589  0.97020  0.25939  1.0000
  H   H213      1.0  0.03460  0.74105  0.10234  1.0000
  H   H214      1.0  0.07742  0.83378  0.23083  1.0000
  H   H215      1.0  0.99618  0.70603  0.08923  1.0000
  C   C207      1.0  0.14805  0.96644  0.27393  1.0000
  C   C208      1.0  0.05233  0.94010  0.08310  1.0000
  H   H216      1.0  0.15851  0.87616  0.24688  1.0000
  C   C209      1.0  0.03524  0.95165  0.10106  1.0000
  H   H217      1.0  0.17855  0.95996  0.27189  1.0000
  C   C210      1.0  0.19743  0.96111  0.44622  1.0000
  C   C211      1.0  0.15943  0.96612  0.45441  1.0000
  N   N18       1.0  0.09192  0.97304  0.07534  1.0000
  H   H218      1.0  0.17606  0.76188  0.47865  1.0000
  C   C212      1.0  0.20601  0.92946  0.47450  1.0000
  C   C213      1.0  0.22060  0.94271  0.45641  1.0000
  C   C214      1.0  0.06992  0.98351  0.27942  1.0000
  C   C215      1.0  0.00425  0.80846  0.19985  1.0000
  H   H219      1.0  0.25003  0.93864  0.45028  1.0000
  C   C216      1.0  0.20771  0.96119  0.08623  1.0000
  C   C217      1.0  0.19769  0.94105  0.07408  1.0000
  C   C218      1.0  0.17273  0.92484  0.08384  1.0000
  C   C219      1.0  0.15699  0.92880  0.10555  1.0000
  C   C220      1.0  0.16658  0.94907  0.11753  1.0000
  C   C221      1.0  0.19216  0.96508  0.10801  1.0000
  H   H220      1.0  0.20957  0.93784  0.05734  1.0000
  H   H221      1.0  0.16551  0.90916  0.07450  1.0000
  H   H222      1.0  0.15474  0.95228  0.13428  1.0000
  C   C222      1.0  0.14501  0.95298  0.47259  1.0000
  C   C223      1.0  0.02434  0.67053  0.28707  1.0000
  C   C224      1.0  0.08050  0.74035  0.48454  1.0000
  H   H223      1.0  0.06402  0.76026  0.43735  1.0000
  C   C225      1.0  0.10140  0.84682  0.22887  1.0000
  C   C226      1.0  0.05552  0.87300  0.24706  1.0000
  H   H224      1.0  0.29205  0.97616  0.40087  1.0000
  H   H225      1.0  0.49025  0.79130  0.02724  1.0000
  N   N19       1.0  0.09475  0.86695  0.24303  1.0000
  S   S79       1.0  0.10645  0.68002  0.43060  1.0000
  H   H226      1.0  0.99681  0.74514  0.44162  1.0000
  H   H227      1.0  0.13834  0.97275  0.05128  1.0000
  H   H228      1.0  0.14441  0.66762  0.29008  1.0000
  H   H229      1.0  0.18323  0.67579  0.25553  1.0000
  H   H230      1.0  0.09969  0.85153  0.20984  1.0000
  H   H231      1.0  0.08619  0.75751  0.40995  1.0000
  C   C227      1.0  0.08058  0.95116  0.07020  1.0000
  C   C228      1.0  0.14206  0.97970  0.29399  1.0000
  H   H232      1.0  0.22422  0.91542  0.48214  1.0000
  C   C229      1.0  0.16810  0.93456  0.48277  1.0000
  H   H233      1.0  0.14121  0.98017  0.44681  1.0000
  C   C230      1.0  0.00666  0.73642  0.10998  1.0000
  Fe  Fe41      1.0  0.00993  0.93636  0.16087  1.0000
  H   H234      1.0  0.06038  0.69936  0.27884  1.0000
  S   S80       1.0  0.00511  0.67950  0.42189  1.0000
  H   H235      1.0  0.05242  0.73375  0.37823  1.0000
  N   N20       1.0  0.02797  0.74109  0.41072  1.0000
  H   H236      1.0  0.04477  0.92244  0.07971  1.0000
  C   C231      1.0  0.08198  0.90608  0.26840  1.0000
  H   H237      1.0  0.05021  0.96672  0.24617  1.0000
  H   H238      1.0  0.19983  0.98060  0.11755  1.0000
  C   C232      1.0  0.99431  0.74004  0.42316  1.0000
  C   C233      1.0  0.07552  0.98444  0.09309  1.0000
  C   C234      1.0  0.10291  0.98844  0.29684  1.0000
  H   H239      1.0  0.08571  0.73351  0.42966  1.0000
  H   H240      1.0  0.08303  0.70852  0.32101  1.0000
  Fe  Fe42      1.0  0.06991  0.66487  0.17943  1.0000
  C   C235      1.0  0.29945  0.98869  0.36611  1.0000
  C   C236      1.0  0.01483  0.78544  0.19726  1.0000
  S   S81       1.0  0.00901  0.85455  0.19218  1.0000
  S   S82       1.0  0.24342  0.96250  0.00449  1.0000
  H   H241      1.0  0.16779  0.98330  0.30714  1.0000
  C   C237      1.0  0.02470  0.66227  0.32949  1.0000
  C   C238      1.0  0.13094  0.77865  0.49768  1.0000
  C   C239      1.0  0.15920  0.66303  0.25424  1.0000
  H   H242      1.0  0.03948  0.99014  0.28134  1.0000
  S   S83       1.0  0.23809  0.98242  0.07461  1.0000
  H   H243      1.0  0.01339  0.94327  0.11124  1.0000
  H   H244      1.0  0.29475  0.97226  0.35777  1.0000
  C   C240      1.0  0.04690  0.97393  0.10619  1.0000
  C   C241      1.0  0.48082  0.78712  0.00886  1.0000
  H   H245      1.0  0.03408  0.98281  0.12046  1.0000
  C   C242      1.0  0.06614  0.75805  0.49811  1.0000
  C   C243      1.0  0.48927  0.76574  0.00016  1.0000
  C   C244      1.0  0.00974  0.98844  0.68721  1.0000
  H   H246      1.0  0.41390  0.78225  0.66318  1.0000
  H   H247      1.0  0.29977  0.79245  0.51807  1.0000
  H   H248      1.0  0.03220  0.96185  0.56786  1.0000
  H   H249      1.0  0.47433  0.70813  0.64567  1.0000
  Fe  Fe43      1.0  0.16735  0.88663  0.52692  1.0000
  S   S84       1.0  0.11535  0.86156  0.52787  1.0000
  Fe  Fe44      1.0  0.30685  0.97348  0.99600  1.0000
  Fe  Fe45      1.0  0.22396  0.85941  0.56487  1.0000
  S   S85       1.0  0.17433  0.83335  0.56841  1.0000
  S   S86       1.0  0.29311  0.85611  0.57954  1.0000
  Fe  Fe46      1.0  0.16280  0.83390  0.52856  1.0000
  C   C245      1.0  0.41501  0.74666  0.67085  1.0000
  Fe  Fe47      1.0  0.13002  0.86318  0.56748  1.0000
  S   S87       1.0  0.07370  0.86459  0.58847  1.0000
  S   S88       1.0  0.21424  0.85886  0.52477  1.0000
  S   S89       1.0  0.18024  0.88922  0.56673  1.0000
  S   S90       1.0  0.43989  0.85894  0.96801  1.0000
  S   S91       1.0  0.41808  0.82972  0.67157  1.0000
  H   H250      1.0  0.06511  0.94288  0.61868  1.0000
  S   S92       1.0  0.14824  0.91904  0.50602  1.0000
  H   H251      1.0  0.02048  0.94270  0.71361  1.0000
  S   S93       1.0  0.16389  0.80238  0.50477  1.0000
  C   C246      1.0  0.20980  0.77138  0.56746  1.0000
  H   H252      1.0  0.29683  0.81352  0.55797  1.0000
  C   C247      1.0  0.32717  0.84889  0.60550  1.0000
  C   C248      1.0  0.31288  0.84353  0.62721  1.0000
  C   C249      1.0  0.34113  0.83773  0.64705  1.0000
  C   C250      1.0  0.38413  0.83722  0.64567  1.0000
  C   C251      1.0  0.39842  0.84240  0.62392  1.0000
  C   C252      1.0  0.37016  0.84817  0.60406  1.0000
  H   H253      1.0  0.28009  0.84412  0.62882  1.0000
  H   H254      1.0  0.32952  0.83388  0.66374  1.0000
  H   H255      1.0  0.43125  0.84229  0.62244  1.0000
  H   H256      1.0  0.38178  0.85235  0.58747  1.0000
  H   H257      1.0  0.21855  0.78156  0.60410  1.0000
  C   C253      1.0  0.00894  0.92441  0.62202  1.0000
  C   C254      1.0  0.06974  0.90880  0.60551  1.0000
  C   C255      1.0  0.05003  0.88789  0.60174  1.0000
  H   H258      1.0  0.18423  0.76010  0.56969  1.0000
  H   H259      1.0  0.08452  0.90623  0.53411  1.0000
  H   H260      1.0  0.10072  0.91101  0.60068  1.0000
  C   C256      1.0  0.04944  0.92684  0.61578  1.0000
  H   H261      1.0  0.99440  0.86920  0.60576  1.0000
  H   H262      1.0  0.39287  0.74801  0.68375  1.0000
  C   C257      1.0  0.37918  0.92912  0.97462  1.0000
  C   C258      1.0  0.41001  0.92599  0.95935  1.0000
  C   C259      1.0  0.42875  0.90467  0.95707  1.0000
  C   C260      1.0  0.41688  0.88615  0.97008  1.0000
  C   C261      1.0  0.00987  0.88532  0.60844  1.0000
  C   C262      1.0  0.26578  0.79389  0.51810  1.0000
  H   H263      1.0  0.41941  0.94016  0.94913  1.0000
  H   H264      1.0  0.45212  0.90254  0.94509  1.0000
  C   C263      1.0  0.22687  0.96923  0.92632  1.0000
  N   N21       1.0  0.45597  0.76454  0.64343  1.0000
  H   H265      1.0  0.12770  0.93723  0.55353  1.0000
  C   C264      1.0  0.22900  0.78341  0.58671  1.0000
  H   H266      1.0  0.20706  0.76552  0.53009  1.0000
  C   C265      1.0  0.29916  0.97172  0.92419  1.0000
  H   H267      1.0  0.02241  0.88326  0.53834  1.0000
  H   H268      1.0  0.30057  0.92957  0.93770  1.0000
  H   H269      1.0  0.10078  0.95394  0.53028  1.0000
  C   C266      1.0  0.02983  0.94482  0.56079  1.0000
  H   H270      1.0  0.46076  0.80054  0.64053  1.0000
  H   H271      1.0  0.48599  0.74449  0.96941  1.0000
  N   N22       1.0  0.45783  0.77663  0.96156  1.0000
  C   C267      1.0  0.44706  0.77111  0.93650  1.0000
  H   H272      1.0  0.25574  0.81124  0.51237  1.0000
  C   C268      1.0  0.10004  0.94811  0.54884  1.0000
  H   H273      1.0  0.45172  0.78550  0.61295  1.0000
  N   N23       1.0  0.00085  0.97651  0.70667  1.0000
  H   H274      1.0  0.24548  0.92605  0.93499  1.0000
  H   H275      1.0  0.07953  0.79047  0.51509  1.0000
  N   N24       1.0  0.26554  0.95990  0.92997  1.0000
  H   H276      1.0  0.42549  0.78374  0.92741  1.0000
  C   C269      1.0  0.43181  0.72569  0.66585  1.0000
  C   C270      1.0  0.02367  0.90076  0.54415  1.0000
  H   H277      1.0  0.42320  0.71054  0.67496  1.0000
  S   S94       1.0  0.35683  0.95650  0.97642  1.0000
  N   N25       1.0  0.25383  0.78952  0.54183  1.0000
  C   C271      1.0  0.27104  0.93767  0.94137  1.0000
  C   C272      1.0  0.46037  0.72429  0.64930  1.0000
  H   H278      1.0  0.10281  0.96291  0.56091  1.0000
  C   C273      1.0  0.26091  0.79838  0.58331  1.0000
  C   C274      1.0  0.27285  0.80133  0.56060  1.0000
  H   H279      1.0  0.27194  0.93961  0.96086  1.0000
  C   C275      1.0  0.42721  0.76601  0.65924  1.0000
  H   H280      1.0  0.43206  0.75426  0.93462  1.0000
  H   H281      1.0  0.43422  0.81040  0.95828  1.0000
  N   N26       1.0  0.06213  0.93523  0.55084  1.0000
  H   H282      1.0  0.27541  0.80828  0.59798  1.0000
  H   H283      1.0  0.33001  0.96466  0.92776  1.0000
  C   C276      1.0  0.22286  0.77455  0.54504  1.0000
  C   C277      1.0  0.22097  0.99067  0.91604  1.0000
  H   H284      1.0  0.03527  0.75717  0.50344  1.0000
  C   C278      1.0  0.36706  0.91057  0.98751  1.0000
  C   C279      1.0  0.05908  0.91367  0.54217  1.0000
  C   C280      1.0  0.47776  0.76082  0.97628  1.0000
  H   H285      1.0  0.20031  0.96032  0.93175  1.0000
  C   C281      1.0  0.46820  0.78482  0.63109  1.0000
  C   C282      1.0  0.38583  0.88922  0.98523  1.0000
  C   C283      1.0  0.44940  0.79765  0.96995  1.0000
  H   H286      1.0  0.47556  0.77079  0.92732  1.0000
  C   C284      1.0  0.47234  0.74403  0.63828  1.0000
  C   C285      1.0  0.09120  0.77701  0.50477  1.0000
  C   C286      1.0  0.46073  0.80320  0.99369  1.0000
  Fe  Fe48      1.0  0.48771  0.82505  0.68368  1.0000
  H   H287      1.0  0.25068  0.78194  0.50476  1.0000
  H   H288      1.0  0.34340  0.91266  0.99931  1.0000
  H   H289      1.0  0.01093  0.98001  0.67034  1.0000
  C   C287      1.0  0.99982  0.98714  0.72797  1.0000
  H   H290      1.0  0.37630  0.87502  0.99534  1.0000
  Fe  Fe49      1.0  0.80697  0.13489  0.47697  1.0000
  S   S95       1.0  0.85049  0.16270  0.46898  1.0000
  S   S96       1.0  0.73850  0.13093  0.46163  1.0000
  Fe  Fe50      1.0  0.89971  0.13533  0.47082  1.0000
  S   S97       1.0  0.94957  0.13454  0.44524  1.0000
  C   C288      1.0  0.64529  0.16899  0.32839  1.0000
  S   S98       1.0  0.85520  0.10721  0.47599  1.0000
  Fe  Fe51      1.0  0.53172  0.15063  0.09152  1.0000
  S   S99       1.0  0.58594  0.14026  0.07146  1.0000
  H   H291      1.0  0.55908  0.10132  0.01082  1.0000
  S   S100      1.0  0.53065  0.19961  0.33223  1.0000
  Fe  Fe52      1.0  0.54412  0.17694  0.36445  1.0000
  S   S101      1.0  0.61251  0.17780  0.38081  1.0000
  H   H292      1.0  0.52883  0.27519  0.09487  1.0000
  S   S102      1.0  0.78560  0.02748  0.05191  1.0000
  C   C289      1.0  0.61791  0.18389  0.29033  1.0000
  Fe  Fe53      1.0  0.49711  0.16635  0.13744  1.0000
  H   H293      1.0  0.66925  0.16708  0.47824  1.0000
  Fe  Fe54      1.0  0.71587  0.02850  0.04853  1.0000
  S   S103      1.0  0.67740  0.04408  0.07585  1.0000
  C   C290      1.0  0.64369  0.18626  0.31145  1.0000
  C   C291      1.0  0.54853  0.06170  0.05314  1.0000
  H   H294      1.0  0.51755  0.20832  0.21747  1.0000
  C   C292      1.0  0.50344  0.09271  0.05724  1.0000
  H   H295      1.0  0.59702  0.13558  0.35417  1.0000
  H   H296      1.0  0.51068  0.22338  0.14566  1.0000
  C   C293      1.0  0.76046  0.04011  0.12024  1.0000
  C   C294      1.0  0.61175  0.11361  0.07335  1.0000
  C   C295      1.0  0.60545  0.09767  0.09084  1.0000
  C   C296      1.0  0.62626  0.07666  0.09153  1.0000
  C   C297      1.0  0.65306  0.07113  0.07454  1.0000
  C   C298      1.0  0.65938  0.08704  0.05706  1.0000
  C   C299      1.0  0.63910  0.10821  0.05662  1.0000
  H   H297      1.0  0.58484  0.10163  0.10396  1.0000
  H   H298      1.0  0.62131  0.06457  0.10524  1.0000
  H   H299      1.0  0.68006  0.08314  0.04394  1.0000
  H   H300      1.0  0.64442  0.12044  0.04310  1.0000
  S   S104      1.0  0.51987  0.18521  0.10665  1.0000
  H   H301      1.0  0.82504  0.02192  0.14738  1.0000
  H   H302      1.0  0.64580  0.18970  0.44554  1.0000
  H   H303      1.0  0.92680  0.03506  0.00455  1.0000
  C   C300      1.0  0.70472  0.14336  0.43811  1.0000
  C   C301      1.0  0.71771  0.16004  0.42305  1.0000
  C   C302      1.0  0.68924  0.16993  0.40537  1.0000
  C   C303      1.0  0.64725  0.16356  0.40257  1.0000
  C   C304      1.0  0.63432  0.14676  0.41748  1.0000
  C   C305      1.0  0.66285  0.13677  0.43506  1.0000
  H   H304      1.0  0.74969  0.16536  0.42509  1.0000
  H   H305      1.0  0.69979  0.18290  0.39401  1.0000
  H   H306      1.0  0.60226  0.14158  0.41566  1.0000
  H   H307      1.0  0.65230  0.12388  0.44653  1.0000
  H   H308      1.0  0.65193  0.13261  0.35459  1.0000
  H   H309      1.0  0.98956  0.08842  0.35469  1.0000
  C   C306      1.0  0.49777  0.23585  0.13290  1.0000
  C   C307      1.0  0.76125  0.20721  0.49439  1.0000
  H   H310      1.0  0.94611  0.08602  0.45542  1.0000
  C   C308      1.0  0.80699  0.00965  0.13653  1.0000
  C   C309      1.0  0.52467  0.24912  0.12113  1.0000
  S   S105      1.0  0.77678  0.99338  0.00527  1.0000
  C   C310      1.0  0.51713  0.10336  0.03754  1.0000
  C   C311      1.0  0.73135  0.21217  0.47549  1.0000
  H   H311      1.0  0.86324  0.99935  0.08745  1.0000
  S   S106      1.0  0.70915  0.03470  0.00930  1.0000
  C   C312      1.0  0.66681  0.20410  0.45068  1.0000
  H   H312      1.0  0.57369  0.16248  0.27021  1.0000
  H   H313      1.0  0.50544  0.11996  0.03203  1.0000
  H   H314      1.0  0.73466  0.22740  0.46521  1.0000
  H   H315      1.0  0.50842  0.19752  0.25892  1.0000
  N   N27       1.0  0.77305  0.01626  0.12172  1.0000
  N   N28       1.0  0.62141  0.15003  0.32455  1.0000
  H   H316      1.0  0.77853  0.05074  0.13372  1.0000
  N   N29       1.0  0.51977  0.07240  0.06509  1.0000
  H   H317      1.0  0.66516  0.17106  0.34485  1.0000
  H   H318      1.0  0.99204  0.05426  0.44652  1.0000
  S   S107      1.0  0.50835  0.14759  0.34712  1.0000
  H   H319      1.0  0.58687  0.06373  0.02447  1.0000
  C   C313      1.0  0.59392  0.16447  0.28652  1.0000
  C   C314      1.0  0.50845  0.26512  0.10455  1.0000
  C   C315      1.0  0.62223  0.13249  0.34288  1.0000
  H   H320      1.0  0.72722  0.04179  0.12291  1.0000
  H   H321      1.0  0.66196  0.20147  0.31484  1.0000
  H   H322      1.0  0.95860  0.03788  0.40396  1.0000
  H   H323      1.0  0.95290  0.07736  0.38886  1.0000
  S   S108      1.0  0.51483  0.13228  0.12364  1.0000
  C   C316      1.0  0.56278  0.07180  0.03329  1.0000
  H   H324      1.0  0.91229  0.00508  0.03692  1.0000
  H   H325      1.0  0.57504  0.13329  0.30133  1.0000
  C   C317      1.0  0.54720  0.09287  0.02562  1.0000
  H   H326      1.0  0.61827  0.11538  0.33489  1.0000
  C   C318      1.0  0.97052  0.06488  0.38013  1.0000
  C   C319      1.0  0.59532  0.14784  0.30411  1.0000
  S   S109      1.0  0.51115  0.18385  0.17353  1.0000
  H   H327      1.0  0.68136  0.20900  0.43462  1.0000
  H   H328      1.0  0.55782  0.24670  0.12461  1.0000
  H   H329      1.0  0.54345  0.30841  0.33798  1.0000
  H   H330      1.0  0.61603  0.19716  0.27703  1.0000
  N   N30       1.0  0.69854  0.19799  0.46998  1.0000
  H   H331      1.0  0.76453  0.04698  0.10240  1.0000
  C   C320      1.0  0.50344  0.18514  0.24490  1.0000
  C   C321      1.0  0.75102  0.00078  0.10765  1.0000
  Fe  Fe55      1.0  0.77846  0.03078  0.01202  1.0000
  C   C322      1.0  0.88359  0.00378  0.02453  1.0000
  H   H332      1.0  0.50070  0.07494  0.09966  1.0000
  H   H333      1.0  0.64790  0.21842  0.45614  1.0000
  H   H334      1.0  0.86308  0.01828  0.02761  1.0000
  C   C323      1.0  0.69460  0.17869  0.48288  1.0000
  C   C324      1.0  0.97226  0.08912  0.44562  1.0000
  H   H335      1.0  0.52809  0.04951  0.09444  1.0000
  H   H336      1.0  0.91983  0.99962  0.12066  1.0000
  H   H337      1.0  0.56178  0.04565  0.05939  1.0000
  H   H338      1.0  0.52291  0.26799  0.34012  1.0000
  C   C325      1.0  0.97368  0.04271  0.38861  1.0000
  C   C326      1.0  0.51382  0.30416  0.34372  1.0000
  Fe  Fe56      1.0  0.70813  0.99663  0.00591  1.0000
  C   C327      1.0  0.50224  0.28113  0.34491  1.0000
  C   C328      1.0  0.98028  0.11109  0.43826  1.0000
  H   H339      1.0  0.72441  0.00608  0.09576  1.0000
  C   C329      1.0  0.99162  0.07107  0.36095  1.0000
  C   C330      1.0  0.50530  0.06189  0.08605  1.0000
  C   C331      1.0  0.50254  0.17535  0.20277  1.0000
  C   C332      1.0  0.50863  0.19121  0.22133  1.0000
  H   H340      1.0  0.78763  0.21828  0.49866  1.0000
  Fe  Fe57      1.0  0.97684  0.31232  0.58421  1.0000
  H   H341      1.0  0.88750  0.22852  0.59794  1.0000
  H   H342      1.0  0.83757  0.09218  0.78350  1.0000
  Fe  Fe58      1.0  0.99377  0.28726  0.84314  1.0000
  C   C333      1.0  0.94937  0.24015  0.60911  1.0000
  H   H343      1.0  0.95324  0.20383  0.53084  1.0000
  H   H344      1.0  0.85459  0.25726  0.62196  1.0000
  S   S110      1.0  0.94956  0.30605  0.81648  1.0000
  H   H345      1.0  0.94441  0.03623  0.96325  1.0000
  C   C334      1.0  0.92666  0.02222  0.96921  1.0000
  Fe  Fe59      1.0  0.95689  0.11566  0.86597  1.0000
  S   S111      1.0  0.90894  0.09179  0.84865  1.0000
  H   H346      1.0  0.91784  0.00651  0.93486  1.0000
  Fe  Fe60      1.0  0.92719  0.06786  0.87874  1.0000
  S   S112      1.0  0.87833  0.04570  0.89300  1.0000
  Fe  Fe61      1.0  0.95989  0.07545  0.83089  1.0000
  S   S113      1.0  0.94748  0.06908  0.79079  1.0000
  H   H347      1.0  0.78511  0.09533  0.84976  1.0000
  Fe  Fe62      1.0  0.87152  0.11345  0.51510  1.0000
  H   H348      1.0  0.72161  0.15744  0.51144  1.0000
  S   S114      1.0  0.89790  0.08463  0.53964  1.0000
  S   S115      1.0  0.86215  0.20046  0.52698  1.0000
  S   S116      1.0  0.82040  0.13899  0.51672  1.0000
  Fe  Fe63      1.0  0.86636  0.16586  0.50854  1.0000
  H   H349      1.0  0.95720  0.31054  0.75417  1.0000
  S   S117      1.0  0.82050  0.01796  0.61265  1.0000
  C   C335      1.0  0.95556  0.27127  0.63563  1.0000
  C   C336      1.0  0.80869  0.09622  0.81572  1.0000
  C   C337      1.0  0.87546  0.06634  0.55984  1.0000
  C   C338      1.0  0.90070  0.05007  0.57257  1.0000
  C   C339      1.0  0.88456  0.03517  0.58874  1.0000
  C   C340      1.0  0.84279  0.03634  0.59247  1.0000
  C   C341      1.0  0.81754  0.05258  0.57973  1.0000
  C   C342      1.0  0.83368  0.06747  0.56354  1.0000
  H   H350      1.0  0.93305  0.04902  0.56996  1.0000
  H   H351      1.0  0.90445  0.02285  0.59836  1.0000
  H   H352      1.0  0.78522  0.05371  0.58241  1.0000
  H   H353      1.0  0.81379  0.07983  0.55395  1.0000
  C   C343      1.0  0.86152  0.04940  0.92135  1.0000
  C   C344      1.0  0.83159  0.03463  0.92871  1.0000
  C   C345      1.0  0.81920  0.03617  0.95165  1.0000
  C   C346      1.0  0.83650  0.05263  0.96737  1.0000
  C   C347      1.0  0.86578  0.06770  0.95983  1.0000
  C   C348      1.0  0.87832  0.06609  0.93693  1.0000
  H   H354      1.0  0.81833  0.02171  0.91675  1.0000
  H   H355      1.0  0.79657  0.02451  0.95724  1.0000
  H   H356      1.0  0.87917  0.08054  0.97185  1.0000
  H   H357      1.0  0.90121  0.07763  0.93144  1.0000
  C   C349      1.0  0.93335  0.04453  0.77356  1.0000
  C   C350      1.0  0.92356  0.04683  0.74890  1.0000
  C   C351      1.0  0.91167  0.02797  0.73450  1.0000
  C   C352      1.0  0.90958  0.00645  0.74460  1.0000
  C   C353      1.0  0.91923  0.00417  0.76928  1.0000
  C   C354      1.0  0.93094  0.02305  0.78368  1.0000
  H   H358      1.0  0.92511  0.06337  0.74085  1.0000
  H   H359      1.0  0.90446  0.03005  0.71558  1.0000
  C   C355      1.0  0.91266  0.27196  0.63592  1.0000
  C   C356      1.0  0.96822  0.23675  0.54632  1.0000
  H   H360      1.0  0.92778  0.30397  0.71252  1.0000
  C   C357      1.0  0.98539  0.22254  0.84808  1.0000
  H   H361      1.0  0.79879  0.11350  0.81183  1.0000
  C   C358      1.0  0.95630  0.17928  0.86106  1.0000
  N   N31       1.0  0.97329  0.25575  0.62202  1.0000
  H   H362      1.0  0.74007  0.00689  0.62736  1.0000
  S   S118      1.0  0.91886  0.32048  0.60031  1.0000
  S   S119      1.0  0.94052  0.15287  0.87249  1.0000
  H   H363      1.0  0.93782  0.23611  0.86747  1.0000
  S   S120      1.0  0.97089  0.09275  0.89776  1.0000
  C   C359      1.0  0.95316  0.25713  0.55500  1.0000
  C   C360      1.0  0.91036  0.25991  0.55454  1.0000
  C   C361      1.0  0.88321  0.24248  0.54575  1.0000
  C   C362      1.0  0.89826  0.22206  0.53711  1.0000
  C   C363      1.0  0.94105  0.21936  0.53739  1.0000
  S   S121      1.0  0.91838  0.14069  0.50973  1.0000
  H   H364      1.0  0.89817  0.27541  0.56117  1.0000
  H   H365      1.0  0.85024  0.24486  0.54565  1.0000
  H   H366      1.0  0.97159  0.10058  0.51597  1.0000
  C   C364      1.0  0.80096  0.08604  0.83697  1.0000
  H   H367      1.0  0.96333  0.22790  0.59821  1.0000
  N   N32       1.0  0.83655  0.05249  0.82637  1.0000
  C   C365      1.0  0.81534  0.06406  0.84209  1.0000
  C   C366      1.0  0.84397  0.06231  0.80544  1.0000
  C   C367      1.0  0.88794  0.25655  0.62229  1.0000
  H   H368      1.0  0.88720  0.03229  0.84012  1.0000
  C   C368      1.0  0.96882  0.31997  0.73998  1.0000
  C   C369      1.0  0.85439  0.03023  0.83270  1.0000
  H   H369      1.0  0.81042  0.05657  0.85900  1.0000
  H   H370      1.0  0.85301  0.01900  0.81696  1.0000
  C   C370      1.0  0.90636  0.24041  0.60891  1.0000
  C   C371      1.0  0.98873  0.18094  0.84689  1.0000
  H   H371      1.0  0.91249  0.19839  0.87894  1.0000
  H   H372      1.0  0.97455  0.28348  0.64608  1.0000
  C   C372      1.0  0.91671  0.02142  0.99255  1.0000
  H   H373      1.0  0.83777  0.02173  0.84633  1.0000
  C   C373      1.0  0.93770  0.19939  0.86804  1.0000
  S   S122      1.0  0.98911  0.27778  0.56765  1.0000
  H   H374      1.0  0.86147  0.05336  0.79321  1.0000
  S   S123      1.0  0.97587  0.05012  0.86009  1.0000
  S   S124      1.0  0.98056  0.30980  0.87375  1.0000
  C   C374      1.0  0.91167  0.00551  0.95325  1.0000
  C   C375      1.0  0.83029  0.08429  0.79980  1.0000
  H   H375      1.0  0.89877  0.28469  0.64635  1.0000
  H   H376      1.0  0.93846  0.02093  0.80258  1.0000
  S   S125      1.0  0.94455  0.32259  0.66790  1.0000
  C   C376      1.0  0.95204  0.22087  0.86159  1.0000
  H   H377      1.0  0.96484  0.05940  0.52057  1.0000
  C   C377      1.0  0.95227  0.31621  0.71628  1.0000
  S   S126      1.0  0.82456  0.05407  0.99699  1.0000
  H   H378      1.0  0.78029  0.18360  0.52237  1.0000
  C   C378      1.0  0.99007  0.06617  0.51166  1.0000
  N   N33       1.0  0.89329  0.00414  0.99992  1.0000
  H   H379      1.0  0.98691  0.18718  0.91174  1.0000
  C   C379      1.0  0.99394  0.08956  0.50891  1.0000
  C   C380      1.0  0.75728  0.18766  0.50769  1.0000
  C   C381      1.0  0.72402  0.17317  0.50181  1.0000
  C   C382      1.0  0.65024  0.41285  0.37579  1.0000
  H   H380      1.0  0.74351  0.61965  0.48704  1.0000
  Fe  Fe64      1.0  0.74327  0.50559  0.48036  1.0000
  S   S127      1.0  0.71327  0.49536  0.44369  1.0000
  Fe  Fe65      1.0  0.50688  0.42601  0.38785  1.0000
  C   C383      1.0  0.53601  0.48543  0.45856  1.0000
  C   C384      1.0  0.52371  0.60908  0.10093  1.0000
  H   H381      1.0  0.52005  0.47764  0.44282  1.0000
  S   S128      1.0  0.55289  0.43412  0.42013  1.0000
  C   C385      1.0  0.50964  0.53471  0.18097  1.0000
  Fe  Fe66      1.0  0.62190  0.61952  0.05911  1.0000
  S   S129      1.0  0.67661  0.60484  0.04290  1.0000
  S   S130      1.0  0.58721  0.59139  0.07686  1.0000
  H   H382      1.0  0.61826  0.56482  0.04144  1.0000
  Fe  Fe67      1.0  0.64993  0.62177  0.00939  1.0000
  C   C386      1.0  0.76603  0.60767  0.49635  1.0000
  Fe  Fe68      1.0  0.70981  0.63768  0.05264  1.0000
  H   H383      1.0  0.66404  0.53186  0.03853  1.0000
  S   S131      1.0  0.59418  0.63548  0.02502  1.0000
  S   S132      1.0  0.95516  0.61738  0.43042  1.0000
  C   C387      1.0  0.90301  0.60251  0.49103  1.0000
  H   H384      1.0  0.66963  0.42493  0.36780  1.0000
  S   S133      1.0  0.65728  0.65123  0.07127  1.0000
  C   C388      1.0  0.63962  0.53535  0.02442  1.0000
  S   S134      1.0  0.51275  0.41651  0.34985  1.0000
  C   C389      1.0  0.62418  0.39847  0.36161  1.0000
  H   H385      1.0  0.92196  0.43326  0.49632  1.0000
  C   C390      1.0  0.63078  0.52029  0.47515  1.0000
  H   H386      1.0  0.76569  0.59154  0.48630  1.0000
  S   S135      1.0  0.78018  0.63962  0.06404  1.0000
  C   C391      1.0  0.54235  0.58989  0.09231  1.0000
  C   C392      1.0  0.61373  0.55410  0.02591  1.0000
  H   H387      1.0  0.55929  0.58592  0.02760  1.0000
  C   C393      1.0  0.85780  0.64562  0.08843  1.0000
  H   H388      1.0  0.52445  0.52207  0.17092  1.0000
  H   H389      1.0  0.53614  0.62566  0.09788  1.0000
  C   C394      1.0  0.59879  0.38335  0.37225  1.0000
  N   N34       1.0  0.59248  0.50769  0.47682  1.0000
  C   C395      1.0  0.87639  0.58441  0.48401  1.0000
  H   H390      1.0  0.58232  0.50087  0.43975  1.0000
  C   C396      1.0  0.92716  0.61292  0.47491  1.0000
  C   C397      1.0  0.92487  0.60535  0.45148  1.0000
  C   C398      1.0  0.89815  0.58730  0.44446  1.0000
  C   C399      1.0  0.87412  0.57683  0.46061  1.0000
  H   H391      1.0  0.54756  0.35994  0.39424  1.0000
  H   H392      1.0  0.94741  0.62682  0.48058  1.0000
  H   H393      1.0  0.89607  0.58132  0.42638  1.0000
  H   H394      1.0  0.85375  0.56298  0.45489  1.0000
  C   C400      1.0  0.66906  0.47801  0.43731  1.0000
  C   C401      1.0  0.65398  0.46446  0.45462  1.0000
  C   C402      1.0  0.61865  0.45100  0.44886  1.0000
  C   C403      1.0  0.59764  0.45113  0.42587  1.0000
  C   C404      1.0  0.61276  0.46459  0.40850  1.0000
  C   C405      1.0  0.64847  0.47784  0.41420  1.0000
  H   H395      1.0  0.66971  0.46422  0.47240  1.0000
  H   H396      1.0  0.60729  0.44057  0.46242  1.0000
  H   H397      1.0  0.59702  0.46478  0.39072  1.0000
  H   H398      1.0  0.66004  0.48821  0.40066  1.0000
  H   H399      1.0  0.52413  0.57452  0.00426  1.0000
  N   N35       1.0  0.58351  0.55897  0.00794  1.0000
  H   H400      1.0  0.86881  0.63757  0.07321  1.0000
  H   H401      1.0  0.91936  0.64980  0.10676  1.0000
  C   C406      1.0  0.88668  0.65259  0.10749  1.0000
  S   S136      1.0  0.73407  0.54212  0.48984  1.0000
  H   H402      1.0  0.65766  0.50937  0.48115  1.0000
  C   C407      1.0  0.50920  0.55735  0.17401  1.0000
  H   H403      1.0  0.59023  0.35304  0.41597  1.0000
  C   C408      1.0  0.52220  0.48182  0.48065  1.0000
  H   H404      1.0  0.67058  0.42317  0.41157  1.0000
  N   N36       1.0  0.59884  0.38287  0.39633  1.0000
  S   S137      1.0  0.50372  0.35054  0.34746  1.0000
  H   H405      1.0  0.49494  0.47155  0.48210  1.0000
  H   H406      1.0  0.65490  0.50730  0.00266  1.0000
  H   H407      1.0  0.57858  0.37228  0.36107  1.0000
  C   C409      1.0  0.57132  0.49857  0.45694  1.0000
  H   H408      1.0  0.62439  0.39652  0.42945  1.0000
  C   C410      1.0  0.55703  0.57890  0.00935  1.0000
  H   H409      1.0  0.62317  0.39914  0.34247  1.0000
  C   C411      1.0  0.65092  0.41181  0.40035  1.0000
  S   S138      1.0  0.81229  0.50681  0.49159  1.0000
  C   C412      1.0  0.62483  0.39663  0.41038  1.0000
  H   H410      1.0  0.79739  0.61512  0.49626  1.0000
  H   H411      1.0  0.63194  0.53565  0.48647  1.0000
  C   C413      1.0  0.81491  0.64864  0.08899  1.0000
  C   C414      1.0  0.57182  0.36720  0.40740  1.0000
  H   H412      1.0  0.52362  0.56251  0.15851  1.0000
  S   S139      1.0  0.68702  0.65360  0.01735  1.0000
  C   C415      1.0  0.63433  0.52153  0.00443  1.0000
  H   H413      1.0  0.55555  0.37623  0.42086  1.0000
  H   H414      1.0  0.98136  0.56891  0.46867  1.0000
  H   H415      1.0  0.63410  0.52568  0.45670  1.0000
  C   C416      1.0  0.57941  0.50407  0.49859  1.0000
  C   C417      1.0  0.52572  0.56847  0.09667  1.0000
  H   H416      1.0  0.53990  0.55348  0.09018  1.0000
  H   H417      1.0  0.99176  0.64283  0.30134  1.0000
  S   S140      1.0  0.78736  0.53166  0.54003  1.0000
  S   S141      1.0  0.72723  0.49173  0.51512  1.0000
  Fe  Fe69      1.0  0.72115  0.52833  0.52517  1.0000
  S   S142      1.0  0.66207  0.54129  0.53863  1.0000
  H   H418      1.0  0.81889  0.60503  0.53594  1.0000
  Fe  Fe70      1.0  0.70681  0.44650  0.87824  1.0000
  S   S143      1.0  0.65060  0.44431  0.85138  1.0000
  S   S144      1.0  0.77003  0.42792  0.88067  1.0000
  Fe  Fe71      1.0  0.66680  0.48558  0.90524  1.0000
  S   S145      1.0  0.60812  0.48579  0.88025  1.0000
  S   S146      1.0  0.68314  0.50669  0.93873  1.0000
  Fe  Fe72      1.0  0.61293  0.44764  0.88268  1.0000
  S   S147      1.0  0.55933  0.42298  0.88557  1.0000
  Fe  Fe73      1.0  0.64973  0.48260  0.85097  1.0000
  S   S148      1.0  0.65340  0.50656  0.81925  1.0000
  S   S149      1.0  0.66916  0.44762  0.90937  1.0000
  S   S150      1.0  0.70824  0.48458  0.87620  1.0000
  S   S151      1.0  0.95877  0.36980  0.61580  1.0000
  C   C418      1.0  0.61910  0.57006  0.81714  1.0000
  Fe  Fe74      1.0  0.92309  0.35482  0.58352  1.0000
  S   S152      1.0  0.86824  0.36997  0.56068  1.0000
  C   C419      1.0  0.56800  0.55110  0.83768  1.0000
  Fe  Fe75      1.0  0.93970  0.33025  0.84643  1.0000
  H   H419      1.0  0.68227  0.55819  0.88364  1.0000
  S   S153      1.0  0.87191  0.34221  0.84702  1.0000
  C   C420      1.0  0.94074  0.38087  0.78876  1.0000
  Fe  Fe76      1.0  0.58936  0.58136  0.65955  1.0000
  S   S154      1.0  0.54336  0.60712  0.64378  1.0000
  S   S155      1.0  0.64943  0.57068  0.64550  1.0000
  Fe  Fe77      1.0  0.53990  0.56981  0.70069  1.0000
  C   C421      1.0  0.78689  0.60243  0.53896  1.0000
  S   S156      1.0  0.53191  0.54694  0.73277  1.0000
  H   H420      1.0  0.94411  0.39527  0.53190  1.0000
  Fe  Fe78      1.0  0.54003  0.61906  0.68123  1.0000
  S   S157      1.0  0.54211  0.55462  0.66442  1.0000
  S   S158      1.0  0.59027  0.59508  0.69680  1.0000
  H   H421      1.0  0.72904  0.59073  0.58383  1.0000
  H   H422      1.0  0.64567  0.52467  0.71431  1.0000
  H   H423      1.0  0.55216  0.44592  0.93093  1.0000
  H   H424      1.0  0.90503  0.60854  0.50908  1.0000
  N   N37       1.0  0.87942  0.35813  0.78734  1.0000
  C   C422      1.0  0.61911  0.51677  0.79487  1.0000
  C   C423      1.0  0.63478  0.53127  0.77827  1.0000
  C   C424      1.0  0.60864  0.54090  0.75939  1.0000
  C   C425      1.0  0.56636  0.53598  0.75669  1.0000
  C   C426      1.0  0.55075  0.52134  0.77315  1.0000
  C   C427      1.0  0.57685  0.51180  0.79212  1.0000
  H   H425      1.0  0.66740  0.53526  0.78019  1.0000
  H   H426      1.0  0.62119  0.55213  0.74694  1.0000
  H   H427      1.0  0.51815  0.51727  0.77119  1.0000
  H   H428      1.0  0.56423  0.50069  0.80465  1.0000
  C   C428      1.0  0.52833  0.41817  0.90917  1.0000
  C   C429      1.0  0.97519  0.45043  0.56541  1.0000
  C   C430      1.0  0.67214  0.54360  0.87216  1.0000
  C   C431      1.0  0.79798  0.40438  0.87022  1.0000
  C   C432      1.0  0.84078  0.40246  0.87721  1.0000
  C   C433      1.0  0.86405  0.38384  0.87017  1.0000
  C   C434      1.0  0.84467  0.36648  0.85639  1.0000
  C   C435      1.0  0.80187  0.36840  0.84938  1.0000
  C   C436      1.0  0.77884  0.38730  0.85589  1.0000
  H   H429      1.0  0.85616  0.41549  0.88825  1.0000
  H   H430      1.0  0.89684  0.38275  0.87576  1.0000
  H   H431      1.0  0.78636  0.35517  0.83870  1.0000
  H   H432      1.0  0.74623  0.38852  0.84992  1.0000
  C   C437      1.0  0.67137  0.53485  0.94674  1.0000
  C   C438      1.0  0.69197  0.54397  0.96765  1.0000
  S   S159      1.0  0.99156  0.35305  0.83838  1.0000
  C   C439      1.0  0.65040  0.57828  0.96318  1.0000
  C   C440      1.0  0.63033  0.56938  0.94200  1.0000
  C   C441      1.0  0.64047  0.54772  0.93389  1.0000
  H   H433      1.0  0.53472  0.48762  0.69261  1.0000
  H   H434      1.0  0.60632  0.57919  0.93200  1.0000
  H   H435      1.0  0.62382  0.54082  0.91804  1.0000
  C   C442      1.0  0.65877  0.54857  0.56862  1.0000
  C   C443      1.0  0.69266  0.54646  0.58585  1.0000
  C   C444      1.0  0.68944  0.55354  0.60926  1.0000
  C   C445      1.0  0.65232  0.56264  0.61569  1.0000
  C   C446      1.0  0.61832  0.56454  0.59849  1.0000
  C   C447      1.0  0.62161  0.55757  0.57507  1.0000
  H   H436      1.0  0.72146  0.53954  0.58113  1.0000
  H   H437      1.0  0.71585  0.55188  0.62248  1.0000
  H   H438      1.0  0.58953  0.57148  0.60322  1.0000
  H   H439      1.0  0.59523  0.55934  0.56185  1.0000
  C   C448      1.0  0.84239  0.44625  0.55685  1.0000
  C   C449      1.0  0.87111  0.43740  0.57477  1.0000
  C   C450      1.0  0.87859  0.41400  0.57653  1.0000
  C   C451      1.0  0.85695  0.39921  0.56054  1.0000
  C   C452      1.0  0.82678  0.40794  0.54331  1.0000
  C   C453      1.0  0.81958  0.43142  0.54138  1.0000
  H   H440      1.0  0.90150  0.40744  0.59004  1.0000
  H   H441      1.0  0.80967  0.39653  0.53101  1.0000
  H   H442      1.0  0.79725  0.43805  0.52759  1.0000
  H   H443      1.0  0.59668  0.51102  0.51439  1.0000
  H   H444      1.0  0.53636  0.54575  0.83860  1.0000
  N   N38       1.0  0.60469  0.50987  0.65917  1.0000
  C   C454      1.0  0.63146  0.51930  0.67668  1.0000
  C   C455      1.0  0.57021  0.49866  0.66465  1.0000
  H   H445      1.0  0.53359  0.48843  0.51811  1.0000
  H   H446      1.0  0.88638  0.41596  0.51088  1.0000
  Fe  Fe79      1.0  0.96018  0.33466  0.63141  1.0000
  C   C456      1.0  0.61112  0.51319  0.63428  1.0000
  H   H447      1.0  0.80222  0.59687  0.57648  1.0000
  H   H448      1.0  0.54805  0.49205  0.65073  1.0000
  H   H449      1.0  0.69182  0.59893  0.50959  1.0000
  C   C457      1.0  0.64958  0.56324  0.83505  1.0000
  H   H450      1.0  0.76770  0.39296  0.92040  1.0000
  H   H451      1.0  0.49790  0.38927  0.89199  1.0000
  C   C458      1.0  0.92185  0.39751  0.80128  1.0000
  H   H452      1.0  0.60033  0.51649  0.97017  1.0000
  H   H453      1.0  0.71593  0.53418  0.97773  1.0000
  C   C459      1.0  0.60357  0.52668  0.98616  1.0000
  H   H454      1.0  0.60716  0.38935  0.94087  1.0000
  H   H455      1.0  0.82949  0.37184  0.80408  1.0000
  N   N39       1.0  0.63945  0.55059  0.85375  1.0000
  C   C460      1.0  0.91906  0.36108  0.78211  1.0000
  C   C461      1.0  0.70565  0.59498  0.54714  1.0000
  C   C462      1.0  0.88142  0.39434  0.80664  1.0000
  H   H456      1.0  0.64493  0.37864  0.87172  1.0000
  C   C463      1.0  0.65257  0.38251  0.89034  1.0000
  H   H457      1.0  0.88853  0.44877  0.58696  1.0000
  H   H458      1.0  0.59107  0.53482  0.87023  1.0000
  H   H459      1.0  0.59015  0.37828  0.89891  1.0000
  H   H460      1.0  0.59256  0.52791  0.62702  1.0000
  C   C464      1.0  0.56243  0.49612  0.68825  1.0000
  H   H461      1.0  0.88349  0.44605  0.51286  1.0000
  S   S160      1.0  0.63529  0.60531  0.97295  1.0000
  H   H462      1.0  0.64415  0.51658  0.63225  1.0000
  C   C465      1.0  0.94604  0.45067  0.54538  1.0000
  C   C466      1.0  0.71604  0.59914  0.52429  1.0000
  H   H463      1.0  0.69897  0.53666  0.86393  1.0000
  N   N40       1.0  0.75614  0.60325  0.52051  1.0000
  C   C467      1.0  0.53073  0.43190  0.92931  1.0000
  H   H464      1.0  0.62740  0.57936  0.80189  1.0000
  C   C468      1.0  0.90539  0.43162  0.51229  1.0000
  C   C469      1.0  0.73671  0.59432  0.56608  1.0000
  C   C470      1.0  0.77768  0.59787  0.56198  1.0000
  Fe  Fe80      1.0  0.79520  0.49599  0.52730  1.0000
  C   C471      1.0  0.98259  0.41015  0.56081  1.0000
  Fe  Fe81      1.0  0.80153  0.54231  0.50371  1.0000
  H   H465      1.0  0.58415  0.50348  0.72456  1.0000
  C   C472      1.0  0.68136  0.56546  0.97596  1.0000
  S   S161      1.0  0.84628  0.57233  0.50513  1.0000
  N   N41       1.0  0.70247  0.39377  0.92248  1.0000
  C   C473      1.0  0.67221  0.39427  0.93742  1.0000
  C   C474      1.0  0.69296  0.38835  0.89912  1.0000
  C   C475      1.0  0.63145  0.38852  0.92923  1.0000
  C   C476      1.0  0.74468  0.40067  0.93114  1.0000
  H   H466      1.0  0.67933  0.39950  0.95569  1.0000
  C   C477      1.0  0.57814  0.56375  0.81840  1.0000
  S   S162      1.0  0.97901  0.34591  0.56534  1.0000
  H   H467      1.0  0.75299  0.39535  0.94980  1.0000
  H   H468      1.0  0.74754  0.41936  0.92979  1.0000
  H   H469      1.0  0.69726  0.57212  0.99219  1.0000
  H   H470      1.0  0.65788  0.52901  0.67229  1.0000
  H   H471      1.0  0.60190  0.49795  0.62358  1.0000
  H   H472      1.0  0.93115  0.46654  0.53980  1.0000
  C   C478      1.0  0.62182  0.38234  0.90560  1.0000
  H   H473      1.0  0.55452  0.56809  0.80409  1.0000
  H   H474      1.0  0.86667  0.40685  0.81691  1.0000
  C   C479      1.0  0.59008  0.50519  0.70622  1.0000
  S   S163      1.0  0.83948  0.47590  0.55315  1.0000
  C   C480      1.0  0.86047  0.37449  0.79932  1.0000
  H   H475      1.0  0.93872  0.41266  0.80712  1.0000
  C   C481      1.0  0.95315  0.41093  0.54098  1.0000
  H   H476      1.0  0.67378  0.59177  0.55007  1.0000
  C   C482      1.0  0.62468  0.51700  0.70046  1.0000
  C   C483      1.0  0.59918  0.54479  0.85542  1.0000
  H   H477      1.0  0.66169  0.52993  0.88355  1.0000
  C   C484      1.0  0.99357  0.42999  0.57311  1.0000
  H   H478      1.0  0.98301  0.46593  0.57504  1.0000
  H   H479      1.0  0.68157  0.56750  0.83354  1.0000
  H   H480      1.0  0.71654  0.38886  0.88709  1.0000
  C   C485      1.0  0.85804  0.33671  0.78158  1.0000
  H   H481      1.0  0.55589  0.55019  0.97343  1.0000
  C   C486      1.0  0.50014  0.40002  0.90747  1.0000
  N   N42       1.0  0.93515  0.43102  0.53359  1.0000
  C   C487      1.0  0.96721  0.32801  0.69741  1.0000
  H   H482      1.0  0.82476  0.33966  0.77585  1.0000
  H   H483      1.0  0.93434  0.34798  0.77302  1.0000
  H   H484      1.0  0.97239  0.38289  0.78471  1.0000
  S   S164      1.0  0.53115  0.65532  0.69526  1.0000
  C   C488      1.0  0.57861  0.54574  0.98810  1.0000
  Fe  Fe82      1.0  0.49563  0.58092  0.65088  1.0000
  H   H485      1.0  0.50623  0.43886  0.96241  1.0000
  C   C489      1.0  0.50457  0.42784  0.94716  1.0000
  H   H486      1.0  0.56638  0.59232  0.99733  1.0000
  H   H487      1.0  0.87140  0.32766  0.76703  1.0000
  C   C490      1.0  0.54392  0.49124  0.50082  1.0000
  H   H488      1.0  0.86087  0.32562  0.79751  1.0000
  H   H489      1.0  0.69810  0.70237  0.07015  1.0000
  C   C491      1.0  0.70911  0.72070  0.02908  1.0000
  S   S165      1.0  0.61459  0.70361  0.03410  1.0000
  H   H490      1.0  0.96074  0.74966  0.17489  1.0000
  H   H491      1.0  0.91078  0.71901  0.13999  1.0000
  S   S166      1.0  0.96495  0.96434  0.14683  1.0000
  C   C492      1.0  0.58992  0.93133  0.01171  1.0000
  C   C493      1.0  0.95018  0.71069  0.11333  1.0000
  S   S167      1.0  0.71080  0.99055  0.04493  1.0000
  C   C494      1.0  0.90934  0.98372  0.11276  1.0000
  H   H492      1.0  0.78189  0.68042  0.03896  1.0000
  C   C495      1.0  0.83031  0.66613  0.12792  1.0000
  C   C496      1.0  0.59906  0.74540  0.01318  1.0000
  C   C497      1.0  0.81931  0.98693  0.13769  1.0000
  N   N43       1.0  0.95829  0.74358  0.13819  1.0000
  H   H493      1.0  0.92496  0.71695  0.38086  1.0000
  H   H494      1.0  0.91163  0.75634  0.15833  1.0000
  Fe  Fe83      1.0  0.97546  0.67612  0.16986  1.0000
  H   H495      1.0  0.60512  0.75195  0.03100  1.0000
  S   S168      1.0  0.81945  0.96168  0.06225  1.0000
  H   H496      1.0  0.86764  0.98793  0.02890  1.0000
  C   C498      1.0  0.92731  0.96337  0.12180  1.0000
  C   C499      1.0  0.91357  0.94292  0.11145  1.0000
  C   C500      1.0  0.88127  0.94281  0.09279  1.0000
  C   C501      1.0  0.86262  0.96309  0.08413  1.0000
  H   H497      1.0  0.74053  0.68316  0.07133  1.0000
  H   H498      1.0  0.61331  0.94298  0.01948  1.0000
  H   H499      1.0  0.92694  0.92714  0.11827  1.0000
  C   C502      1.0  0.98520  0.71678  0.10269  1.0000
  H   H500      1.0  0.76867  0.66133  0.10992  1.0000
  C   C503      1.0  0.98823  0.72506  0.37668  1.0000
  C   C504      1.0  0.87733  0.98363  0.09391  1.0000
  C   C505      1.0  0.79707  0.97106  0.12333  1.0000
  Fe  Fe84      1.0  0.77998  0.99025  0.04491  1.0000
  C   C506      1.0  0.73070  0.70066  0.06613  1.0000
  C   C507      1.0  0.76281  0.97799  0.10814  1.0000
  H   H501      1.0  0.80725  0.95355  0.12334  1.0000
  C   C508      1.0  0.60186  0.72192  0.00934  1.0000
  N   N44       1.0  0.73372  0.70467  0.04092  1.0000
  C   C509      1.0  0.76369  0.69585  0.00520  1.0000
  H   H502      1.0  0.84676  0.98174  0.14903  1.0000
  C   C510      1.0  0.99263  0.74972  0.12782  1.0000
  C   C511      1.0  0.87319  0.66293  0.12745  1.0000
  H   H503      1.0  0.95494  0.77482  0.15680  1.0000
  H   H504      1.0  0.74624  0.96588  0.09631  1.0000
  H   H505      1.0  0.93024  0.73046  0.42262  1.0000
  H   H506      1.0  0.93379  0.69516  0.10830  1.0000
  C   C512      1.0  0.93728  0.72427  0.13129  1.0000
  H   H507      1.0  0.50568  0.75322  0.01163  1.0000
  C   C513      1.0  0.94567  0.75678  0.15800  1.0000
  C   C514      1.0  0.76172  0.69281  0.02948  1.0000
  H   H508      1.0  0.87010  0.92684  0.08533  1.0000
  H   H509      1.0  0.98124  0.81294  0.21143  1.0000
  H   H510      1.0  0.81930  0.67398  0.14325  1.0000
  C   C515      1.0  0.56715  0.89289  0.00454  1.0000
  H   H511      1.0  0.62355  0.90187  0.02579  1.0000
  H   H512      1.0  0.68747  0.73043  0.03825  1.0000
  C   C516      1.0  0.59585  0.90810  0.01546  1.0000
  H   H513      1.0  0.75048  0.71281  0.07704  1.0000
  Fe  Fe85      1.0  0.63329  0.66603  0.03543  1.0000
  S   S169      1.0  0.90820  0.67267  0.15195  1.0000
  S   S170      1.0  0.97968  0.70185  0.19950  1.0000
  C   C517      1.0  0.95362  0.72412  0.38913  1.0000
  H   H514      1.0  0.70904  0.94339  0.00186  1.0000
  H   H515      1.0  0.57237  0.87482  0.00651  1.0000
  C   C518      1.0  0.71003  0.72410  0.00478  1.0000
  H   H516      1.0  0.98695  0.71842  0.35879  1.0000
  C   C519      1.0  0.95656  0.73171  0.41251  1.0000
  C   C520      1.0  0.80140  0.65899  0.10895  1.0000
  H   H517      1.0  0.52285  0.96969  0.00033  1.0000
  H   H518      1.0  0.57801  0.97341  0.00062  1.0000
  Fe  Fe86      1.0  0.82979  0.94178  0.65456  1.0000
  S   S171      1.0  0.89211  0.93933  0.67624  1.0000
  S   S172      1.0  0.78376  0.91178  0.64964  1.0000
  Fe  Fe87      1.0  0.88113  0.97537  0.68746  1.0000
  Fe  Fe88      1.0  0.91948  0.95441  0.64504  1.0000
  C   C521      1.0  0.75114  0.93723  0.59206  1.0000
  S   S173      1.0  0.85831  0.95450  0.62222  1.0000
  Fe  Fe89      1.0  0.55284  0.80870  0.94250  1.0000
  S   S174      1.0  0.59525  0.82942  0.92207  1.0000
  S   S175      1.0  0.56090  0.77014  0.94680  1.0000
  C   C522      1.0  0.74573  0.97470  0.61008  1.0000
  S   S176      1.0  0.53434  0.87334  0.92903  1.0000
  Fe  Fe90      1.0  0.53748  0.84458  0.90279  1.0000
  H   H519      1.0  0.59004  0.89204  0.73341  1.0000
  Fe  Fe91      1.0  0.58874  0.85636  0.94954  1.0000
  S   S177      1.0  0.64373  0.87360  0.97001  1.0000
  H   H520      1.0  0.91788  0.98761  0.77730  1.0000
  S   S178      1.0  0.55030  0.83457  0.97115  1.0000
  H   H521      1.0  0.76622  0.98145  0.59796  1.0000
  S   S179      1.0  0.54093  0.82236  0.66144  1.0000
  Fe  Fe92      1.0  0.54354  0.81204  0.72969  1.0000
  S   S180      1.0  0.59937  0.80804  0.70990  1.0000
  C   C523      1.0  0.52283  0.83563  0.79379  1.0000
  Fe  Fe93      1.0  0.57972  0.84059  0.69125  1.0000
  S   S181      1.0  0.62341  0.87170  0.69323  1.0000
  Fe  Fe94      1.0  0.55647  0.79007  0.68224  1.0000
  S   S182      1.0  0.57177  0.75667  0.66464  1.0000
  H   H522      1.0  0.60586  0.86753  0.82692  1.0000
  C   C524      1.0  0.53257  0.90102  0.99040  1.0000
  C   C525      1.0  0.55903  0.72863  0.67295  1.0000
  C   C526      1.0  0.53482  0.72431  0.69136  1.0000
  C   C527      1.0  0.68513  0.93635  0.98928  1.0000
  C   C528      1.0  0.54108  0.68327  0.68541  1.0000
  C   C529      1.0  0.56475  0.68762  0.66677  1.0000
  C   C530      1.0  0.57357  0.71013  0.66059  1.0000
  H   H523      1.0  0.56482  0.81005  0.85490  1.0000
  C   C531      1.0  0.60340  0.74979  0.73753  1.0000
  H   H524      1.0  0.57673  0.67361  0.65732  1.0000
  H   H525      1.0  0.59220  0.71321  0.64626  1.0000
  C   C532      1.0  0.57909  0.75231  0.97115  1.0000
  S   S183      1.0  0.52520  0.85367  0.86327  1.0000
  H   H526      1.0  0.57554  0.72225  0.94956  1.0000
  C   C533      1.0  0.73730  0.71143  0.99276  1.0000
  S   S184      1.0  0.55535  0.80072  0.76839  1.0000
  C   C534      1.0  0.55688  0.74079  0.76712  1.0000
  C   C535      1.0  0.55289  0.81720  0.83798  1.0000
  C   C536      1.0  0.55918  0.80593  0.81675  1.0000
  C   C537      1.0  0.54450  0.81514  0.79454  1.0000
  C   C538      1.0  0.62672  0.94132  0.95957  1.0000
  C   C539      1.0  0.59081  0.71113  0.74562  1.0000
  H   H527      1.0  0.57387  0.75164  0.78090  1.0000
  H   H528      1.0  0.70253  0.90170  0.99728  1.0000
  C   C540      1.0  0.53164  0.83784  0.83725  1.0000
  H   H529      1.0  0.73778  0.71361  0.97382  1.0000
  C   C541      1.0  0.58239  0.72887  0.96730  1.0000
  C   C542      1.0  0.74022  0.90058  0.66283  1.0000
  C   C543      1.0  0.72209  0.91176  0.68084  1.0000
  C   C544      1.0  0.68663  0.90266  0.68981  1.0000
  C   C545      1.0  0.66865  0.88216  0.68113  1.0000
  C   C546      1.0  0.68685  0.87097  0.66316  1.0000
  C   C547      1.0  0.72211  0.88016  0.65406  1.0000
  H   H530      1.0  0.73536  0.92745  0.68786  1.0000
  H   H531      1.0  0.67310  0.91156  0.70370  1.0000
  H   H532      1.0  0.67368  0.85526  0.65616  1.0000
  H   H533      1.0  0.73557  0.87128  0.64012  1.0000
  C   C548      1.0  0.64975  0.90331  0.97089  1.0000
  Fe  Fe95      1.0  0.85002  0.98955  0.63646  1.0000
  C   C549      1.0  0.59401  0.71379  0.98619  1.0000
  C   C550      1.0  0.70884  0.94395  0.62450  1.0000
  H   H534      1.0  0.96399  0.90008  0.55719  1.0000
  C   C551      1.0  0.52756  0.92436  0.98704  1.0000
  C   C552      1.0  0.73082  0.98923  0.62663  1.0000
  N   N45       1.0  0.59513  0.87663  0.76768  1.0000
  C   C553      1.0  0.59162  0.88013  0.79119  1.0000
  C   C554      1.0  0.61546  0.85800  0.76053  1.0000
  C   C555      1.0  0.60968  0.86505  0.80832  1.0000
  C   C556      1.0  0.63354  0.84247  0.77717  1.0000
  C   C557      1.0  0.63063  0.84608  0.80121  1.0000
  H   H535      1.0  0.51021  0.88929  0.98176  1.0000
  H   H536      1.0  0.57411  0.89438  0.79684  1.0000
  H   H537      1.0  0.61997  0.68653  0.72467  1.0000
  H   H538      1.0  0.64861  0.82741  0.77138  1.0000
  H   H539      1.0  0.51113  0.84288  0.77689  1.0000
  C   C558      1.0  0.62900  0.74363  0.72034  1.0000
  H   H540      1.0  0.60557  0.95234  0.94895  1.0000
  C   C559      1.0  0.65754  0.95071  0.97588  1.0000
  H   H541      1.0  0.59836  0.91065  0.94488  1.0000
  H   H542      1.0  0.61741  0.85492  0.74185  1.0000
  H   H543      1.0  0.59605  0.69581  0.98287  1.0000
  S   S185      1.0  0.52500  0.84528  0.71245  1.0000
  H   H544      1.0  0.57573  0.90984  0.75660  1.0000
  C   C560      1.0  0.62261  0.91770  0.95719  1.0000
  C   C561      1.0  0.99093  0.91021  0.55470  1.0000
  C   C562      1.0  0.57464  0.89216  0.74997  1.0000
  H   H545      1.0  0.54369  0.72623  0.77610  1.0000
  C   C563      1.0  0.69374  0.95792  0.64146  1.0000
  S   S186      1.0  0.98426  0.94829  0.63360  1.0000
  H   H546      1.0  0.54189  0.88703  0.74553  1.0000
  H   H547      1.0  0.50086  0.93056  0.97578  1.0000
  H   H548      1.0  0.57593  0.79009  0.81761  1.0000
  N   N46       1.0  0.58456  0.73363  0.74981  1.0000
  H   H549      1.0  0.95827  0.90125  0.62310  1.0000
  H   H550      1.0  0.67404  0.95095  0.65389  1.0000
  C   C564      1.0  0.61641  0.70436  0.72864  1.0000
  C   C565      1.0  0.87828  0.98770  0.98436  1.0000
  S   S187      1.0  0.81736  0.97696  0.66731  1.0000
  C   C566      1.0  0.52582  0.70180  0.69744  1.0000
  C   C567      1.0  0.55088  0.96345  0.99284  1.0000
  H   H551      1.0  0.69408  0.99168  0.65585  1.0000
  H   H552      1.0  0.59803  0.76758  0.74075  1.0000
  S   S188      1.0  0.50224  0.79205  0.70302  1.0000
  H   H553      1.0  0.53086  0.75093  0.75818  1.0000
  H   H554      1.0  0.64333  0.83381  0.81426  1.0000
  H   H555      1.0  0.52307  0.73828  0.70092  1.0000
  H   H556      1.0  0.57517  0.69823  0.75488  1.0000
  H   H557      1.0  0.75740  0.92006  0.59972  1.0000
  C   C568      1.0  0.63545  0.72076  0.71588  1.0000
  C   C569      1.0  0.68135  0.91274  0.98668  1.0000
  H   H558      1.0  0.64257  0.75650  0.70994  1.0000
  S   S189      1.0  0.65849  0.98029  0.98032  1.0000
  H   H559      1.0  0.68903  0.73614  0.99530  1.0000
  S   S190      1.0  0.91240  0.99035  0.65769  1.0000
  H   H560      1.0  0.70041  0.92619  0.62395  1.0000
  H   H561      1.0  0.96553  0.94764  0.71390  1.0000
  H   H562      1.0  0.65399  0.71577  0.70198  1.0000
  N   N47       1.0  0.73532  0.95228  0.60950  1.0000
  H   H563      1.0  0.72831  0.93591  0.57615  1.0000
  H   H564      1.0  0.78097  0.94349  0.58675  1.0000
  H   H565      1.0  0.50734  0.69868  0.71182  1.0000
  H   H566      1.0  0.78492  0.68579  0.99607  1.0000
  H   H567      1.0  0.96904  0.93972  0.57185  1.0000
  H   H568      1.0  0.98736  0.94637  0.68633  1.0000
  H   H569      1.0  0.50215  0.78478  0.63004  1.0000
  C   C570      1.0  0.70502  0.98069  0.64257  1.0000
  S   S191      1.0  0.89735  0.98170  0.72732  1.0000
  C   C571      1.0  0.51645  0.84687  0.81502  1.0000
  H   H570      1.0  0.87447  0.97542  0.94836  1.0000
  H   H571      1.0  0.54780  0.96674  0.97346  1.0000
  C   C572      1.0  0.58814  0.76053  0.99422  1.0000
  H   H572      1.0  0.49570  0.74292  0.62607  1.0000
  H   H573      1.0  0.58581  0.77849  0.99753  1.0000
  N   N48       1.0  0.55632  0.93915  0.99741  1.0000
  H   H574      1.0  0.85885  0.97428  0.99000  1.0000
  H   H575      1.0  0.49983  0.86276  0.81425  1.0000
  C   C573      1.0  0.88716  0.98816  0.96080  1.0000
  C   C574      1.0  0.98928  0.90349  0.61832  1.0000
  S   S192      1.0  0.49505  0.82231  0.92139  1.0000
  Fe  Fe96      1.0  0.49598  0.84997  0.94878  1.0000
  C   C575      1.0  0.99379  0.93245  0.56292  1.0000
  H   H576      1.0  0.99209  0.97773  0.74331  1.0000
  C   C576      1.0  0.99331  0.95209  0.70505  1.0000
