data_image0
_chemical_formula_structural       CSCH2C6H4FeSFeS2FeS3C3H2NCSC4NHCH3C2HCHC4HFeH3CNCFeH5CHCH2CH3SCH2C2HC2H2CNCHCHC2H3FeS3C7H4C3H3NCHCFeSFeSFeSFeS2CHC3H2C2H3CHC4H2NHC3H2C2H3CH2CH2CH3NHCH2SHCSCH2CHCS2FeCHFeCFeH3NC3HSFeS2FeSFeCFeS2HSFeS2FeS2HSHC2H4C2SH2C2HCHC3SH2C5HCNC4NHC3H3FeC2H2CH2FeHCHSCHC5HC2H3CHS2FeS2CH2CHC3NHSHCHC3H4CH6C2H3C2S2HSFeS2FeSFeS2FeC2HC7H3C4HCHC2NHCHC2FeSCHSH6SH2SHC3HCHNCHCH6CH2CNFeCHSHC2HCHC3SCHCH2FeSFeS2CHCHC2HCHSFeS2FeS2C6H5C2H4CHCHCH2CNC6H2CHSHSC3HSCH3CHCH2FeH2SH4CH2C2H5C3HS2HN2C2H3FeC3HFeHCHC2H3NCH2SCHCHC2HCFeS2FeS2FeSFeS3FeHSCH2C7H2C6H4CSHNHC3H3CHCH2C2H2CH2CH3CH3CNH2C2HC2SH2NH2FeS2FeS2FeSHFeSFeHS2NHC9H4C7NH2C2H3CHC4SC2HCH3CNH3SH6CHCHC2HCSC3H2C3H2SFeHC3HCSC2H3C2FeHCH2CHCH4CH3CHCHCHNH2CSNHC3H2C2SNHCFeS3C2FeS2FeS2FeHFeS3HFeC3SH2C7H4CH3NHCHC2HNH2CSCH2CNHCH8SC2SFeH2CHC4FeC2H3C6SCSC2FeSHFeS2FeSFeS4C2HC3H6CHC6H4C5NH2FeCSC3HC2H2CSH4C3NHFeHCH2NHC3HCH7C2HFe2S2FeSHFeCFeSCSHCHFeS2FeS2FeS2Fe3CS2CHSHC2SH2SHC4H2SCSC7H3C2HC2HSC3H3SHC2HNCH2CSCNH2CH2NC6H5C2HC2HC3H5CSHCH2C2H2C2H4C
_chemical_formula_sum              "C432 S144 H432 Fe72 N36"
_cell_length_a       34.1669
_cell_length_b       34.1183
_cell_length_c       68.2885
_cell_angle_alpha    89.6625
_cell_angle_beta     89.6283
_cell_angle_gamma    119.673

_space_group_name_H-M_alt    "P 1"
_space_group_IT_number       1

loop_
  _space_group_symop_operation_xyz
  'x, y, z'

loop_
  _atom_site_type_symbol
  _atom_site_label
  _atom_site_symmetry_multiplicity
  _atom_site_fract_x
  _atom_site_fract_y
  _atom_site_fract_z
  _atom_site_occupancy
  C   C1        1.0  0.12032  0.36111  0.01465  1.0000
  S   S1        1.0  0.07125  0.11672  0.16245  1.0000
  C   C2        1.0  0.16845  0.46558  0.11091  1.0000
  H   H1        1.0  0.04777  0.33470  0.09790  1.0000
  H   H2        1.0  0.18432  0.45921  0.09851  1.0000
  C   C3        1.0  0.10694  0.14966  0.14281  1.0000
  C   C4        1.0  0.11700  0.13047  0.12687  1.0000
  C   C5        1.0  0.14736  0.15845  0.11213  1.0000
  C   C6        1.0  0.16741  0.20571  0.11305  1.0000
  C   C7        1.0  0.15687  0.22477  0.12888  1.0000
  C   C8        1.0  0.12711  0.19689  0.14373  1.0000
  H   H3        1.0  0.10185  0.09420  0.12599  1.0000
  H   H4        1.0  0.15532  0.14339  0.09995  1.0000
  H   H5        1.0  0.17210  0.26104  0.12982  1.0000
  H   H6        1.0  0.11965  0.21205  0.15602  1.0000
  Fe  Fe1       1.0  0.24748  0.39252  0.06506  1.0000
  S   S2        1.0  0.24959  0.41436  0.03342  1.0000
  Fe  Fe2       1.0  0.23040  0.31495  0.09266  1.0000
  S   S3        1.0  0.26207  0.36143  0.11777  1.0000
  S   S4        1.0  0.20643  0.23996  0.09457  1.0000
  Fe  Fe3       1.0  0.22343  0.39489  0.10757  1.0000
  S   S5        1.0  0.18981  0.41046  0.13257  1.0000
  S   S6        1.0  0.18756  0.34503  0.08360  1.0000
  S   S7        1.0  0.28791  0.35856  0.07218  1.0000
  C   C9        1.0  0.16764  0.44672  0.12922  1.0000
  C   C10       1.0  0.20140  0.39769  0.01887  1.0000
  C   C11       1.0  0.15779  0.37305  0.02668  1.0000
  H   H7        1.0  0.15300  0.36353  0.04202  1.0000
  H   H8        1.0  0.08669  0.34230  0.02083  1.0000
  N   N1        1.0  0.05702  0.37058  0.12427  1.0000
  C   C12       1.0  0.07365  0.36583  0.10508  1.0000
  S   S8        1.0  0.28013  0.44516  0.08851  1.0000
  C   C13       1.0  0.14743  0.45553  0.14525  1.0000
  C   C14       1.0  0.18690  0.07460  0.20928  1.0000
  C   C15       1.0  0.12808  0.08393  0.19311  1.0000
  C   C16       1.0  0.17195  0.03173  0.23933  1.0000
  N   N2        1.0  0.14371  0.06724  0.20939  1.0000
  H   H9        1.0  0.14713  0.44135  0.15950  1.0000
  C   C17       1.0  0.12622  0.48144  0.14283  1.0000
  H   H10       1.0  0.08202  0.39544  0.09547  1.0000
  H   H11       1.0  0.11318  0.05790  0.18159  1.0000
  H   H12       1.0  0.10211  0.09238  0.19810  1.0000
  C   C18       1.0  0.11409  0.04176  0.22393  1.0000
  C   C19       1.0  0.12784  0.02396  0.23920  1.0000
  H   H13       1.0  0.07913  0.03368  0.22345  1.0000
  C   C20       1.0  0.14724  0.49160  0.10850  1.0000
  H   H14       1.0  0.10992  0.48732  0.15518  1.0000
  C   C21       1.0  0.12535  0.49887  0.12438  1.0000
  C   C22       1.0  0.02270  0.37673  0.16044  1.0000
  C   C23       1.0  0.20174  0.05716  0.22429  1.0000
  C   C24       1.0  0.01638  0.39703  0.14391  1.0000
  H   H15       1.0  0.10514  0.36400  0.10657  1.0000
  Fe  Fe4       1.0  0.02329  0.04087  0.16484  1.0000
  H   H16       1.0  0.15587  0.11522  0.18641  1.0000
  H   H17       1.0  0.20980  0.09314  0.19731  1.0000
  H   H18       1.0  0.23544  0.06147  0.22382  1.0000
  C   C25       1.0  0.06308  0.35019  0.14038  1.0000
  N   N3        1.0  0.30841  0.49725  0.14033  1.0000
  C   C26       1.0  0.28841  0.46644  0.15711  1.0000
  Fe  Fe5       1.0  0.31660  0.40791  0.09677  1.0000
  H   H19       1.0  0.08185  0.33229  0.13918  1.0000
  H   H20       1.0  0.27676  0.43122  0.15241  1.0000
  H   H21       1.0  0.25857  0.46732  0.16319  1.0000
  H   H22       1.0  0.18251  0.01639  0.25056  1.0000
  H   H23       1.0  0.31340  0.47544  0.16897  1.0000
  C   C27       1.0  0.04619  0.35311  0.15872  1.0000
  H   H24       1.0  0.02939  0.41033  0.11316  1.0000
  C   C28       1.0  0.03376  0.39356  0.12582  1.0000
  H   H25       1.0  0.31861  0.29437  0.09001  1.0000
  H   H26       1.0  0.05146  0.33740  0.17151  1.0000
  C   C29       1.0  0.42796  0.36541  0.10058  1.0000
  H   H27       1.0  0.34962  0.29149  0.11046  1.0000
  H   H28       1.0  0.50186  0.42550  0.06397  1.0000
  H   H29       1.0  0.49999  0.04554  0.27412  1.0000
  S   S9        1.0  0.38696  0.43877  0.10990  1.0000
  C   C30       1.0  0.50600  0.03273  0.26066  1.0000
  H   H30       1.0  0.42699  0.36128  0.11637  1.0000
  H   H31       1.0  0.35908  0.33554  0.06192  1.0000
  C   C31       1.0  0.47035  0.40177  0.07117  1.0000
  C   C32       1.0  0.34791  0.50338  0.13237  1.0000
  H   H32       1.0  0.33607  0.33631  0.10882  1.0000
  C   C33       1.0  0.44435  0.48310  0.07832  1.0000
  C   C34       1.0  0.47942  0.48896  0.10960  1.0000
  H   H33       1.0  0.36430  0.48582  0.13846  1.0000
  H   H34       1.0  0.43089  0.38718  0.04498  1.0000
  C   C35       1.0  0.38993  0.35154  0.07026  1.0000
  N   N4        1.0  0.38911  0.34417  0.09003  1.0000
  C   C36       1.0  0.43050  0.38048  0.06055  1.0000
  H   H35       1.0  0.41450  0.47119  0.06948  1.0000
  C   C37       1.0  0.46918  0.39412  0.09130  1.0000
  H   H36       1.0  0.47657  0.48153  0.12514  1.0000
  C   C38       1.0  0.34630  0.31516  0.10028  1.0000
  C   C39       1.0  0.44014  0.47308  0.09836  1.0000
  H   H37       1.0  0.49975  0.41196  0.09977  1.0000
  H   H38       1.0  0.00943  0.37947  0.17456  1.0000
  H   H39       1.0  0.14690  0.50535  0.09422  1.0000
  Fe  Fe6       1.0  0.06204  0.05055  0.51846  1.0000
  S   S10       1.0  0.05398  0.06528  0.48704  1.0000
  S   S11       1.0  0.12869  0.07159  0.53334  1.0000
  S   S12       1.0  0.25603  0.25792  0.57491  1.0000
  C   C40       1.0  0.26916  0.25526  0.51917  1.0000
  C   C41       1.0  0.16303  0.12373  0.54481  1.0000
  C   C42       1.0  0.20368  0.13138  0.55309  1.0000
  C   C43       1.0  0.23252  0.17248  0.56219  1.0000
  C   C44       1.0  0.22050  0.20601  0.56347  1.0000
  C   C45       1.0  0.17952  0.19820  0.55540  1.0000
  C   C46       1.0  0.15102  0.15735  0.54590  1.0000
  H   H40       1.0  0.21323  0.10554  0.55230  1.0000
  H   H41       1.0  0.26391  0.17804  0.56836  1.0000
  H   H42       1.0  0.17004  0.22408  0.55634  1.0000
  H   H43       1.0  0.11971  0.15176  0.53959  1.0000
  C   C47       1.0  0.04924  0.35879  0.43474  1.0000
  C   C48       1.0  0.22180  0.13558  0.50300  1.0000
  C   C49       1.0  0.06261  0.43404  0.43424  1.0000
  H   H44       1.0  0.19915  0.18403  0.50294  1.0000
  H   H45       1.0  0.19092  0.10909  0.49674  1.0000
  H   H46       1.0  0.28946  0.27932  0.50731  1.0000
  N   N5        1.0  0.26445  0.21084  0.51547  1.0000
  C   C50       1.0  0.25622  0.12695  0.50828  1.0000
  H   H47       1.0  0.25254  0.09390  0.50590  1.0000
  C   C51       1.0  0.22657  0.17804  0.50666  1.0000
  Fe  Fe7       1.0  0.40715  0.29086  0.60499  1.0000
  S   S13       1.0  0.43716  0.29017  0.63452  1.0000
  Fe  Fe8       1.0  0.32975  0.27917  0.57946  1.0000
  S   S14       1.0  0.37469  0.30733  0.55311  1.0000
  Fe  Fe9       1.0  0.40278  0.26313  0.56241  1.0000
  S   S15       1.0  0.40747  0.22238  0.53735  1.0000
  Fe  Fe10      1.0  0.42515  0.36045  0.57285  1.0000
  S   S16       1.0  0.35503  0.23190  0.58791  1.0000
  S   S17       1.0  0.37795  0.33618  0.59882  1.0000
  C   C52       1.0  0.29511  0.16090  0.51687  1.0000
  H   H48       1.0  0.32220  0.15471  0.52108  1.0000
  C   C53       1.0  0.43134  0.18720  0.53996  1.0000
  C   C54       1.0  0.44783  0.13161  0.52556  1.0000
  C   C55       1.0  0.42736  0.15854  0.52452  1.0000
  H   H49       1.0  0.40874  0.15744  0.51159  1.0000
  H   H50       1.0  0.28601  0.26867  0.53340  1.0000
  C   C56       1.0  0.35808  0.22138  0.65048  1.0000
  C   C57       1.0  0.40393  0.25148  0.65309  1.0000
  H   H51       1.0  0.32910  0.22909  0.52699  1.0000
  H   H52       1.0  0.34208  0.22208  0.63695  1.0000
  H   H53       1.0  0.23581  0.25341  0.52030  1.0000
  C   C58       1.0  0.29880  0.20298  0.52026  1.0000
  H   H54       1.0  0.44473  0.10990  0.51353  1.0000
  C   C59       1.0  0.07326  0.43807  0.41426  1.0000
  C   C60       1.0  0.07209  0.40168  0.40451  1.0000
  C   C61       1.0  0.45552  0.18843  0.55662  1.0000
  C   C62       1.0  0.06045  0.36190  0.41484  1.0000
  H   H55       1.0  0.12808  0.13215  0.58904  1.0000
  H   H56       1.0  0.07952  0.40403  0.38894  1.0000
  N   N6        1.0  0.04962  0.39435  0.44409  1.0000
  H   H57       1.0  0.06301  0.46230  0.44165  1.0000
  C   C63       1.0  0.40498  0.14403  0.65645  1.0000
  C   C64       1.0  0.08645  0.06327  0.57974  1.0000
  C   C65       1.0  0.09403  0.10531  0.58616  1.0000
  H   H58       1.0  0.08143  0.46897  0.40638  1.0000
  H   H59       1.0  0.39746  0.15929  0.64409  1.0000
  C   C66       1.0  0.44916  0.16216  0.66293  1.0000
  C   C67       1.0  0.03778  0.39059  0.46496  1.0000
  H   H60       1.0  0.05883  0.33309  0.40739  1.0000
  H   H61       1.0  0.47613  0.19137  0.65549  1.0000
  H   H62       1.0  0.06324  0.14561  0.59285  1.0000
  C   C68       1.0  0.05766  0.11285  0.58825  1.0000
  H   H63       1.0  0.45876  0.21047  0.56858  1.0000
  H   H64       1.0  0.03939  0.32739  0.44255  1.0000
  C   C69       1.0  0.37026  0.10739  0.66656  1.0000
  H   H65       1.0  0.29734  0.16696  0.66323  1.0000
  H   H66       1.0  0.01400  0.35501  0.46926  1.0000
  C   C70       1.0  0.47144  0.48816  0.59018  1.0000
  H   H67       1.0  0.11505  0.05801  0.57770  1.0000
  H   H68       1.0  0.01416  0.13313  0.45529  1.0000
  H   H69       1.0  0.02034  0.41005  0.46831  1.0000
  N   N7        1.0  0.04387  0.02977  0.57545  1.0000
  H   H70       1.0  0.06864  0.40363  0.47392  1.0000
  C   C71       1.0  0.01420  0.07816  0.58425  1.0000
  H   H71       1.0  0.44955  0.45795  0.59851  1.0000
  H   H72       1.0  0.02026  0.18278  0.42716  1.0000
  S   S18       1.0  0.45729  0.31830  0.57993  1.0000
  H   H73       1.0  0.33575  0.09464  0.66193  1.0000
  C   C72       1.0  0.47289  0.13354  0.54199  1.0000
  S   S19       1.0  0.46860  0.43167  0.56027  1.0000
  C   C73       1.0  0.33281  0.19023  0.66539  1.0000
  H   H74       1.0  0.49560  0.16328  0.57036  1.0000
  H   H75       1.0  0.49398  0.42809  0.64279  1.0000
  C   C74       1.0  0.47631  0.16170  0.55759  1.0000
  H   H76       1.0  0.49097  0.37953  0.61537  1.0000
  C   C75       1.0  0.48355  0.48460  0.57095  1.0000
  S   S20       1.0  0.48510  0.07453  0.48608  1.0000
  S   S21       1.0  0.50305  0.10392  0.54286  1.0000
  Fe  Fe11      1.0  0.50258  0.06385  0.51636  1.0000
  C   C76       1.0  0.03504  0.20426  0.94471  1.0000
  H   H77       1.0  0.10151  0.19748  0.88620  1.0000
  Fe  Fe12      1.0  0.03880  0.31192  0.91068  1.0000
  C   C77       1.0  0.25756  0.46615  0.88789  1.0000
  Fe  Fe13      1.0  0.06913  0.41307  0.91232  1.0000
  H   H78       1.0  0.43013  0.09154  0.70147  1.0000
  H   H79       1.0  0.38250  0.24014  0.78656  1.0000
  H   H80       1.0  0.02986  0.18342  0.83177  1.0000
  N   N8        1.0  0.41411  0.31723  0.74188  1.0000
  C   C78       1.0  0.05199  0.21752  0.89257  1.0000
  C   C79       1.0  0.06601  0.18710  0.88637  1.0000
  C   C80       1.0  0.29874  0.50096  0.88032  1.0000
  H   H81       1.0  0.07676  0.25123  0.89691  1.0000
  S   S22       1.0  0.02208  0.35359  0.93099  1.0000
  Fe  Fe14      1.0  0.32537  0.10399  0.77103  1.0000
  S   S23       1.0  0.39683  0.12182  0.77798  1.0000
  S   S24       1.0  0.27276  0.07120  0.79527  1.0000
  Fe  Fe15      1.0  0.35085  0.14078  0.72916  1.0000
  S   S25       1.0  0.32080  0.14718  0.70073  1.0000
  Fe  Fe16      1.0  0.39891  0.09468  0.74822  1.0000
  C   C81       1.0  0.38490  0.35661  0.76068  1.0000
  Fe  Fe17      1.0  0.41544  0.18704  0.76218  1.0000
  S   S26       1.0  0.32581  0.07199  0.74254  1.0000
  S   S27       1.0  0.34416  0.17105  0.75724  1.0000
  H   H82       1.0  0.35379  0.04012  0.70596  1.0000
  S   S28       1.0  0.08052  0.37009  0.89037  1.0000
  Fe  Fe18      1.0  0.08450  0.36646  0.94715  1.0000
  S   S29       1.0  0.13134  0.42850  0.92974  1.0000
  S   S30       1.0  0.07828  0.35741  0.98012  1.0000
  Fe  Fe19      1.0  0.13858  0.38084  0.90926  1.0000
  S   S31       1.0  0.19798  0.37639  0.89711  1.0000
  S   S32       1.0  0.09689  0.32023  0.92841  1.0000
  H   H83       1.0  0.19797  0.03101  0.82221  1.0000
  S   S33       1.0  0.42451  0.49953  0.81670  1.0000
  H   H84       1.0  0.45979  0.27337  0.67281  1.0000
  C   C82       1.0  0.12617  0.37326  0.99471  1.0000
  C   C83       1.0  0.16970  0.39768  0.98686  1.0000
  H   H85       1.0  0.16987  0.27035  0.98229  1.0000
  H   H86       1.0  0.14981  0.13925  0.79870  1.0000
  H   H87       1.0  0.17459  0.40718  0.97151  1.0000
  H   H88       1.0  0.12315  0.13779  0.84024  1.0000
  C   C84       1.0  0.22039  0.16036  0.79742  1.0000
  C   C85       1.0  0.24848  0.42143  0.88745  1.0000
  S   S34       1.0  0.05346  0.10619  0.87283  1.0000
  H   H89       1.0  0.22394  0.16992  0.78206  1.0000
  H   H90       1.0  0.03968  0.44106  0.97517  1.0000
  C   C86       1.0  0.12898  0.11000  0.83548  1.0000
  C   C87       1.0  0.11381  0.23526  0.95220  1.0000
  H   H91       1.0  0.14272  0.06357  0.76079  1.0000
  C   C88       1.0  0.39904  0.21892  0.68562  1.0000
  H   H92       1.0  0.41522  0.21759  0.69895  1.0000
  C   C89       1.0  0.21559  0.05682  0.79266  1.0000
  C   C90       1.0  0.19963  0.06554  0.77530  1.0000
  C   C91       1.0  0.15468  0.05636  0.77422  1.0000
  S   S35       1.0  0.07033  0.03126  0.78880  1.0000
  H   H93       1.0  0.22199  0.07976  0.76278  1.0000
  H   H94       1.0  0.35664  0.35770  0.76746  1.0000
  C   C92       1.0  0.34226  0.05028  0.69264  1.0000
  C   C93       1.0  0.35318  0.18877  0.68297  1.0000
  C   C94       1.0  0.03041  0.22635  0.96093  1.0000
  C   C95       1.0  0.39512  0.30200  0.80025  1.0000
  C   C96       1.0  0.40780  0.27379  0.79054  1.0000
  H   H95       1.0  0.35991  0.28999  0.80347  1.0000
  C   C97       1.0  0.25690  0.16300  0.80757  1.0000
  N   N9        1.0  0.17326  0.12839  0.82595  1.0000
  C   C98       1.0  0.17854  0.14291  0.80690  1.0000
  C   C99       1.0  0.20910  0.13171  0.83616  1.0000
  C   C100      1.0  0.25135  0.14871  0.82708  1.0000
  C   C101      1.0  0.46502  0.38924  0.75577  1.0000
  N   N10       1.0  0.10887  0.25649  0.96818  1.0000
  H   H96       1.0  0.24084  0.42902  0.99280  1.0000
  C   C102      1.0  0.06782  0.25223  0.97266  1.0000
  C   C103      1.0  0.40711  0.27855  0.73008  1.0000
  C   C104      1.0  0.14107  0.02909  0.80770  1.0000
  H   H97       1.0  0.20491  0.12014  0.85125  1.0000
  H   H98       1.0  0.27933  0.14962  0.83489  1.0000
  H   H99       1.0  0.05547  0.28293  0.83604  1.0000
  Fe  Fe20      1.0  0.01998  0.01259  0.81400  1.0000
  C   C105      1.0  0.14851  0.28603  0.97980  1.0000
  C   C106      1.0  0.42861  0.39182  0.76365  1.0000
  H   H100      1.0  0.34411  0.29195  0.74759  1.0000
  H   H101      1.0  0.27377  0.37729  0.87892  1.0000
  C   C107      1.0  0.03447  0.14356  0.88022  1.0000
  H   H102      1.0  0.28906  0.17459  0.80018  1.0000
  H   H103      1.0  0.11874  0.01497  0.82024  1.0000
  Fe  Fe21      1.0  0.00950  0.04717  0.85335  1.0000
  H   H104      1.0  0.10193  0.08791  0.82525  1.0000
  C   C108      1.0  0.37817  0.31937  0.74964  1.0000
  H   H105      1.0  0.12571  0.08886  0.84851  1.0000
  S   S36       1.0  0.05821  0.47160  0.90277  1.0000
  C   C109      1.0  0.49552  0.06015  0.75934  1.0000
  H   H106      1.0  0.07112  0.25027  0.85191  1.0000
  C   C110      1.0  0.12533  0.03858  0.79046  1.0000
  C   C111      1.0  0.32154  0.44649  0.87163  1.0000
  C   C112      1.0  0.28058  0.41180  0.87929  1.0000
  C   C113      1.0  0.08700  0.49115  0.95481  1.0000
  C   C114      1.0  0.07487  0.46405  0.97168  1.0000
  H   H107      1.0  0.46129  0.01990  0.80868  1.0000
  C   C115      1.0  0.42425  0.25031  0.67075  1.0000
  C   C116      1.0  0.47299  0.36127  0.80134  1.0000
  H   H108      1.0  0.37087  0.25285  0.72879  1.0000
  H   H109      1.0  0.04347  0.27823  0.86205  1.0000
  H   H110      1.0  0.32659  0.02089  0.68273  1.0000
  C   C117      1.0  0.48570  0.33297  0.79155  1.0000
  H   H111      1.0  0.49817  0.39515  0.80528  1.0000
  S   S37       1.0  0.42356  0.16157  0.73287  1.0000
  S   S38       1.0  0.46931  0.25622  0.77195  1.0000
  Fe  Fe22      1.0  0.45154  0.45378  0.82532  1.0000
  S   S39       1.0  0.40860  0.38150  0.81527  1.0000
  S   S40       1.0  0.45421  0.46971  0.85745  1.0000
  C   C118      1.0  0.33085  0.49122  0.87220  1.0000
  H   H112      1.0  0.34599  0.43861  0.86540  1.0000
  H   H113      1.0  0.49423  0.08847  0.76569  1.0000
  C   C119      1.0  0.20716  0.40996  0.99893  1.0000
  H   H114      1.0  0.16878  0.31881  0.97199  1.0000
  C   C120      1.0  0.45305  0.28938  0.78587  1.0000
  C   C121      1.0  0.46397  0.03379  0.74528  1.0000
  C   C122      1.0  0.42749  0.34601  0.80542  1.0000
  N   N11       1.0  0.37941  0.08893  0.68251  1.0000
  H   H115      1.0  0.42459  0.26180  0.73686  1.0000
  S   S41       1.0  0.41904  0.04299  0.73819  1.0000
  H   H116      1.0  0.23305  0.47388  0.89414  1.0000
  C   C123      1.0  0.04494  0.25979  0.84891  1.0000
  H   H117      1.0  0.31629  0.05902  0.69735  1.0000
  C   C124      1.0  0.18597  0.03812  0.80877  1.0000
  C   C125      1.0  0.10847  0.46589  0.98378  1.0000
  C   C126      1.0  0.45713  0.35130  0.74498  1.0000
  H   H118      1.0  0.43430  0.42011  0.77279  1.0000
  H   H119      1.0  0.09949  0.44457  0.99678  1.0000
  H   H120      1.0  0.13893  0.29294  0.99444  1.0000
  H   H121      1.0  0.42074  0.28998  0.71503  1.0000
  C   C127      1.0  0.07689  0.20833  0.94040  1.0000
  H   H122      1.0  0.06068  0.48901  0.94532  1.0000
  H   H123      1.0  0.14657  0.23958  0.94832  1.0000
  H   H124      1.0  0.06395  0.26954  0.98516  1.0000
  H   H125      1.0  0.08091  0.19153  0.92774  1.0000
  H   H126      1.0  0.41527  0.04191  0.78610  1.0000
  H   H127      1.0  0.48562  0.34872  0.73947  1.0000
  C   C128      1.0  0.01391  0.48289  0.90880  1.0000
  C   C129      1.0  0.15363  0.49386  0.97868  1.0000
  H   H128      1.0  0.49917  0.41566  0.75867  1.0000
  H   H129      1.0  0.49241  0.15707  0.68447  1.0000
  H   H130      1.0  0.17987  0.49415  0.98769  1.0000
  C   C130      1.0  0.42276  0.10608  0.68881  1.0000
  C   C131      1.0  0.45823  0.14310  0.67920  1.0000
  S   S42       1.0  0.04828  0.59200  0.15192  1.0000
  S   S43       1.0  0.06738  0.61322  0.20854  1.0000
  H   H131      1.0  0.11560  0.68409  0.23563  1.0000
  S   S44       1.0  0.28852  0.93384  0.26453  1.0000
  Fe  Fe23      1.0  0.27310  0.84387  0.22645  1.0000
  S   S45       1.0  0.21431  0.84461  0.24067  1.0000
  S   S46       1.0  0.25917  0.79077  0.20360  1.0000
  Fe  Fe24      1.0  0.25369  0.91937  0.23534  1.0000
  S   S47       1.0  0.22899  0.96071  0.21874  1.0000
  Fe  Fe25      1.0  0.25445  0.85845  0.26830  1.0000
  S   S48       1.0  0.22991  0.81267  0.29507  1.0000
  S   S49       1.0  0.31076  0.91821  0.21928  1.0000
  Fe  Fe26      1.0  0.03651  0.56627  0.18281  1.0000
  C   C132      1.0  0.20794  0.82221  0.31671  1.0000
  C   C133      1.0  0.19556  0.85549  0.31796  1.0000
  H   H132      1.0  0.20031  0.87708  0.30545  1.0000
  C   C134      1.0  0.14666  0.77097  0.17905  1.0000
  C   C135      1.0  0.20744  0.73958  0.20566  1.0000
  C   C136      1.0  0.19308  0.70860  0.19023  1.0000
  C   C137      1.0  0.15039  0.66934  0.19094  1.0000
  C   C138      1.0  0.12215  0.66053  0.20727  1.0000
  C   C139      1.0  0.13709  0.69089  0.22290  1.0000
  C   C140      1.0  0.17947  0.73022  0.22210  1.0000
  H   H133      1.0  0.21469  0.71535  0.17753  1.0000
  H   H134      1.0  0.13931  0.64598  0.17887  1.0000
  H   H135      1.0  0.19055  0.75303  0.23430  1.0000
  C   C141      1.0  0.08397  0.93211  0.21301  1.0000
  C   C142      1.0  0.09538  0.91213  0.22836  1.0000
  C   C143      1.0  0.13918  0.91835  0.22971  1.0000
  C   C144      1.0  0.17188  0.94501  0.21576  1.0000
  H   H136      1.0  0.14817  0.90439  0.24201  1.0000
  C   C145      1.0  0.08855  0.76143  0.20200  1.0000
  H   H137      1.0  0.08536  0.70776  0.18431  1.0000
  C   C146      1.0  0.15991  0.96324  0.19993  1.0000
  C   C147      1.0  0.10469  0.74333  0.18794  1.0000
  N   N12       1.0  0.17215  0.81521  0.18428  1.0000
  H   H138      1.0  0.10177  0.82163  0.21755  1.0000
  C   C148      1.0  0.15600  0.83358  0.19763  1.0000
  H   H139      1.0  0.07066  0.89312  0.23965  1.0000
  C   C149      1.0  0.11407  0.80699  0.20675  1.0000
  C   C150      1.0  0.11604  0.95669  0.19849  1.0000
  Fe  Fe27      1.0  0.34367  0.92811  0.24865  1.0000
  S   S50       1.0  0.31139  0.85339  0.25424  1.0000
  C   C151      1.0  0.21632  0.84381  0.17506  1.0000
  H   H140      1.0  0.17596  0.86885  0.20150  1.0000
  S   S51       1.0  0.03559  0.98252  0.15963  1.0000
  H   H141      1.0  0.15927  0.75640  0.16838  1.0000
  H   H142      1.0  0.24084  0.86642  0.18608  1.0000
  H   H143      1.0  0.23063  0.82328  0.16904  1.0000
  H   H144      1.0  0.21352  0.86452  0.16316  1.0000
  H   H145      1.0  0.31425  0.80903  0.29621  1.0000
  H   H146      1.0  0.10752  0.97202  0.18657  1.0000
  S   S52       1.0  0.41364  0.98055  0.25946  1.0000
  H   H147      1.0  0.18509  0.98377  0.18906  1.0000
  H   H148      1.0  0.05644  0.74004  0.20925  1.0000
  S   S53       1.0  0.03115  0.92960  0.21369  1.0000
  H   H149      1.0  0.36031  0.57489  0.09494  1.0000
  C   C152      1.0  0.34599  0.55354  0.10782  1.0000
  C   C153      1.0  0.11691  0.71944  0.30182  1.0000
  C   C154      1.0  0.36063  0.90924  0.30102  1.0000
  H   H150      1.0  0.37496  0.84165  0.29602  1.0000
  C   C155      1.0  0.34420  0.83108  0.30515  1.0000
  H   H151      1.0  0.38004  0.91209  0.28793  1.0000
  N   N13       1.0  0.34091  0.87013  0.31181  1.0000
  C   C156      1.0  0.32973  0.94222  0.32306  1.0000
  H   H152      1.0  0.09233  0.69350  0.29182  1.0000
  C   C157      1.0  0.35562  0.94595  0.30653  1.0000
  H   H153      1.0  0.37113  0.97672  0.29774  1.0000
  H   H154      1.0  0.12578  0.75338  0.29597  1.0000
  H   H155      1.0  0.08983  0.77011  0.32133  1.0000
  H   H156      1.0  0.28822  0.56325  0.10958  1.0000
  H   H157      1.0  0.14866  0.71785  0.30165  1.0000
  H   H158      1.0  0.21109  0.76846  0.33208  1.0000
  C   C158      1.0  0.30561  0.54701  0.11600  1.0000
  H   H159      1.0  0.10329  0.65278  0.32621  1.0000
  H   H160      1.0  0.32482  0.97011  0.32727  1.0000
  C   C159      1.0  0.20165  0.79435  0.33299  1.0000
  N   N14       1.0  0.09816  0.71202  0.32175  1.0000
  Fe  Fe28      1.0  0.04965  0.52874  0.14437  1.0000
  C   C160      1.0  0.08507  0.74070  0.32952  1.0000
  H   H161      1.0  0.34573  0.81123  0.31778  1.0000
  S   S54       1.0  0.09550  0.52788  0.12045  1.0000
  H   H162      1.0  0.39822  0.53549  0.10955  1.0000
  C   C161      1.0  0.36735  0.53162  0.11604  1.0000
  C   C162      1.0  0.31570  0.86627  0.32811  1.0000
  H   H163      1.0  0.10369  0.00233  0.25025  1.0000
  C   C163      1.0  0.09309  0.67561  0.33237  1.0000
  H   H164      1.0  0.25555  0.51332  0.13848  1.0000
  C   C164      1.0  0.28719  0.51859  0.13236  1.0000
  C   C165      1.0  0.30965  0.90217  0.33398  1.0000
  C   C166      1.0  0.48748  0.50775  0.06956  1.0000
  S   S55       1.0  0.04419  0.50605  0.17567  1.0000
  C   C167      1.0  0.46910  0.99985  0.25014  1.0000
  H   H165      1.0  0.44950  0.95838  0.22448  1.0000
  C   C168      1.0  0.47743  0.98362  0.23275  1.0000
  H   H166      1.0  0.49044  0.51480  0.05399  1.0000
  H   H167      1.0  0.16079  0.77919  0.50126  1.0000
  Fe  Fe29      1.0  0.08308  0.69358  0.41499  1.0000
  S   S56       1.0  0.06011  0.74477  0.41030  1.0000
  Fe  Fe30      1.0  0.08914  0.77186  0.43987  1.0000
  S   S57       1.0  0.06040  0.79393  0.46492  1.0000
  S   S58       1.0  0.10625  0.71684  0.44565  1.0000
  C   C169      1.0  0.49546  0.84834  0.54443  1.0000
  H   H168      1.0  0.05793  0.84689  0.43160  1.0000
  C   C170      1.0  0.50719  0.88743  0.53317  1.0000
  H   H169      1.0  0.29893  0.83482  0.33634  1.0000
  C   C171      1.0  0.05235  0.86053  0.44493  1.0000
  C   C172      1.0  0.05409  0.84229  0.46308  1.0000
  H   H170      1.0  0.47617  0.83759  0.63293  1.0000
  C   C173      1.0  0.02782  0.56387  0.43287  1.0000
  H   H171      1.0  0.02951  0.90804  0.49256  1.0000
  S   S59       1.0  0.38252  0.97361  0.46911  1.0000
  Fe  Fe31      1.0  0.17329  0.76532  0.43188  1.0000
  S   S60       1.0  0.15747  0.82127  0.42810  1.0000
  S   S61       1.0  0.23673  0.77469  0.44649  1.0000
  Fe  Fe32      1.0  0.13039  0.79030  0.39882  1.0000
  S   S62       1.0  0.14102  0.83556  0.37255  1.0000
  S   S63       1.0  0.15179  0.73806  0.40156  1.0000
  C   C174      1.0  0.34724  0.91840  0.46066  1.0000
  C   C175      1.0  0.34962  0.88132  0.46806  1.0000
  C   C176      1.0  0.31622  0.83724  0.46318  1.0000
  C   C177      1.0  0.28044  0.83014  0.45093  1.0000
  C   C178      1.0  0.27912  0.86732  0.44304  1.0000
  C   C179      1.0  0.31236  0.91121  0.44789  1.0000
  H   H172      1.0  0.37626  0.88655  0.47801  1.0000
  H   H173      1.0  0.31758  0.80856  0.46923  1.0000
  H   H174      1.0  0.25243  0.86239  0.43327  1.0000
  H   H175      1.0  0.31038  0.93976  0.44209  1.0000
  H   H176      1.0  0.28812  0.96731  0.48323  1.0000
  C   C180      1.0  0.03228  0.91215  0.46108  1.0000
  C   C181      1.0  0.07499  0.66746  0.35138  1.0000
  H   H177      1.0  0.04807  0.84648  0.49433  1.0000
  H   H178      1.0  0.04809  0.69081  0.37420  1.0000
  H   H179      1.0  0.17756  0.77735  0.36276  1.0000
  H   H180      1.0  0.05812  0.75727  0.35491  1.0000
  C   C182      1.0  0.02185  0.56915  0.41297  1.0000
  H   H181      1.0  0.03820  0.90786  0.42982  1.0000
  C   C183      1.0  0.06698  0.73360  0.34851  1.0000
  H   H182      1.0  0.18027  0.77326  0.47736  1.0000
  C   C184      1.0  0.16917  0.83175  0.35159  1.0000
  H   H183      1.0  0.13421  0.78426  0.47959  1.0000
  H   H184      1.0  0.01484  0.51666  0.45657  1.0000
  C   C185      1.0  0.18274  0.79936  0.35042  1.0000
  N   N15       1.0  0.19971  0.84033  0.48534  1.0000
  C   C186      1.0  0.18924  0.86996  0.47642  1.0000
  C   C187      1.0  0.24100  0.85547  0.49364  1.0000
  C   C188      1.0  0.22064  0.91611  0.47563  1.0000
  C   C189      1.0  0.27280  0.90148  0.49350  1.0000
  C   C190      1.0  0.26267  0.93188  0.48426  1.0000
  C   C191      1.0  0.16710  0.79193  0.48592  1.0000
  H   H185      1.0  0.15671  0.85800  0.46961  1.0000
  H   H186      1.0  0.24995  0.83179  0.50000  1.0000
  C   C192      1.0  0.03700  0.98607  0.56878  1.0000
  H   H187      1.0  0.30604  0.91336  0.49961  1.0000
  S   S64       1.0  0.46376  0.98800  0.51505  1.0000
  H   H188      1.0  0.03804  0.96606  0.58143  1.0000
  S   S65       1.0  0.04184  0.62319  0.40181  1.0000
  C   C193      1.0  0.17596  0.86005  0.33537  1.0000
  C   C194      1.0  0.06190  0.69669  0.35944  1.0000
  C   C195      1.0  0.03621  0.89534  0.47926  1.0000
  H   H189      1.0  0.46032  0.82445  0.54734  1.0000
  S   S66       1.0  0.01978  0.97530  0.51568  1.0000
  C   C196      1.0  0.04675  0.86038  0.48023  1.0000
  H   H190      1.0  0.21266  0.93930  0.46808  1.0000
  H   H191      1.0  0.48122  0.89337  0.52730  1.0000
  H   H192      1.0  0.07126  0.63883  0.35995  1.0000
  C   C197      1.0  0.04111  0.89506  0.44395  1.0000
  H   H193      1.0  0.16546  0.88518  0.33622  1.0000
  C   C198      1.0  0.48913  0.53094  0.59891  1.0000
  H   H194      1.0  0.04534  0.59335  0.44194  1.0000
  H   H195      1.0  0.28856  0.89844  0.34662  1.0000
  Fe  Fe33      1.0  0.45011  0.99894  0.48374  1.0000
  H   H196      1.0  0.06352  0.99098  0.55792  1.0000
  H   H197      1.0  0.48054  0.53327  0.61396  1.0000
  S   S67       1.0  0.01135  0.95030  0.45909  1.0000
  H   H198      1.0  0.49524  0.81803  0.60063  1.0000
  H   H199      1.0  0.49300  0.79802  0.51023  1.0000
  H   H200      1.0  0.50589  0.86256  0.66709  1.0000
  H   H201      1.0  0.50592  0.79860  0.48442  1.0000
  C   C199      1.0  0.01049  0.52027  0.44111  1.0000
  H   H202      1.0  0.50246  0.97711  0.80792  1.0000
  H   H203      1.0  0.47715  0.91167  0.78593  1.0000
  C   C200      1.0  0.42918  0.64770  0.84815  1.0000
  C   C201      1.0  0.43019  0.68143  0.81606  1.0000
  H   H204      1.0  0.40925  0.57276  0.79008  1.0000
  H   H205      1.0  0.43370  0.70904  0.78715  1.0000
  H   H206      1.0  0.30578  0.53552  0.88081  1.0000
  H   H207      1.0  0.17463  0.57945  0.93394  1.0000
  H   H208      1.0  0.44264  0.97693  0.72610  1.0000
  C   C202      1.0  0.47243  0.96629  0.79921  1.0000
  C   C203      1.0  0.41404  0.60311  0.79724  1.0000
  C   C204      1.0  0.41982  0.64013  0.78618  1.0000
  H   H209      1.0  0.41263  0.57752  0.82614  1.0000
  S   S68       1.0  0.38234  0.53562  0.86299  1.0000
  S   S69       1.0  0.02840  0.99468  0.84481  1.0000
  H   H210      1.0  0.39518  0.62792  0.85499  1.0000
  N   N16       1.0  0.13141  0.51938  0.95015  1.0000
  N   N17       1.0  0.42546  0.64525  0.82676  1.0000
  C   C205      1.0  0.14365  0.54634  0.93204  1.0000
  C   C206      1.0  0.41663  0.60619  0.81765  1.0000
  H   H211      1.0  0.14924  0.52767  0.92004  1.0000
  H   H212      1.0  0.11636  0.55309  0.92739  1.0000
  H   H213      1.0  0.41961  0.63876  0.77032  1.0000
  Fe  Fe34      1.0  0.43188  0.51877  0.84831  1.0000
  C   C207      1.0  0.42758  0.67947  0.79562  1.0000
  C   C208      1.0  0.39870  0.94229  0.77538  1.0000
  C   C209      1.0  0.46670  0.99746  0.73705  1.0000
  H   H214      1.0  0.43796  0.71276  0.82318  1.0000
  Fe  Fe35      1.0  0.49676  0.55346  0.81314  1.0000
  H   H215      1.0  0.04344  0.54478  0.89193  1.0000
  C   C210      1.0  0.16459  0.52044  0.96166  1.0000
  H   H216      1.0  0.41044  0.88929  0.76484  1.0000
  C   C211      1.0  0.42093  0.91711  0.77490  1.0000
  C   C212      1.0  0.49972  0.98673  0.74317  1.0000
  H   H217      1.0  0.37073  0.93342  0.76559  1.0000
  H   H218      1.0  0.45006  0.63298  0.85328  1.0000
  H   H219      1.0  0.44540  0.68299  0.85339  1.0000
  N   N18       1.0  0.41324  0.97872  0.78743  1.0000
  C   C213      1.0  0.45819  0.92945  0.78682  1.0000
  H   H220      1.0  0.37108  0.99955  0.80160  1.0000
  H   H221      1.0  0.19976  0.54139  0.95756  1.0000
  S   S70       1.0  0.50242  0.57606  0.84414  1.0000
  C   C214      1.0  0.44929  0.99057  0.79940  1.0000
  H   H222      1.0  0.50083  0.95818  0.73698  1.0000
  C   C215      1.0  0.01556  0.52227  0.90133  1.0000
  H   H223      1.0  0.36661  0.99699  0.77526  1.0000
  C   C216      1.0  0.39028  0.00541  0.78768  1.0000
  C   C217      1.0  0.81823  0.01080  0.21097  1.0000
  H   H224      1.0  0.99841  0.41569  0.14519  1.0000
  C   C218      1.0  0.72556  0.23930  0.33162  1.0000
  Fe  Fe36      1.0  0.68233  0.10534  0.23975  1.0000
  S   S71       1.0  0.73014  0.08504  0.25302  1.0000
  S   S72       1.0  0.61448  0.05319  0.22712  1.0000
  Fe  Fe37      1.0  0.75245  0.20603  0.24161  1.0000
  S   S73       1.0  0.80436  0.19335  0.25540  1.0000
  S   S74       1.0  0.76742  0.27727  0.23494  1.0000
  Fe  Fe38      1.0  0.78329  0.13788  0.23340  1.0000
  S   S75       1.0  0.84149  0.13932  0.21666  1.0000
  Fe  Fe39      1.0  0.74740  0.14217  0.27391  1.0000
  S   S76       1.0  0.75512  0.13069  0.30608  1.0000
  S   S77       1.0  0.73482  0.15414  0.21833  1.0000
  S   S78       1.0  0.69605  0.15899  0.26199  1.0000
  Fe  Fe40      1.0  0.96920  0.46978  0.17085  1.0000
  H   H225      1.0  0.78195  0.48767  0.14353  1.0000
  S   S79       1.0  0.93309  0.39444  0.17752  1.0000
  C   C219      1.0  0.62755  0.18951  0.22153  1.0000
  H   H226      1.0  0.78172  0.04241  0.22271  1.0000
  H   H227      1.0  0.73388  0.26323  0.31963  1.0000
  C   C220      1.0  0.87273  0.08890  0.25583  1.0000
  C   C221      1.0  0.82493  0.09423  0.28060  1.0000
  C   C222      1.0  0.78918  0.17712  0.32105  1.0000
  C   C223      1.0  0.80747  0.22138  0.31406  1.0000
  C   C224      1.0  0.83029  0.25774  0.32688  1.0000
  C   C225      1.0  0.72684  0.24702  0.18733  1.0000
  C   C226      1.0  0.66324  0.16999  0.18889  1.0000
  H   H228      1.0  0.80264  0.22766  0.29896  1.0000
  H   H229      1.0  0.94431  0.13200  0.23426  1.0000
  C   C227      1.0  0.81502  0.31075  0.21986  1.0000
  C   C228      1.0  0.83904  0.29214  0.21104  1.0000
  C   C229      1.0  0.87520  0.31845  0.19822  1.0000
  C   C230      1.0  0.88816  0.36376  0.19428  1.0000
  C   C231      1.0  0.86446  0.38261  0.20326  1.0000
  C   C232      1.0  0.82780  0.35604  0.21592  1.0000
  H   H230      1.0  0.82956  0.25732  0.21393  1.0000
  H   H231      1.0  0.89328  0.30358  0.19133  1.0000
  H   H232      1.0  0.87410  0.41744  0.20030  1.0000
  H   H233      1.0  0.80936  0.37068  0.22268  1.0000
  C   C233      1.0  0.85780  0.01741  0.20157  1.0000
  S   S80       1.0  0.97542  0.48919  0.13892  1.0000
  H   H234      1.0  0.93288  0.17765  0.23149  1.0000
  N   N19       1.0  0.68426  0.21274  0.19625  1.0000
  H   H235      1.0  0.81263  0.03172  0.26763  1.0000
  C   C234      1.0  0.84546  0.09144  0.21011  1.0000
  C   C235      1.0  0.88470  0.09790  0.20049  1.0000
  C   C236      1.0  0.89100  0.06109  0.19631  1.0000
  H   H236      1.0  0.73889  0.49378  0.07398  1.0000
  H   H237      1.0  0.77377  0.45638  0.09255  1.0000
  H   H238      1.0  0.91057  0.13162  0.19634  1.0000
  C   C237      1.0  0.79479  0.48685  0.08410  1.0000
  H   H239      1.0  0.85727  0.49127  0.09305  1.0000
  C   C238      1.0  0.89004  0.16084  0.26784  1.0000
  H   H240      1.0  0.57859  0.07431  0.26225  1.0000
  H   H241      1.0  0.57580  0.11945  0.22124  1.0000
  C   C239      1.0  0.83472  0.06796  0.26809  1.0000
  C   C240      1.0  0.93870  0.15688  0.24246  1.0000
  H   H242      1.0  0.73725  0.28141  0.19285  1.0000
  H   H243      1.0  0.91065  0.19731  0.26741  1.0000
  C   C241      1.0  0.55899  0.03281  0.23661  1.0000
  H   H244      1.0  0.84519  0.16168  0.29009  1.0000
  H   H245      1.0  0.68401  0.25637  0.21849  1.0000
  C   C242      1.0  0.60579  0.14594  0.21404  1.0000
  H   H246      1.0  0.87969  0.06825  0.24594  1.0000
  H   H247      1.0  0.60769  0.10177  0.19216  1.0000
  H   H248      1.0  0.72398  0.24777  0.17117  1.0000
  C   C243      1.0  0.70117  0.19305  0.32811  1.0000
  H   H249      1.0  0.92149  0.06652  0.18897  1.0000
  H   H250      1.0  0.79528  0.07860  0.29006  1.0000
  H   H251      1.0  0.96970  0.17888  0.25076  1.0000
  C   C244      1.0  0.85291  0.14093  0.28060  1.0000
  N   N20       1.0  0.89973  0.13482  0.25578  1.0000
  H   H252      1.0  0.69052  0.18076  0.31337  1.0000
  H   H253      1.0  0.84296  0.29189  0.32154  1.0000
  C   C245      1.0  0.66691  0.22276  0.21236  1.0000
  C   C246      1.0  0.55066  0.04914  0.25396  1.0000
  H   H254      1.0  0.61455  0.19726  0.23459  1.0000
  C   C247      1.0  0.62360  0.13606  0.19759  1.0000
  C   C248      1.0  0.81205  0.04771  0.21528  1.0000
  S   S81       1.0  0.99958  0.02011  0.19609  1.0000
  H   H255      1.0  0.75409  0.23948  0.19104  1.0000
  H   H256      1.0  0.67779  0.16159  0.17657  1.0000
  N   N21       1.0  0.56410  0.48159  0.59562  1.0000
  H   H257      1.0  0.89846  0.05882  0.45777  1.0000
  H   H258      1.0  0.78180  0.13531  0.34615  1.0000
  Fe  Fe41      1.0  0.54719  0.07370  0.47599  1.0000
  S   S82       1.0  0.59114  0.12438  0.45267  1.0000
  S   S83       1.0  0.56802  0.06948  0.50656  1.0000
  Fe  Fe42      1.0  0.87878  0.29305  0.39388  1.0000
  S   S84       1.0  0.85544  0.31993  0.41886  1.0000
  S   S85       1.0  0.85739  0.29635  0.36284  1.0000
  Fe  Fe43      1.0  0.93974  0.27401  0.41986  1.0000
  S   S86       1.0  0.92254  0.30082  0.44627  1.0000
  H   H259      1.0  0.82597  0.11887  0.49470  1.0000
  Fe  Fe44      1.0  0.85131  0.26129  0.43589  1.0000
  S   S87       1.0  0.80334  0.21499  0.45928  1.0000
  Fe  Fe45      1.0  0.92880  0.35758  0.42700  1.0000
  H   H260      1.0  0.72208  0.22986  0.39574  1.0000
  S   S88       1.0  0.86820  0.23127  0.41024  1.0000
  S   S89       1.0  0.95242  0.33396  0.40117  1.0000
  N   N22       1.0  0.84899  0.12242  0.46504  1.0000
  H   H261      1.0  0.79407  0.12834  0.47620  1.0000
  C   C249      1.0  0.00782  0.03642  0.57801  1.0000
  C   C250      1.0  0.51248  0.41587  0.61426  1.0000
  C   C251      1.0  0.88485  0.08080  0.45432  1.0000
  C   C252      1.0  0.65009  0.14857  0.45427  1.0000
  C   C253      1.0  0.67800  0.18048  0.44014  1.0000
  C   C254      1.0  0.72518  0.20105  0.44141  1.0000
  C   C255      1.0  0.74453  0.18992  0.45691  1.0000
  C   C256      1.0  0.71661  0.15813  0.47104  1.0000
  C   C257      1.0  0.66955  0.13734  0.46968  1.0000
  H   H262      1.0  0.66302  0.18946  0.42828  1.0000
  H   H263      1.0  0.74660  0.22592  0.43064  1.0000
  H   H264      1.0  0.73139  0.14951  0.48310  1.0000
  H   H265      1.0  0.64839  0.11255  0.48053  1.0000
  C   C258      1.0  0.83535  0.25016  0.34671  1.0000
  C   C259      1.0  0.81888  0.20593  0.35349  1.0000
  C   C260      1.0  0.96247  0.21200  0.45901  1.0000
  C   C261      1.0  0.56429  0.19376  0.48321  1.0000
  C   C262      1.0  0.00341  0.18340  0.44053  1.0000
  C   C263      1.0  0.56990  0.21064  0.52303  1.0000
  C   C264      1.0  0.70839  0.17891  0.36220  1.0000
  N   N23       1.0  0.73285  0.22431  0.36546  1.0000
  H   H266      1.0  0.61086  0.17015  0.48871  1.0000
  H   H267      1.0  0.52200  0.23352  0.51812  1.0000
  C   C265      1.0  0.97789  0.15556  0.47370  1.0000
  C   C266      1.0  0.98392  0.21125  0.44163  1.0000
  H   H268      1.0  0.82263  0.19971  0.36872  1.0000
  H   H269      1.0  0.64582  0.17510  0.51875  1.0000
  H   H270      1.0  0.77190  0.22598  0.38979  1.0000
  C   C267      1.0  0.95983  0.18458  0.47499  1.0000
  H   H271      1.0  0.94751  0.23334  0.46013  1.0000
  C   C268      1.0  0.69240  0.16259  0.34347  1.0000
  C   C269      1.0  0.51429  0.44321  0.62971  1.0000
  C   C270      1.0  0.98173  0.48669  0.40966  1.0000
  C   C271      1.0  0.82849  0.13613  0.48053  1.0000
  S   S90       1.0  0.96593  0.42738  0.44090  1.0000
  C   C272      1.0  0.87545  0.13013  0.43178  1.0000
  C   C273      1.0  0.79572  0.16952  0.34069  1.0000
  H   H272      1.0  0.59953  0.15034  0.53600  1.0000
  C   C274      1.0  0.74140  0.25446  0.35049  1.0000
  H   H273      1.0  0.94265  0.18502  0.48828  1.0000
  H   H274      1.0  0.86151  0.07930  0.48366  1.0000
  H   H275      1.0  0.51680  0.21797  0.48242  1.0000
  C   C275      1.0  0.75033  0.24021  0.38511  1.0000
  N   N24       1.0  0.59446  0.19310  0.51483  1.0000
  H   H276      1.0  0.84902  0.17315  0.48281  1.0000
  H   H277      1.0  0.88131  0.14637  0.41751  1.0000
  H   H278      1.0  0.64184  0.20925  0.53771  1.0000
  S   S91       1.0  0.00402  0.05773  0.52935  1.0000
  H   H279      1.0  0.90897  0.09271  0.42444  1.0000
  H   H280      1.0  0.53531  0.41435  0.58505  1.0000
  H   H281      1.0  0.56176  0.18597  0.46771  1.0000
  H   H282      1.0  0.97393  0.00971  0.57483  1.0000
  H   H283      1.0  0.57038  0.21553  0.53873  1.0000
  H   H284      1.0  0.76218  0.29044  0.35287  1.0000
  C   C276      1.0  0.98712  0.48143  0.42961  1.0000
  H   H285      1.0  0.77183  0.27756  0.38553  1.0000
  C   C277      1.0  0.85419  0.14083  0.44671  1.0000
  H   H286      1.0  0.70222  0.15506  0.37400  1.0000
  C   C278      1.0  0.62188  0.18145  0.52742  1.0000
  C   C279      1.0  0.53785  0.43572  0.59724  1.0000
  H   H287      1.0  0.84292  0.16488  0.44373  1.0000
  C   C280      1.0  0.53918  0.21171  0.49145  1.0000
  S   S92       1.0  0.98601  0.24397  0.42100  1.0000
  C   C281      1.0  0.59195  0.18465  0.49519  1.0000
  C   C282      1.0  0.86390  0.09264  0.46897  1.0000
  C   C283      1.0  0.89094  0.10000  0.43567  1.0000
  H   H288      1.0  0.96385  0.45722  0.40060  1.0000
  H   H289      1.0  0.57104  0.48267  0.56459  1.0000
  C   C284      1.0  0.54171  0.48994  0.62807  1.0000
  C   C285      1.0  0.54224  0.22062  0.51146  1.0000
  C   C286      1.0  0.00015  0.15536  0.45646  1.0000
  H   H290      1.0  0.98561  0.08361  0.58574  1.0000
  H   H291      1.0  0.67474  0.12661  0.34069  1.0000
  S   S93       1.0  0.96774  0.11756  0.49337  1.0000
  Fe  Fe46      1.0  0.99201  0.06680  0.49763  1.0000
  H   H292      1.0  0.62255  0.50099  0.57818  1.0000
  C   C287      1.0  0.59041  0.50158  0.57764  1.0000
  C   C288      1.0  0.98869  0.13056  0.88043  1.0000
  C   C289      1.0  0.66767  0.47769  0.90472  1.0000
  H   H293      1.0  0.52082  0.34515  0.78807  1.0000
  C   C290      1.0  0.62831  0.45785  0.89362  1.0000
  S   S94       1.0  0.87593  0.02874  0.81731  1.0000
  C   C291      1.0  0.91797  0.14466  0.83756  1.0000
  C   C292      1.0  0.97461  0.16072  0.88698  1.0000
  H   H294      1.0  0.69643  0.47421  0.90044  1.0000
  H   H295      1.0  0.00648  0.18471  0.93528  1.0000
  H   H296      1.0  0.79476  0.48061  0.87132  1.0000
  C   C293      1.0  0.52861  0.04949  0.76542  1.0000
  C   C294      1.0  0.92020  0.18186  0.84701  1.0000
  Fe  Fe47      1.0  0.93222  0.01367  0.82419  1.0000
  H   H297      1.0  0.93909  0.15022  0.88727  1.0000
  C   C295      1.0  0.82916  0.48897  0.86800  1.0000
  H   H298      1.0  0.91581  0.44227  0.93494  1.0000
  H   H299      1.0  0.96406  0.09701  0.87582  1.0000
  C   C296      1.0  0.89253  0.47981  0.87407  1.0000
  H   H300      1.0  0.55248  0.06972  0.77650  1.0000
  C   C297      1.0  0.82315  0.43565  0.89354  1.0000
  H   H301      1.0  0.53328  0.40503  0.88970  1.0000
  H   H302      1.0  0.90835  0.46393  0.88210  1.0000
  H   H303      1.0  0.79271  0.02608  0.80861  1.0000
  H   H304      1.0  0.88565  0.11500  0.83466  1.0000
  C   C298      1.0  0.95764  0.14552  0.83189  1.0000
  H   H305      1.0  0.88958  0.18138  0.85170  1.0000
  H   H306      1.0  0.52872  0.45557  0.88995  1.0000
  H   H307      1.0  0.84478  0.42639  0.90230  1.0000
  C   C299      1.0  0.53056  0.01236  0.75760  1.0000
  H   H308      1.0  0.62681  0.43856  0.88080  1.0000
  C   C300      1.0  0.94370  0.46484  0.92555  1.0000
  H   H309      1.0  0.56770  0.49577  0.91765  1.0000
  C   C301      1.0  0.97773  0.45423  0.92098  1.0000
  H   H310      1.0  0.80874  0.45003  0.90405  1.0000
  N   N25       1.0  0.84908  0.46908  0.87824  1.0000
  H   H311      1.0  0.79567  0.40470  0.88691  1.0000
  H   H312      1.0  0.97584  0.42380  0.92684  1.0000
  C   C302      1.0  0.94531  0.50419  0.91809  1.0000
  S   S95       1.0  0.98750  0.24225  0.90006  1.0000
  N   N26       1.0  0.59278  0.46398  0.89843  1.0000
  H   H313      1.0  0.96381  0.24805  0.85826  1.0000
  C   C303      1.0  0.00619  0.20439  0.89297  1.0000
  C   C304      1.0  0.55164  0.44190  0.88674  1.0000
  C   C305      1.0  0.99920  0.18348  0.83593  1.0000
  H   H314      1.0  0.56013  0.44828  0.87087  1.0000
  H   H315      1.0  0.95596  0.11668  0.82452  1.0000
  C   C306      1.0  0.59532  0.48978  0.91418  1.0000
  C   C307      1.0  0.96231  0.21952  0.85063  1.0000
  S   S96       1.0  0.00502  0.06728  0.82263  1.0000
  N   N27       1.0  0.00112  0.21973  0.84532  1.0000
  H   H316      1.0  0.99828  0.22422  0.96420  1.0000
  C   C308      1.0  0.67047  0.50382  0.92085  1.0000
  Fe  Fe48      1.0  0.96261  0.94470  0.15030  1.0000
  S   S97       1.0  0.93748  0.89781  0.12418  1.0000
  S   S98       1.0  0.93571  0.91824  0.18029  1.0000
  S   S99       1.0  0.86475  0.97048  0.19668  1.0000
  C   C309      1.0  0.77448  0.61201  0.15579  1.0000
  C   C310      1.0  0.90028  0.66782  0.15124  1.0000
  Fe  Fe49      1.0  0.74909  0.63129  0.06591  1.0000
  S   S100      1.0  0.69819  0.55890  0.07207  1.0000
  S   S101      1.0  0.80435  0.65295  0.04293  1.0000
  Fe  Fe50      1.0  0.72573  0.66399  0.10359  1.0000
  S   S102      1.0  0.67272  0.59352  0.11260  1.0000
  S   S103      1.0  0.74478  0.72110  0.12506  1.0000
  Fe  Fe51      1.0  0.72348  0.57363  0.10288  1.0000
  H   H317      1.0  0.90459  0.56295  0.07531  1.0000
  Fe  Fe52      1.0  0.65147  0.58493  0.08106  1.0000
  S   S104      1.0  0.58008  0.55073  0.06856  1.0000
  S   S105      1.0  0.77724  0.64434  0.09627  1.0000
  S   S106      1.0  0.70141  0.65734  0.07255  1.0000
  H   H318      1.0  0.79236  0.97703  0.21504  1.0000
  Fe  Fe53      1.0  0.93043  0.98086  0.18356  1.0000
  C   C311      1.0  0.84980  0.92625  0.12509  1.0000
  C   C312      1.0  0.87487  0.59290  0.11627  1.0000
  C   C313      1.0  0.82949  0.57988  0.11359  1.0000
  S   S107      1.0  0.95294  0.00526  0.15276  1.0000
  H   H319      1.0  0.90069  0.62236  0.10861  1.0000
  H   H320      1.0  0.82085  0.59859  0.10353  1.0000
  C   C314      1.0  0.91056  0.70950  0.14309  1.0000
  C   C315      1.0  0.88581  0.84626  0.12531  1.0000
  C   C316      1.0  0.87077  0.81892  0.10864  1.0000
  C   C317      1.0  0.82822  0.77951  0.10856  1.0000
  C   C318      1.0  0.80026  0.76740  0.12514  1.0000
  C   C319      1.0  0.81591  0.79377  0.14203  1.0000
  C   C320      1.0  0.85846  0.83301  0.14212  1.0000
  H   H321      1.0  0.89172  0.82881  0.09557  1.0000
  H   H322      1.0  0.81655  0.75935  0.09547  1.0000
  H   H323      1.0  0.79462  0.78444  0.15497  1.0000
  H   H324      1.0  0.86944  0.85360  0.15504  1.0000
  C   C321      1.0  0.79216  0.63360  0.01865  1.0000
  H   H325      1.0  0.84765  0.60357  0.16159  1.0000
  H   H326      1.0  0.72015  0.60219  0.02193  1.0000
  H   H327      1.0  0.76997  0.57782  0.15845  1.0000
  N   N28       1.0  0.84865  0.56753  0.06414  1.0000
  H   H328      1.0  0.85297  0.94912  0.15461  1.0000
  C   C322      1.0  0.83298  0.92321  0.14411  1.0000
  H   H329      1.0  0.79879  0.87749  0.17981  1.0000
  C   C323      1.0  0.76741  0.85410  0.13657  1.0000
  C   C324      1.0  0.87662  0.61134  0.05449  1.0000
  H   H330      1.0  0.88356  0.75143  0.13316  1.0000
  N   N29       1.0  0.82157  0.64538  0.15144  1.0000
  H   H331      1.0  0.74146  0.85699  0.17210  1.0000
  H   H332      1.0  0.77919  0.91656  0.17448  1.0000
  C   C325      1.0  0.74787  0.60947  0.01203  1.0000
  S   S108      1.0  0.96062  0.52817  0.18064  1.0000
  C   C326      1.0  0.85534  0.63611  0.15553  1.0000
  H   H333      1.0  0.86423  0.61115  0.03945  1.0000
  H   H334      1.0  0.94522  0.73431  0.13957  1.0000
  C   C327      1.0  0.87599  0.71904  0.13941  1.0000
  N   N30       1.0  0.79232  0.88744  0.14962  1.0000
  H   H335      1.0  0.75284  0.60896  0.14313  1.0000
  C   C328      1.0  0.77691  0.88420  0.16996  1.0000
  H   H336      1.0  0.78737  0.56520  0.05600  1.0000
  H   H337      1.0  0.80465  0.69377  0.14074  1.0000
  H   H338      1.0  0.76245  0.62232  0.16886  1.0000
  H   H339      1.0  0.73595  0.82481  0.14105  1.0000
  H   H340      1.0  0.92676  0.65958  0.15383  1.0000
  H   H341      1.0  0.88287  0.95370  0.12096  1.0000
  H   H342      1.0  0.83829  0.89353  0.09717  1.0000
  H   H343      1.0  0.76411  0.82885  0.10732  1.0000
  S   S109      1.0  0.73853  0.52602  0.12035  1.0000
  C   C329      1.0  0.78310  0.85624  0.11739  1.0000
  C   C330      1.0  0.88710  0.56808  0.12870  1.0000
  S   S110      1.0  0.94474  0.58721  0.13162  1.0000
  Fe  Fe54      1.0  0.97314  0.55043  0.14904  1.0000
  H   H344      1.0  0.55246  0.52510  0.10960  1.0000
  H   H345      1.0  0.91246  0.62004  0.05325  1.0000
  C   C331      1.0  0.83143  0.68637  0.14372  1.0000
  H   H346      1.0  0.87471  0.63820  0.06289  1.0000
  C   C332      1.0  0.79576  0.54223  0.12348  1.0000
  C   C333      1.0  0.82788  0.64300  0.00566  1.0000
  C   C334      1.0  0.82469  0.89247  0.11169  1.0000
  C   C335      1.0  0.86822  0.54712  0.07431  1.0000
  Fe  Fe55      1.0  0.00731  0.95968  0.19000  1.0000
  C   C336      1.0  0.80279  0.54849  0.06374  1.0000
  C   C337      1.0  0.85356  0.52992  0.13848  1.0000
  H   H347      1.0  0.86224  0.66178  0.01069  1.0000
  H   H348      1.0  0.86283  0.51061  0.14812  1.0000
  H   H349      1.0  0.52812  0.98727  0.21257  1.0000
  C   C338      1.0  0.52211  0.00010  0.22603  1.0000
  C   C339      1.0  0.52254  0.51365  0.10084  1.0000
  C   C340      1.0  0.52683  0.52284  0.08071  1.0000
  C   C341      1.0  0.80788  0.51707  0.13589  1.0000
  C   C342      1.0  0.84160  0.50641  0.08438  1.0000
  C   C343      1.0  0.77518  0.50792  0.07371  1.0000
  S   S111      1.0  0.51123  0.99899  0.47121  1.0000
  C   C344      1.0  0.58899  0.89957  0.63511  1.0000
  S   S112      1.0  0.91346  0.94121  0.54857  1.0000
  C   C345      1.0  0.65048  0.84945  0.51111  1.0000
  C   C346      1.0  0.64270  0.88014  0.50062  1.0000
  Fe  Fe56      1.0  0.58156  0.69460  0.58874  1.0000
  S   S113      1.0  0.65557  0.74278  0.59386  1.0000
  H   H350      1.0  0.56700  0.77923  0.63993  1.0000
  Fe  Fe57      1.0  0.56678  0.77106  0.57288  1.0000
  S   S114      1.0  0.63880  0.82398  0.57701  1.0000
  S   S115      1.0  0.54582  0.62253  0.60124  1.0000
  Fe  Fe58      1.0  0.65523  0.77323  0.56450  1.0000
  S   S116      1.0  0.70557  0.79605  0.53912  1.0000
  Fe  Fe59      1.0  0.63281  0.78966  0.60589  1.0000
  S   S117      1.0  0.66359  0.83325  0.63257  1.0000
  S   S118      1.0  0.58263  0.72143  0.55840  1.0000
  S   S119      1.0  0.55945  0.74028  0.60272  1.0000
  S   S120      1.0  0.56857  0.96022  0.51076  1.0000
  C   C347      1.0  0.92954  0.80368  0.48944  1.0000
  C   C348      1.0  0.61408  0.80843  0.51721  1.0000
  H   H351      1.0  0.94108  0.81042  0.43314  1.0000
  C   C349      1.0  0.55243  0.91716  0.52851  1.0000
  C   C350      1.0  0.58580  0.90907  0.53616  1.0000
  C   C351      1.0  0.57411  0.87010  0.54732  1.0000
  H   H352      1.0  0.62086  0.93210  0.53268  1.0000
  H   H353      1.0  0.60014  0.86337  0.55226  1.0000
  H   H354      1.0  0.59255  0.89373  0.48865  1.0000
  H   H355      1.0  0.63576  0.90230  0.61291  1.0000
  H   H356      1.0  0.95453  0.75521  0.45159  1.0000
  H   H357      1.0  0.92823  0.80293  0.50531  1.0000
  C   C352      1.0  0.94404  0.77634  0.45927  1.0000
  H   H358      1.0  0.67068  0.91243  0.49602  1.0000
  C   C353      1.0  0.85529  0.90252  0.54553  1.0000
  C   C354      1.0  0.83626  0.88916  0.52698  1.0000
  C   C355      1.0  0.79032  0.85663  0.52523  1.0000
  C   C356      1.0  0.76285  0.83777  0.54197  1.0000
  C   C357      1.0  0.78171  0.85181  0.56048  1.0000
  C   C358      1.0  0.82780  0.88372  0.56223  1.0000
  H   H359      1.0  0.85699  0.90352  0.51402  1.0000
  H   H360      1.0  0.77597  0.84594  0.51086  1.0000
  H   H361      1.0  0.76097  0.83751  0.57347  1.0000
  H   H362      1.0  0.84219  0.89378  0.57663  1.0000
  C   C359      1.0  0.57020  0.79880  0.51299  1.0000
  C   C360      1.0  0.62830  0.83334  0.65149  1.0000
  C   C361      1.0  0.58198  0.80302  0.65164  1.0000
  C   C362      1.0  0.56682  0.50867  0.61087  1.0000
  C   C363      1.0  0.53272  0.89312  0.65948  1.0000
  N   N31       1.0  0.92196  0.83380  0.47916  1.0000
  H   H363      1.0  0.92241  0.86187  0.45109  1.0000
  H   H364      1.0  0.52102  0.52198  0.54534  1.0000
  Fe  Fe60      1.0  0.96065  0.98359  0.52393  1.0000
  C   C364      1.0  0.94054  0.77441  0.47965  1.0000
  S   S121      1.0  0.51298  0.78665  0.56252  1.0000
  C   C365      1.0  0.52169  0.84104  0.61031  1.0000
  C   C366      1.0  0.51124  0.85222  0.62854  1.0000
  C   C367      1.0  0.91347  0.86626  0.48968  1.0000
  H   H365      1.0  0.94808  0.75158  0.48780  1.0000
  C   C368      1.0  0.93650  0.80731  0.44892  1.0000
  C   C369      1.0  0.92575  0.83620  0.45917  1.0000
  H   H366      1.0  0.54206  0.76727  0.51828  1.0000
  H   H367      1.0  0.61567  0.92198  0.64480  1.0000
  C   C370      1.0  0.99888  0.53029  0.40143  1.0000
  S   S122      1.0  0.94493  0.99254  0.49294  1.0000
  H   H368      1.0  0.94599  0.89736  0.49241  1.0000
  H   H369      1.0  0.89190  0.87567  0.48101  1.0000
  H   H370      1.0  0.57509  0.85111  0.59052  1.0000
  H   H371      1.0  0.68457  0.85736  0.51466  1.0000
  C   C371      1.0  0.52885  0.83894  0.55103  1.0000
  C   C372      1.0  0.51170  0.52434  0.56029  1.0000
  C   C373      1.0  0.52932  0.56711  0.56900  1.0000
  N   N32       1.0  0.54474  0.88102  0.64070  1.0000
  H   H372      1.0  0.55204  0.59725  0.56081  1.0000
  Fe  Fe61      1.0  0.52815  0.99432  0.50273  1.0000
  H   H373      1.0  0.68389  0.76999  0.65832  1.0000
  C   C374      1.0  0.59840  0.86924  0.49642  1.0000
  H   H374      1.0  0.00402  0.96633  0.56140  1.0000
  H   H375      1.0  0.89600  0.85225  0.50395  1.0000
  N   N33       1.0  0.56285  0.82925  0.50284  1.0000
  H   H376      1.0  0.58692  0.54513  0.60947  1.0000
  C   C375      1.0  0.60063  0.88880  0.61705  1.0000
  C   C376      1.0  0.56667  0.85958  0.60459  1.0000
  C   C377      1.0  0.51886  0.57056  0.58852  1.0000
  H   H377      1.0  0.59774  0.53695  0.57554  1.0000
  C   C378      1.0  0.51668  0.81813  0.49818  1.0000
  H   H378      1.0  0.99395  0.53390  0.38603  1.0000
  H   H379      1.0  0.61997  0.78446  0.52532  1.0000
  H   H380      1.0  0.54267  0.51169  0.63980  1.0000
  H   H381      1.0  0.60226  0.71642  0.66305  1.0000
  H   H382      1.0  0.51405  0.84921  0.49641  1.0000
  H   H383      1.0  0.52077  0.91765  0.65709  1.0000
  H   H384      1.0  0.68303  0.88782  0.66677  1.0000
  C   C379      1.0  0.64723  0.86403  0.66688  1.0000
  C   C380      1.0  0.55487  0.80305  0.66717  1.0000
  H   H385      1.0  0.51906  0.77934  0.66723  1.0000
  Fe  Fe62      1.0  0.00799  0.99000  0.48503  1.0000
  Fe  Fe63      1.0  0.56584  0.84721  0.77364  1.0000
  S   S123      1.0  0.60503  0.84057  0.74894  1.0000
  S   S124      1.0  0.52384  0.50602  0.81886  1.0000
  Fe  Fe64      1.0  0.58210  0.93952  0.75901  1.0000
  S   S125      1.0  0.62436  0.94006  0.73322  1.0000
  H   H386      1.0  0.52986  0.67040  0.75928  1.0000
  Fe  Fe65      1.0  0.57055  0.86766  0.73001  1.0000
  C   C381      1.0  0.91212  0.75700  0.94527  1.0000
  Fe  Fe66      1.0  0.65588  0.91298  0.75448  1.0000
  S   S126      1.0  0.72643  0.92209  0.75328  1.0000
  C   C382      1.0  0.83491  0.99899  0.79933  1.0000
  S   S127      1.0  0.61856  0.91826  0.78055  1.0000
  H   H387      1.0  0.53846  0.74662  0.76321  1.0000
  C   C383      1.0  0.91768  0.51232  0.85975  1.0000
  H   H388      1.0  0.81017  0.92553  0.76170  1.0000
  Fe  Fe67      1.0  0.95329  0.94605  0.84427  1.0000
  S   S128      1.0  0.90710  0.87232  0.85311  1.0000
  S   S129      1.0  0.94608  0.96038  0.81257  1.0000
  Fe  Fe68      1.0  0.89482  0.66164  0.90562  1.0000
  S   S130      1.0  0.88871  0.60449  0.88693  1.0000
  S   S131      1.0  0.94739  0.73548  0.90111  1.0000
  Fe  Fe69      1.0  0.81670  0.59945  0.93243  1.0000
  S   S132      1.0  0.80491  0.53821  0.91585  1.0000
  S   S133      1.0  0.76298  0.58922  0.95469  1.0000
  Fe  Fe70      1.0  0.88030  0.56750  0.91551  1.0000
  Fe  Fe71      1.0  0.52467  0.52544  0.85042  1.0000
  Fe  Fe72      1.0  0.81405  0.57950  0.88897  1.0000
  C   C384      1.0  0.53194  0.68382  0.77379  1.0000
  S   S134      1.0  0.89132  0.62639  0.93434  1.0000
  S   S135      1.0  0.82122  0.63924  0.90538  1.0000
  C   C385      1.0  0.78820  0.69929  0.93622  1.0000
  H   H389      1.0  0.98750  0.88472  0.87389  1.0000
  S   S136      1.0  0.58007  0.54737  0.87288  1.0000
  H   H390      1.0  0.70110  0.52007  0.92937  1.0000
  C   C386      1.0  0.77512  0.60520  0.97940  1.0000
  C   C387      1.0  0.81941  0.62845  0.98613  1.0000
  S   S137      1.0  0.53874  0.83251  0.70175  1.0000
  H   H391      1.0  0.98328  0.56327  0.90003  1.0000
  H   H392      1.0  0.84712  0.63566  0.97627  1.0000
  S   S138      1.0  0.53789  0.79517  0.79811  1.0000
  H   H393      1.0  0.72546  0.82775  0.68328  1.0000
  C   C388      1.0  0.71479  0.55014  0.86548  1.0000
  C   C389      1.0  0.63278  0.55112  0.86848  1.0000
  C   C390      1.0  0.66680  0.57331  0.88229  1.0000
  C   C391      1.0  0.70756  0.57288  0.88079  1.0000
  H   H394      1.0  0.66120  0.59011  0.89448  1.0000
  H   H395      1.0  0.73272  0.58905  0.89187  1.0000
  S   S139      1.0  0.51624  0.60101  0.78694  1.0000
  C   C392      1.0  0.76267  0.98015  0.78460  1.0000
  S   S140      1.0  0.89985  0.51403  0.92361  1.0000
  C   C393      1.0  0.92067  0.83473  0.86544  1.0000
  C   C394      1.0  0.96203  0.84944  0.87465  1.0000
  C   C395      1.0  0.97018  0.81847  0.88514  1.0000
  C   C396      1.0  0.93728  0.77255  0.88641  1.0000
  C   C397      1.0  0.89622  0.75777  0.87693  1.0000
  C   C398      1.0  0.88791  0.78876  0.86663  1.0000
  C   C399      1.0  0.82558  0.76062  0.91297  1.0000
  H   H396      1.0  0.82456  0.78000  0.90050  1.0000
  H   H397      1.0  0.87063  0.72256  0.87772  1.0000
  H   H398      1.0  0.85588  0.77700  0.85950  1.0000
  C   C400      1.0  0.83008  0.71099  0.94428  1.0000
  C   C401      1.0  0.62012  0.86397  0.68247  1.0000
  H   H399      1.0  0.63486  0.88791  0.69423  1.0000
  C   C402      1.0  0.76761  0.95207  0.77118  1.0000
  C   C403      1.0  0.80606  0.94715  0.77204  1.0000
  H   H400      1.0  0.91696  0.55882  0.83840  1.0000
  S   S141      1.0  0.56972  0.99753  0.76744  1.0000
  C   C404      1.0  0.57392  0.83318  0.68270  1.0000
  C   C405      1.0  0.59890  0.74387  0.69100  1.0000
  C   C406      1.0  0.64022  0.52924  0.85282  1.0000
  H   H401      1.0  0.95256  0.52167  0.85696  1.0000
  H   H402      1.0  0.89739  0.79984  0.91556  1.0000
  H   H403      1.0  0.70509  0.57768  0.98731  1.0000
  S   S142      1.0  0.93567  0.99730  0.85579  1.0000
  H   H404      1.0  0.53684  0.73103  0.82570  1.0000
  C   C407      1.0  0.86683  0.77160  0.92152  1.0000
  C   C408      1.0  0.63417  0.51003  0.92563  1.0000
  H   H405      1.0  0.83727  0.53738  0.84556  1.0000
  N   N34       1.0  0.66837  0.80599  0.70229  1.0000
  C   C409      1.0  0.78606  0.72407  0.92034  1.0000
  H   H406      1.0  0.73326  0.98427  0.78404  1.0000
  H   H407      1.0  0.75782  0.67053  0.94204  1.0000
  C   C410      1.0  0.85305  0.52106  0.85335  1.0000
  S   S143      1.0  0.52623  0.86845  0.75442  1.0000
  C   C411      1.0  0.73943  0.59564  0.99242  1.0000
  N   N35       1.0  0.86872  0.74641  0.93677  1.0000
  H   H408      1.0  0.68267  0.82831  0.73184  1.0000
  H   H409      1.0  0.56288  0.72178  0.69287  1.0000
  C   C412      1.0  0.83939  0.97017  0.78617  1.0000
  H   H410      1.0  0.86885  0.96613  0.78669  1.0000
  H   H411      1.0  0.72971  0.85612  0.71544  1.0000
  N   N36       1.0  0.74886  0.87006  0.80935  1.0000
  C   C413      1.0  0.75813  0.90384  0.82236  1.0000
  C   C414      1.0  0.77590  0.85101  0.80826  1.0000
  C   C415      1.0  0.79585  0.92006  0.83442  1.0000
  C   C416      1.0  0.81380  0.86631  0.82019  1.0000
  C   C417      1.0  0.82376  0.90111  0.83328  1.0000
  C   C418      1.0  0.70888  0.85288  0.79695  1.0000
  H   H412      1.0  0.73705  0.91931  0.82313  1.0000
  H   H413      1.0  0.76840  0.82401  0.79807  1.0000
  H   H414      1.0  0.80420  0.94805  0.84418  1.0000
  H   H415      1.0  0.83562  0.85160  0.81931  1.0000
  H   H416      1.0  0.85326  0.91352  0.84245  1.0000
  C   C419      1.0  0.68114  0.52868  0.85136  1.0000
  C   C420      1.0  0.69018  0.80354  0.68585  1.0000
  H   H417      1.0  0.69634  0.87732  0.79574  1.0000
  C   C421      1.0  0.69262  0.84160  0.71664  1.0000
  C   C422      1.0  0.98152  0.53292  0.90592  1.0000
  H   H418      1.0  0.75390  0.71473  0.91367  1.0000
  C   C423      1.0  0.66691  0.77076  0.67170  1.0000
  C   C424      1.0  0.89774  0.53309  0.84936  1.0000
  C   C425      1.0  0.62323  0.77695  0.70489  1.0000
  H   H419      1.0  0.63655  0.53115  0.93790  1.0000
  H   H420      1.0  0.71707  0.84753  0.78177  1.0000
  H   H421      1.0  0.83151  0.69107  0.95638  1.0000
  H   H422      1.0  0.68136  0.82062  0.80306  1.0000
  H   H423      1.0  0.61414  0.51198  0.84210  1.0000
  C   C426      1.0  0.53049  0.67480  0.80895  1.0000
  S   S144      1.0  0.76426  0.54578  0.86449  1.0000
  H   H424      1.0  0.68497  0.86941  0.71448  1.0000
  C   C427      1.0  0.53578  0.71809  0.81117  1.0000
  H   H425      1.0  0.56180  0.90820  0.66962  1.0000
  H   H426      1.0  0.60547  0.77998  0.71750  1.0000
  C   C428      1.0  0.52770  0.65710  0.79026  1.0000
  C   C429      1.0  0.62097  0.74082  0.67431  1.0000
  H   H427      1.0  0.52797  0.65498  0.82173  1.0000
  H   H428      1.0  0.94096  0.78445  0.93702  1.0000
  C   C430      1.0  0.53715  0.72715  0.77599  1.0000
  C   C431      1.0  0.53830  0.74410  0.79472  1.0000
  H   H429      1.0  0.91667  0.72695  0.94455  1.0000
  H   H430      1.0  0.68649  0.51112  0.83941  1.0000
  H   H431      1.0  0.91367  0.76737  0.96075  1.0000
  H   H432      1.0  0.00206  0.83025  0.89242  1.0000
  C   C432      1.0  0.79646  0.00389  0.79847  1.0000
