data_image0
_chemical_formula_structural       CFeS2FeS2FeSFeS2FeS2FeSHFe2S3HFeS2FeH2FeH2S2CH2C3SH2CSHFeHC2H3C4HCSHCH3CHC6H4C6H4C6H4CHC2HCHCHC5HNC6H8C2HC2FeHNHCNC6H8SHNC6H4CHN2H2SCHC2H2CH2CHSFeHCHC2HSHC2H4C2H3CHNHSFeHCHFeS2CFeCFeHS2FeHFeS2Fe2CS2FeS2FeS2FeSFeS4H2SHNHFeCS3HSCSFeSFeSCFeH2FeS3C4H4C6H4C6H4FeC5Fe2H2C6H4C6H4C6H2NSC3H2CH3C4S2C7H5NHCH2C3HFeC4S2NC6H12CHCNC2H3SC4H3CHC2H2C4H2SC6HC3HSCNCNCHCHC2H2CH4FeCSH4CH8C3H9S2FeSHCSFeSFeSHSFeS2FeS2FeHFeS3FeS2C2FeSHFeSFeSHSFeS2FeHSFeS3HSFeS2FeSFeS3C3HC9H5C3HC6H4C2H2C7H4C6H4C6H4C2H5C2HCHC4H4C6HSHCH3NC6H4SH3CHCNC6H8CHC2H2SN2HNC2H2C2HCSFeH3FeCH2SHSH2CFeH3C3HSHNFeHCH5NC5HCH3C2HCH2CFeCHCHC3NC6H3NSH2CH5C4SNHSH2CH4C2HFeS2FeS2FeSFeS3HCH3SCNCSFeSCFeS2FeSFeCS2FeS2CHC2SH2C4H4CNHC6H4SH3CH2C6H4C3NC2H4C3H2CH2CHC6H4CNC6H6CSNHC2HSHCNHC2HCFeCHCHC4HC6HC3H2CH2SHCH4CH5CH2CH4CH3C5FeC2HC2SH4NSHNCHCFeHSFeHCHC2HS2CFeS2FeSHFeSFeS3FeS2FeS2Fe2S3FeS2FeS2FeSFeS3HCH3C9H4C2H3C4H2C6H4CHC4H5C9H4CH2C2NC3H4FeH3CHNH2SC2NC2NCH2CH2NHC2HCH3C2NH4CH3C2H2C3HCH3C2H3CH2C2H5SCHCN2H2C2H2C2HC2H2CSCHSHC2H2CH4C2NSH2SFeSFeSHFe2S2FeS2FeS2FeSFeS3FeS2FeSFeSFeS3HC2SH3C4H2CHC6H2C5HCHC6H4C6H4C6H5CFeCHC6H6CH2NS2HC3H4SHC2NH4C2HNFeHC6NC6H9NH2C2HCH5CH2NHCHSHC2HC4H4NHCSCH2CHCHCHC2NCH2SC3H6CHC3H3C2H3FeS2FeS2FeSFeS3NHFeSHFeS2FeSFeS2NS2CFe2S2FeS2FeS2FeSFeS3H5C7H4C6H4CHC5H2C6H4C3HC2H4C6H4C6HNH2C7H3CH2CNH6CH4C3NC6H10CHFeC11HSHCHCNC2FeSCH5CHNC6H7C3H2C2H2CHNCH2C5H4SH4C2HCNCSH2FeC2H4CH4SFeS2FeHFeCFeS2FeS2FeS2FeSFeS3FeS2FeSFeS3HFeS2FeS2FeHFeHS2C4HCH6C2H2CH2C6H5C6H4C6H4C6H4C6H4FeSC3H3C3H2NHCHSHC2H2CH3C2H2NCH2CH4SHC5H2CHCHNHCHCH4NHCHCH2CHCNC6H2NSHS2CH2C3H2C2FeS2FeSFeSFeS3C2FeS2FeHFeS2H3FeS2FeSFeS3FeS2FeS2FeSFeS4FeSCHFeS2C6H4C6H4SC3H2C2NCS2C6H4CH2C6HNH2C6H4SHC4SHC6H4C7H5NC6H9C2HCHC2HCH3CH2CH4S2H9CH2C4HCH2SCH2NC2HC4FeCHFeH2C5HSFe2CHC2NCHCH2C3HSCHC4H2SCHCHNFeHCH3CHN2C2H2C3H4C3H2CH3SH3CHCFeS2FeS2FeSFeS3HFeS2CSH2FeSHCFeS2H4FeS2C2NHCH2C2FeS3H5C2HCHCHCHCHC3H3C8H3NC6H4C5H2C6H4C6HCH2C2HCFeHCHSHC2SHC3H2C4H3CHCH2CH2CNHCFeHNCH2CH3NCH4SHC2HC2HSNH2CHCHCH3CH7CHN2CHSCHNS2CHC2HCH2FeHCSC2SHC2HCH2CHC2FeSC2SH2CHCFeS2FeSHFeSFeS3FeSH2FeSCSC2HC7H4C6H4C3HS2NSC6H5CHCSHC2HSH3CSCFeHCHCH2CFeNCHSCH4SH2NHC3H2SHCNCHSHCH4NC3H3C2SHCHCSHCHC2H2CSH2CHCH2FeSFeS2FeHFeS3C3FeS2FeS2FeSFeS3CSCFeS2FeSFe2S3FeSCFeS2FeSFeS3CHS2C6H5C2H2C6H4C6H5C3HCH2C6H3C4HCH2CH2CHSHFeH2C7H4C6H4CNCH2NCH3CHNC2H2CH3C2NHC2HCH5CH3C2HCH3CHC3HC5HFeHCH3NCHCN2C6H8C2NHCHNHSCSHCHCSCH2CFeCSH2CHC2HCH4SHCHC2HC3H2C3NH3CH2C2SH3CHFeHCS3CHCSH2SFeS2FeSFeS2FeS3CFeCFeSH2SFeSHFeS2FeSHSFeS2FeS2FeSFeS2FeCSHCHC2SFeS2FeS2C6H4C6H4C4H2C6H4CSC6H4CSHC7H4C3H2NC6H4C7H2C6SNC6H11CFe2H3CHC2SNHSH2CH2NH4CHSHC2FeSHSCH2CH5SH3NHCHCHSCH3NSHNSH2C5H7C3HCH2CH3NCHSCHC2HCHFeCSFeS2Fe3S3CFeS2FeS2FeSFeS3HSCFeS2C6H4CHC5H3C6H4C6H5C2NH2C2HCHC2FeH4CSC6H3C3SNH2CSH4CH2SHSCH2SHCHNH2C3H2FeC2HCHNH2CHC2H3C2H2NC6SCHCSC2HNC6H8CSHC2H2C2HSCHCH6CNCHCH4SCH2CH3CH3CFeSFeS2FeSFeS3CHFeS2FeS2Fe2S3HFeS2CHFe3S3NCH2C5H3CHC6H3C6H7C7H6CH2C6H6CSNHCH2CHCHCHNH2C4H2CSC2H6C4H5CHCHNHCHC2HC2HSHNHNHCH2C6H3FeHCNHC3H4C2HSC2H3CH2FeSFeS2H2SFeSHFe2CHSHFeS2FeS2FeSFeS4FeS4FeS2FeS2FeSFeHS2FeHS2FeC2HC7HCHCH2C2SH3CSC7H4C6H5SC4H3C2H2SHCH2C3HC2HFeC6H4C2H3FeHC2NC6H5NC6H8CNC4H5CHC2H4C2H2NCH4C2HCHC2FeC2NSCH2CH3CHSCFeH3C4SH2C2HSCNC3H3CSHCH4C2SHSCHCH2SH2SFeHSC3H3CH2NFeS2FeS2FeSFeS2H2CS2HCFeS2FeS2FeSFeS4FeS2FeS2FeSFeS3C8HCH2C6HCH4C6H4C6H4C6H4C6H4CFeC4H3C4H2CH3C2H4CH2NSH2CH2CSH4CHFeCH2CH2CHC3NC2HNH4CH2CHC2H2SC2H2CH3CH2NC6H8C3NH2SN2C6H3C6HFeHC2H4NHC2H3CH2C3HFeS2HSFeHFeS2H2FeS2FeSFeSFeS3FeSFeS2H2FeS2CFeS2FeS2FeSFeS3C6H4C6H4C6H4CHC4HCH2CHFeC3H2C6H7CHCHC4H2C4HNH2CHSHNHCH3CH4CH3C4H3CH2C2HNHCH6C2SNCHCHC2HCHC3SC2SCNHFeH2C4HCH3NHC3NHSHCH2FeS2CFeSHSH2FeS2FeS2FeSFeS3CHCH2C2HFeS2FeS2FeSFeS2FeS2FeSFeCFeS3C2H2CH5C6H3NC4HC6H2NH3C2H2CH2C6H4C6H4C3HSH3C8H4C3H3SH2CHCSH2CHCHCHCNC3HCHCHCHCHCHSH4C4HCH3SH3CH2CNC2NC6H8CNC3HC2NH5CHNHC2HFeH2CSH2CHCSHCHCSC2HCH2FeS2FeS2FeSFeS3C2H2NSHCHSHFeS2FeSFeSFeS2FeS2FeS2FeSFeS3NC6H4C2HCHC6H4CHCFeC3HC6H4C3HC2HCH5C6H4C3H2CHNCHCH2CHCHC2HCHCHC3NH2CHCNC6H11CH3CHCH4SCH2NCHC2H2C8H2C3H2NC2HC2H3C2NH3CHCH2CHC2HFeH2C2H6CHCHCH2C2HSCFeSH2SC2H2FeH2CSHFeS2FeS2FeSFeS3C2HFeCHSCS2H3CHFeH2SHC6H4C6H5C3HCH4CHC10H4C5SH3SHCSNHCH2NC2HS2HFeH5CH2CNCHCH3CSHCH2NHNC11H2NC2H4CFeC2H5CSCSH3C2HCHC2NSH2C4H2CH4CFeHSH2CHC2SC2FeSHNCFeS2FeS2FeSFeS3FeSCFeSHFeSHSFeS2HSFeSFeS3FeS2FeS2FeHFeS3H3FeS2C3H2SH3C6H4CHFeH2C6H4C6H4C6H4C3H3C5NH3C6H4SH2C6HSH2C2HCNHC2H2FeC3NC6H11C3FeC2HNCNC6H8NSCNH2C3HC2HC2HFeH2CNC3SCSCSC4H2CH6CH2CHCH2SH3CHCHNHCH3C2H2C3H4CSHC2HCHCHFeH2CHCH2FeS2FeS2FeSFeS3FeS2FeS2FeSFeS3FeSFeS2FeSFeS3FeS2HFeS2HFeS2FeHSFeHFeS3HSHC3H2C6H4C6H4C3HCH3C4H2C6H4C6H5CH3C6H4C2HCHCHCHC7H5NCHC3HSC6H2NHC4HC2HCNH2CHCHNC4NH2CH2C2FeH3NC6HSH3C2SH2CHCSCH5C5H3CHC2HNC6H9CHCNH2SH3NH4CH3C4HCH2C2FeHCH2CHCHNCH3C2H2CH2FeSHFeS2FeS2FeS2FeSFeS3CHSHCSHFeSHSNHSCFeSCHC2HCNHFeS2CH3C2SCHC7H5C6HCHC6H4C2HC3H3C6H4C7H4CH3SHCH2CH3CFe2NSC2HCH2CFeCH3SNH2CHSN2C6H8NC6H8NC3HCSHCHCHSCH3CNCHCHCH3CH3CH2FeS2CFeC2HC
_chemical_formula_sum              "C2304 Fe384 S768 H2304 N192"
_cell_length_a       60.8155
_cell_length_b       61.1924
_cell_length_c       96.1713
_cell_angle_alpha    79.2413
_cell_angle_beta     79.3094
_cell_angle_gamma    79.7326

_space_group_name_H-M_alt    "P 1"
_space_group_IT_number       1

loop_
  _space_group_symop_operation_xyz
  'x, y, z'

loop_
  _atom_site_type_symbol
  _atom_site_label
  _atom_site_symmetry_multiplicity
  _atom_site_fract_x
  _atom_site_fract_y
  _atom_site_fract_z
  _atom_site_occupancy
  C   C1        1.0  0.46697  0.26820  0.10000  1.0000
  Fe  Fe1       1.0  0.29916  0.11946  0.18804  1.0000
  S   S1        1.0  0.30819  0.08376  0.19863  1.0000
  S   S2        1.0  0.26440  0.13566  0.19712  1.0000
  Fe  Fe2       1.0  0.34680  0.12114  0.17152  1.0000
  S   S3        1.0  0.35918  0.08577  0.18113  1.0000
  S   S4        1.0  0.36915  0.14248  0.15481  1.0000
  Fe  Fe3       1.0  0.32649  0.07733  0.17688  1.0000
  S   S5        1.0  0.32898  0.04542  0.16695  1.0000
  Fe  Fe4       1.0  0.33955  0.09546  0.20190  1.0000
  S   S6        1.0  0.31522  0.11239  0.16596  1.0000
  S   S7        1.0  0.32952  0.13145  0.19258  1.0000
  Fe  Fe5       1.0  0.18150  0.24305  0.17748  1.0000
  S   S8        1.0  0.15776  0.22745  0.19580  1.0000
  S   S9        1.0  0.21191  0.22410  0.16515  1.0000
  Fe  Fe6       1.0  0.15348  0.28929  0.17699  1.0000
  S   S10       1.0  0.12753  0.27747  0.19551  1.0000
  H   H1        1.0  0.30323  0.98828  0.14660  1.0000
  Fe  Fe7       1.0  0.15739  0.25840  0.20552  1.0000
  Fe  Fe8       1.0  0.13007  0.24779  0.18431  1.0000
  S   S11       1.0  0.09826  0.23404  0.18330  1.0000
  S   S12       1.0  0.18333  0.27261  0.18783  1.0000
  S   S13       1.0  0.15374  0.26099  0.16515  1.0000
  H   H2        1.0  0.26214  0.06262  0.12733  1.0000
  Fe  Fe9       1.0  0.04533  0.19830  0.12426  1.0000
  S   S14       1.0  0.01465  0.22297  0.13030  1.0000
  S   S15       1.0  0.08030  0.20189  0.12804  1.0000
  Fe  Fe10      1.0  0.01908  0.17364  0.10858  1.0000
  H   H3        1.0  0.40977  0.14112  0.20911  1.0000
  H   H4        1.0  0.04337  0.04767  0.06759  1.0000
  Fe  Fe11      1.0  0.00912  0.22459  0.10767  1.0000
  H   H5        1.0  0.05686  0.10627  0.08150  1.0000
  H   H6        1.0  0.15204  0.30087  0.22411  1.0000
  S   S16       1.0  0.04073  0.20123  0.10125  1.0000
  S   S17       1.0  0.02684  0.16843  0.13107  1.0000
  C   C2        1.0  0.29792  0.00315  0.15165  1.0000
  H   H7        1.0  0.27942  0.05690  0.16961  1.0000
  H   H8        1.0  0.48287  0.13879  0.13905  1.0000
  C   C3        1.0  0.46105  0.28107  0.08713  1.0000
  C   C4        1.0  0.09601  0.29656  0.15711  1.0000
  C   C5        1.0  0.49032  0.12549  0.10552  1.0000
  S   S18       1.0  0.46398  0.16044  0.16524  1.0000
  H   H9        1.0  0.29047  0.07994  0.13562  1.0000
  H   H10       1.0  0.41904  0.10111  0.19943  1.0000
  C   C6        1.0  0.07317  0.29716  0.06055  1.0000
  S   S19       1.0  0.02163  0.14104  0.09961  1.0000
  H   H11       1.0  0.28517  0.15613  0.21590  1.0000
  Fe  Fe12      1.0  0.48671  0.18183  0.14889  1.0000
  H   H12       1.0  0.05843  0.06466  0.08484  1.0000
  C   C7        1.0  0.31614  0.00613  0.11128  1.0000
  C   C8        1.0  0.41042  0.13016  0.21933  1.0000
  H   H13       1.0  0.00254  0.99128  0.06431  1.0000
  H   H14       1.0  0.48787  0.08353  0.09542  1.0000
  H   H15       1.0  0.01438  0.13352  0.04422  1.0000
  C   C9        1.0  0.03721  0.99486  0.05559  1.0000
  C   C10       1.0  0.05452  0.28426  0.10206  1.0000
  C   C11       1.0  0.03904  0.26972  0.10219  1.0000
  C   C12       1.0  0.02035  0.27724  0.09506  1.0000
  H   H16       1.0  0.46478  0.27368  0.07741  1.0000
  C   C13       1.0  0.40446  0.09931  0.20821  1.0000
  S   S20       1.0  0.47972  0.19699  0.12680  1.0000
  H   H17       1.0  0.04193  0.25247  0.10747  1.0000
  C   C14       1.0  0.03966  0.27188  0.06042  1.0000
  H   H18       1.0  0.00955  0.10938  0.03816  1.0000
  H   H19       1.0  0.04413  0.99507  0.02153  1.0000
  H   H20       1.0  0.13520  0.30530  0.13889  1.0000
  C   C15       1.0  0.28954  0.14674  0.22602  1.0000
  H   H21       1.0  0.09240  0.16456  0.16409  1.0000
  C   C16       1.0  0.08351  0.21409  0.14267  1.0000
  C   C17       1.0  0.06722  0.21390  0.15502  1.0000
  C   C18       1.0  0.07173  0.22069  0.16728  1.0000
  C   C19       1.0  0.09237  0.22801  0.16722  1.0000
  C   C20       1.0  0.10819  0.22928  0.15463  1.0000
  C   C21       1.0  0.10379  0.22223  0.14243  1.0000
  H   H22       1.0  0.05156  0.20761  0.15533  1.0000
  H   H23       1.0  0.05936  0.21973  0.17696  1.0000
  H   H24       1.0  0.12410  0.23494  0.15443  1.0000
  H   H25       1.0  0.11643  0.22246  0.13289  1.0000
  C   C22       1.0  0.25054  0.16056  0.18811  1.0000
  C   C23       1.0  0.25872  0.16941  0.17399  1.0000
  C   C24       1.0  0.24679  0.18901  0.16706  1.0000
  C   C25       1.0  0.22684  0.19997  0.17426  1.0000
  C   C26       1.0  0.21888  0.19126  0.18844  1.0000
  C   C27       1.0  0.23062  0.17153  0.19530  1.0000
  H   H26       1.0  0.27404  0.16102  0.16837  1.0000
  H   H27       1.0  0.25301  0.19569  0.15608  1.0000
  H   H28       1.0  0.20364  0.19964  0.19411  1.0000
  H   H29       1.0  0.22423  0.16474  0.20622  1.0000
  C   C28       1.0  0.39631  0.14550  0.15753  1.0000
  C   C29       1.0  0.41086  0.15601  0.14615  1.0000
  C   C30       1.0  0.43186  0.16035  0.14826  1.0000
  C   C31       1.0  0.43849  0.15409  0.16178  1.0000
  C   C32       1.0  0.42417  0.14314  0.17308  1.0000
  C   C33       1.0  0.40312  0.13891  0.17099  1.0000
  H   H30       1.0  0.40572  0.16106  0.13569  1.0000
  H   H31       1.0  0.44271  0.16880  0.13949  1.0000
  H   H32       1.0  0.42932  0.13823  0.18353  1.0000
  H   H33       1.0  0.39196  0.13087  0.17978  1.0000
  C   C34       1.0  0.45064  0.30356  0.08672  1.0000
  H   H34       1.0  0.34259  0.02849  0.12106  1.0000
  C   C35       1.0  0.48683  0.12867  0.13050  1.0000
  C   C36       1.0  0.46227  0.27778  0.11254  1.0000
  H   H35       1.0  0.05868  0.28152  0.13295  1.0000
  C   C37       1.0  0.29584  0.06544  0.13015  1.0000
  H   H36       1.0  0.30769  0.00671  0.10188  1.0000
  C   C38       1.0  0.05146  0.30644  0.09483  1.0000
  H   H37       1.0  0.33079  0.06254  0.13260  1.0000
  C   C39       1.0  0.27509  0.01269  0.15344  1.0000
  C   C40       1.0  0.26853  0.03188  0.16020  1.0000
  C   C41       1.0  0.28466  0.04189  0.16469  1.0000
  C   C42       1.0  0.30757  0.03264  0.16261  1.0000
  C   C43       1.0  0.31400  0.01302  0.15627  1.0000
  H   H38       1.0  0.25090  0.03931  0.16175  1.0000
  N   N1        1.0  0.14919  0.18349  0.16555  1.0000
  C   C44       1.0  0.14563  0.17754  0.15320  1.0000
  C   C45       1.0  0.13270  0.18289  0.17737  1.0000
  C   C46       1.0  0.12534  0.17024  0.15258  1.0000
  C   C47       1.0  0.11227  0.17556  0.17714  1.0000
  C   C48       1.0  0.10859  0.16924  0.16465  1.0000
  C   C49       1.0  0.17005  0.19220  0.16577  1.0000
  H   H39       1.0  0.15828  0.17893  0.14365  1.0000
  H   H40       1.0  0.13495  0.18879  0.18691  1.0000
  H   H41       1.0  0.06925  0.27806  0.10724  1.0000
  H   H42       1.0  0.09893  0.17593  0.18636  1.0000
  H   H43       1.0  0.08993  0.30337  0.12240  1.0000
  H   H44       1.0  0.17467  0.18882  0.17671  1.0000
  H   H45       1.0  0.18469  0.18422  0.15871  1.0000
  H   H46       1.0  0.16789  0.21066  0.16209  1.0000
  C   C50       1.0  0.03264  0.31414  0.08785  1.0000
  C   C51       1.0  0.45156  0.30010  0.11217  1.0000
  H   H47       1.0  0.08748  0.26852  0.07464  1.0000
  C   C52       1.0  0.08686  0.29806  0.13393  1.0000
  C   C53       1.0  0.28706  0.03635  0.11914  1.0000
  Fe  Fe13      1.0  0.99446  0.03834  0.04769  1.0000
  H   H48       1.0  0.38872  0.10864  0.20437  1.0000
  N   N2        1.0  0.10011  0.30321  0.14259  1.0000
  H   H49       1.0  0.33166  0.00569  0.15465  1.0000
  C   C54       1.0  0.06906  0.28579  0.13980  1.0000
  N   N3        1.0  0.39135  0.21021  0.15094  1.0000
  C   C55       1.0  0.40256  0.20323  0.16246  1.0000
  C   C56       1.0  0.39984  0.22483  0.13944  1.0000
  C   C57       1.0  0.42282  0.21093  0.16266  1.0000
  C   C58       1.0  0.41996  0.23301  0.13934  1.0000
  C   C59       1.0  0.43141  0.22604  0.15106  1.0000
  C   C60       1.0  0.37014  0.20207  0.15075  1.0000
  H   H50       1.0  0.39624  0.19116  0.17142  1.0000
  H   H51       1.0  0.39109  0.23021  0.13025  1.0000
  H   H52       1.0  0.43209  0.20485  0.17159  1.0000
  H   H53       1.0  0.42676  0.24462  0.13023  1.0000
  H   H54       1.0  0.44703  0.23224  0.15111  1.0000
  H   H55       1.0  0.36527  0.19003  0.16058  1.0000
  H   H56       1.0  0.35611  0.21635  0.14990  1.0000
  H   H57       1.0  0.37201  0.19292  0.14153  1.0000
  S   S21       1.0  0.35087  0.08527  0.22378  1.0000
  H   H58       1.0  0.35130  0.13360  0.21686  1.0000
  N   N4        1.0  0.03260  0.10261  0.05322  1.0000
  C   C61       1.0  0.03366  0.07976  0.05487  1.0000
  C   C62       1.0  0.04137  0.11205  0.06241  1.0000
  C   C63       1.0  0.04297  0.06577  0.06624  1.0000
  C   C64       1.0  0.05086  0.09856  0.07389  1.0000
  C   C65       1.0  0.05151  0.07529  0.07584  1.0000
  C   C66       1.0  0.02288  0.11702  0.04121  1.0000
  H   H59       1.0  0.02710  0.07216  0.04747  1.0000
  H   H60       1.0  0.04030  0.13018  0.06125  1.0000
  H   H61       1.0  0.48913  0.13357  0.09458  1.0000
  H   H62       1.0  0.12211  0.16637  0.14263  1.0000
  C   C67       1.0  0.27996  0.05574  0.12549  1.0000
  H   H63       1.0  0.33467  0.00281  0.10754  1.0000
  N   N5        1.0  0.40805  0.10801  0.22070  1.0000
  N   N6        1.0  0.30939  0.02706  0.11731  1.0000
  H   H64       1.0  0.31140  0.99167  0.11948  1.0000
  H   H65       1.0  0.07517  0.27900  0.17483  1.0000
  S   S22       1.0  0.25428  0.00143  0.14728  1.0000
  C   C68       1.0  0.32505  0.03636  0.12194  1.0000
  H   H66       1.0  0.10663  0.30051  0.16396  1.0000
  C   C69       1.0  0.00026  0.11329  0.08906  1.0000
  C   C70       1.0  0.31853  0.05571  0.12839  1.0000
  H   H67       1.0  0.00266  0.30545  0.08247  1.0000
  H   H68       1.0  0.27448  0.02834  0.11611  1.0000
  C   C71       1.0  0.01710  0.29955  0.08799  1.0000
  H   H69       1.0  0.28631  0.11495  0.22087  1.0000
  H   H70       1.0  0.05735  0.24594  0.07448  1.0000
  C   C72       1.0  0.07821  0.28448  0.16333  1.0000
  H   H71       1.0  0.19522  0.30901  0.16295  1.0000
  S   S23       1.0  0.03119  0.02274  0.04690  1.0000
  Fe  Fe14      1.0  0.99549  0.19348  0.13514  1.0000
  H   H72       1.0  0.99454  0.17009  0.07925  1.0000
  C   C73       1.0  0.99256  0.15279  0.07946  1.0000
  H   H73       1.0  0.22848  0.29584  0.22602  1.0000
  C   C74       1.0  0.06477  0.27896  0.15459  1.0000
  C   C75       1.0  0.44582  0.31296  0.09931  1.0000
  H   H74       1.0  0.00814  0.09993  0.09644  1.0000
  S   S24       1.0  0.00217  0.25845  0.09384  1.0000
  H   H75       1.0  0.40223  0.08127  0.21082  1.0000
  C   C76       1.0  0.05738  0.26254  0.06806  1.0000
  C   C77       1.0  0.03917  0.29381  0.05286  1.0000
  H   H76       1.0  0.08580  0.30726  0.06122  1.0000
  H   H77       1.0  0.47520  0.25096  0.10020  1.0000
  H   H78       1.0  0.05125  0.26912  0.15926  1.0000
  H   H79       1.0  0.03629  0.11975  0.03180  1.0000
  C   C78       1.0  0.07425  0.27524  0.06816  1.0000
  C   C79       1.0  0.00304  0.13565  0.08892  1.0000
  H   H80       1.0  0.44780  0.30756  0.12186  1.0000
  H   H81       1.0  0.02585  0.26253  0.06095  1.0000
  H   H82       1.0  0.07315  0.99315  0.04847  1.0000
  C   C80       1.0  0.48461  0.13864  0.11645  1.0000
  H   H83       1.0  0.02498  0.30117  0.04731  1.0000
  N   N7        1.0  0.05598  0.30602  0.05284  1.0000
  H   H84       1.0  0.47920  0.15659  0.11392  1.0000
  S   S25       1.0  0.46974  0.26277  0.12889  1.0000
  Fe  Fe15      1.0  0.49043  0.22808  0.13098  1.0000
  H   H85       1.0  0.20206  0.28723  0.22476  1.0000
  C   C81       1.0  0.11900  0.31576  0.13648  1.0000
  H   H86       1.0  0.49216  0.99428  0.06510  1.0000
  Fe  Fe16      1.0  0.08636  0.05014  0.42286  1.0000
  S   S26       1.0  0.11819  0.03093  0.43069  1.0000
  S   S27       1.0  0.08562  0.08692  0.41301  1.0000
  C   C82       1.0  0.48961  0.23180  0.42162  1.0000
  Fe  Fe17      1.0  0.09486  0.01654  0.44977  1.0000
  C   C83       1.0  0.46349  0.21864  0.31934  1.0000
  Fe  Fe18      1.0  0.11202  0.00332  0.42020  1.0000
  H   H87       1.0  0.21878  0.27638  0.27973  1.0000
  S   S28       1.0  0.06357  0.03820  0.44304  1.0000
  S   S29       1.0  0.08177  0.02345  0.41088  1.0000
  Fe  Fe19      1.0  0.46820  0.01278  0.43605  1.0000
  H   H88       1.0  0.07236  0.28327  0.31306  1.0000
  Fe  Fe20      1.0  0.43839  0.05881  0.43394  1.0000
  S   S30       1.0  0.40688  0.04324  0.44223  1.0000
  S   S31       1.0  0.43104  0.09665  0.42843  1.0000
  Fe  Fe21      1.0  0.42688  0.02071  0.45821  1.0000
  Fe  Fe22      1.0  0.42153  0.01845  0.42727  1.0000
  C   C84       1.0  0.23070  0.98929  0.42348  1.0000
  S   S32       1.0  0.45720  0.03831  0.45105  1.0000
  S   S33       1.0  0.45236  0.03526  0.41813  1.0000
  Fe  Fe23      1.0  0.38434  0.15509  0.30980  1.0000
  S   S34       1.0  0.35189  0.16246  0.32464  1.0000
  S   S35       1.0  0.41890  0.15010  0.31697  1.0000
  Fe  Fe24      1.0  0.35964  0.15545  0.28453  1.0000
  S   S36       1.0  0.32535  0.16297  0.29759  1.0000
  S   S37       1.0  0.36286  0.15749  0.26032  1.0000
  Fe  Fe25      1.0  0.34040  0.18749  0.30622  1.0000
  S   S38       1.0  0.32321  0.22234  0.31015  1.0000
  Fe  Fe26      1.0  0.33925  0.13728  0.31496  1.0000
  S   S39       1.0  0.31435  0.11631  0.32945  1.0000
  S   S40       1.0  0.37394  0.18209  0.29196  1.0000
  S   S41       1.0  0.37269  0.12766  0.30128  1.0000
  S   S42       1.0  0.16077  0.25158  0.22923  1.0000
  H   H89       1.0  0.33806  0.00063  0.39138  1.0000
  H   H90       1.0  0.41409  0.15693  0.23022  1.0000
  S   S43       1.0  0.33542  0.00966  0.34035  1.0000
  H   H91       1.0  0.07515  0.14010  0.41846  1.0000
  N   N8        1.0  0.04017  0.15340  0.42066  1.0000
  H   H92       1.0  0.15300  0.02562  0.40200  1.0000
  Fe  Fe27      1.0  0.00537  0.17505  0.37009  1.0000
  C   C85       1.0  0.48829  0.13890  0.41268  1.0000
  S   S44       1.0  0.44051  0.20892  0.35955  1.0000
  S   S45       1.0  0.20195  0.31444  0.29673  1.0000
  S   S46       1.0  0.09069  0.98741  0.43986  1.0000
  H   H93       1.0  0.47280  0.23927  0.33248  1.0000
  S   S47       1.0  0.47394  0.21154  0.39011  1.0000
  C   C86       1.0  0.15736  0.30360  0.25856  1.0000
  S   S48       1.0  0.16284  0.28040  0.30500  1.0000
  Fe  Fe28      1.0  0.14813  0.29904  0.32326  1.0000
  S   S49       1.0  0.11548  0.29508  0.33861  1.0000
  Fe  Fe29      1.0  0.19651  0.28165  0.31116  1.0000
  S   S50       1.0  0.21807  0.24779  0.30934  1.0000
  C   C87       1.0  0.21400  0.99018  0.35706  1.0000
  Fe  Fe30      1.0  0.16742  0.31377  0.29174  1.0000
  H   H94       1.0  0.45925  0.15921  0.37332  1.0000
  H   H95       1.0  0.47508  0.23622  0.41603  1.0000
  Fe  Fe31      1.0  0.02471  0.21379  0.34952  1.0000
  S   S51       1.0  0.05646  0.22149  0.33392  1.0000
  S   S52       1.0  0.02580  0.20062  0.37291  1.0000
  S   S53       1.0  0.10416  0.00550  0.47197  1.0000
  C   C88       1.0  0.16007  0.28058  0.26390  1.0000
  C   C89       1.0  0.15996  0.26495  0.25491  1.0000
  C   C90       1.0  0.15756  0.27211  0.24045  1.0000
  C   C91       1.0  0.15409  0.29515  0.23521  1.0000
  H   H96       1.0  0.45918  0.19488  0.30647  1.0000
  H   H97       1.0  0.16250  0.27477  0.27491  1.0000
  H   H98       1.0  0.16243  0.24714  0.25908  1.0000
  H   H99       1.0  0.10012  0.30933  0.31081  1.0000
  C   C92       1.0  0.09991  0.27347  0.33806  1.0000
  C   C93       1.0  0.07823  0.27318  0.34623  1.0000
  C   C94       1.0  0.06498  0.25687  0.34547  1.0000
  C   C95       1.0  0.07335  0.24071  0.33649  1.0000
  C   C96       1.0  0.09522  0.24073  0.32857  1.0000
  C   C97       1.0  0.10845  0.25703  0.32932  1.0000
  H   H100      1.0  0.07149  0.28579  0.35306  1.0000
  H   H101      1.0  0.04814  0.25707  0.35160  1.0000
  H   H102      1.0  0.10186  0.22821  0.32166  1.0000
  H   H103      1.0  0.12518  0.25689  0.32309  1.0000
  C   C98       1.0  0.29457  0.23068  0.30810  1.0000
  C   C99       1.0  0.28244  0.21624  0.30399  1.0000
  C   C100      1.0  0.25914  0.22230  0.30376  1.0000
  C   C101      1.0  0.24775  0.24280  0.30768  1.0000
  C   C102      1.0  0.25991  0.25766  0.31134  1.0000
  C   C103      1.0  0.28331  0.25158  0.31154  1.0000
  H   H104      1.0  0.29089  0.20019  0.30130  1.0000
  H   H105      1.0  0.24982  0.21075  0.30089  1.0000
  H   H106      1.0  0.25123  0.27348  0.31442  1.0000
  H   H107      1.0  0.29264  0.26284  0.31471  1.0000
  Fe  Fe32      1.0  0.47386  0.20837  0.36715  1.0000
  C   C104      1.0  0.05958  0.13949  0.42658  1.0000
  C   C105      1.0  0.29666  0.08684  0.24425  1.0000
  C   C106      1.0  0.35730  0.13742  0.25092  1.0000
  C   C107      1.0  0.35630  0.11500  0.25721  1.0000
  C   C108      1.0  0.35409  0.09917  0.24881  1.0000
  Fe  Fe33      1.0  0.06110  0.00994  0.43167  1.0000
  Fe  Fe34      1.0  0.31144  0.99125  0.35739  1.0000
  H   H108      1.0  0.35802  0.10974  0.26839  1.0000
  H   H109      1.0  0.35401  0.08172  0.25363  1.0000
  C   C109      1.0  0.42446  0.16599  0.32922  1.0000
  C   C110      1.0  0.40838  0.18328  0.33422  1.0000
  C   C111      1.0  0.41355  0.19606  0.34361  1.0000
  C   C112      1.0  0.43487  0.19183  0.34804  1.0000
  C   C113      1.0  0.45095  0.17440  0.34316  1.0000
  C   C114      1.0  0.44571  0.16150  0.33383  1.0000
  H   H110      1.0  0.39200  0.18698  0.33073  1.0000
  H   H111      1.0  0.40100  0.20951  0.34732  1.0000
  H   H112      1.0  0.46751  0.17106  0.34636  1.0000
  H   H113      1.0  0.45825  0.14815  0.33000  1.0000
  C   C115      1.0  0.32068  0.08669  0.33240  1.0000
  C   C116      1.0  0.30543  0.07419  0.34201  1.0000
  C   C117      1.0  0.30982  0.05057  0.34454  1.0000
  C   C118      1.0  0.32945  0.03928  0.33738  1.0000
  C   C119      1.0  0.34473  0.05176  0.32777  1.0000
  C   C120      1.0  0.34040  0.07542  0.32531  1.0000
  H   H114      1.0  0.29013  0.08281  0.34751  1.0000
  H   H115      1.0  0.29789  0.04111  0.35190  1.0000
  H   H116      1.0  0.35992  0.04311  0.32218  1.0000
  H   H117      1.0  0.35222  0.08490  0.31787  1.0000
  C   C121      1.0  0.45333  0.11262  0.42275  1.0000
  C   C122      1.0  0.44841  0.13535  0.41683  1.0000
  C   C123      1.0  0.46586  0.14841  0.41166  1.0000
  C   C124      1.0  0.21131  0.29344  0.23184  1.0000
  C   C125      1.0  0.47575  0.10306  0.42378  1.0000
  C   C126      1.0  0.43291  0.11461  0.38789  1.0000
  H   H118      1.0  0.15928  0.98920  0.37288  1.0000
  H   H119      1.0  0.46194  0.16585  0.40698  1.0000
  N   N9        1.0  0.21301  0.27761  0.24521  1.0000
  S   S54       1.0  0.40228  0.01570  0.40969  1.0000
  C   C127      1.0  0.35529  0.14398  0.23636  1.0000
  C   C128      1.0  0.29023  0.12339  0.22887  1.0000
  C   C129      1.0  0.37925  0.00106  0.41100  1.0000
  H   H120      1.0  0.11438  0.30176  0.27345  1.0000
  H   H121      1.0  0.05459  0.18361  0.41761  1.0000
  C   C130      1.0  0.41009  0.00750  0.37372  1.0000
  H   H122      1.0  0.10791  0.26848  0.26446  1.0000
  H   H123      1.0  0.18952  0.03915  0.39148  1.0000
  H   H124      1.0  0.30116  0.07974  0.23407  1.0000
  C   C131      1.0  0.02196  0.18978  0.41094  1.0000
  C   C132      1.0  0.45146  0.09866  0.39129  1.0000
  C   C133      1.0  0.40847  0.09427  0.23367  1.0000
  C   C134      1.0  0.41633  0.15245  0.37768  1.0000
  S   S55       1.0  0.00531  0.13860  0.38041  1.0000
  S   S56       1.0  0.18128  0.29776  0.33081  1.0000
  C   C135      1.0  0.16714  0.99058  0.40344  1.0000
  C   C136      1.0  0.02871  0.12360  0.38824  1.0000
  C   C137      1.0  0.04826  0.13316  0.38733  1.0000
  C   C138      1.0  0.06600  0.12135  0.39454  1.0000
  C   C139      1.0  0.06426  0.10001  0.40275  1.0000
  C   C140      1.0  0.04490  0.09026  0.40341  1.0000
  C   C141      1.0  0.02719  0.10203  0.39616  1.0000
  H   H125      1.0  0.04965  0.14970  0.38118  1.0000
  H   H126      1.0  0.08107  0.12885  0.39383  1.0000
  H   H127      1.0  0.04341  0.07383  0.40972  1.0000
  H   H128      1.0  0.01211  0.09453  0.39689  1.0000
  H   H129      1.0  0.41412  0.15181  0.36654  1.0000
  N   N10       1.0  0.29597  0.11132  0.24149  1.0000
  H   H130      1.0  0.30473  0.11252  0.26180  1.0000
  C   C142      1.0  0.23773  0.00997  0.41726  1.0000
  H   H131      1.0  0.28550  0.03359  0.40621  1.0000
  H   H132      1.0  0.25784  0.04726  0.41282  1.0000
  C   C143      1.0  0.37743  0.99051  0.36401  1.0000
  C   C144      1.0  0.19145  0.99823  0.36189  1.0000
  C   C145      1.0  0.26705  0.03358  0.40688  1.0000
  H   H133      1.0  0.44557  0.22518  0.32133  1.0000
  Fe  Fe35      1.0  0.26605  0.99267  0.37726  1.0000
  C   C146      1.0  0.21737  0.24744  0.27040  1.0000
  C   C147      1.0  0.16825  0.01364  0.40026  1.0000
  C   C148      1.0  0.15387  0.31084  0.24428  1.0000
  C   C149      1.0  0.39848  0.02077  0.36314  1.0000
  S   S57       1.0  0.99251  0.23822  0.35318  1.0000
  S   S58       1.0  0.00680  0.18605  0.34637  1.0000
  N   N11       1.0  0.25709  0.18718  0.33608  1.0000
  C   C150      1.0  0.26035  0.20746  0.33877  1.0000
  C   C151      1.0  0.27372  0.16894  0.33723  1.0000
  C   C152      1.0  0.28111  0.21013  0.34203  1.0000
  C   C153      1.0  0.29449  0.17094  0.34073  1.0000
  C   C154      1.0  0.29834  0.19178  0.34286  1.0000
  C   C155      1.0  0.23541  0.18469  0.33241  1.0000
  H   H134      1.0  0.24722  0.22197  0.33783  1.0000
  H   H135      1.0  0.27120  0.15272  0.33525  1.0000
  H   H136      1.0  0.28416  0.22653  0.34331  1.0000
  H   H137      1.0  0.30764  0.15646  0.34153  1.0000
  H   H138      1.0  0.31479  0.19381  0.34486  1.0000
  H   H139      1.0  0.22607  0.20123  0.32815  1.0000
  H   H140      1.0  0.23820  0.17401  0.32389  1.0000
  H   H141      1.0  0.22470  0.17690  0.34204  1.0000
  H   H142      1.0  0.02246  0.12577  0.42186  1.0000
  H   H143      1.0  0.26303  0.03731  0.39578  1.0000
  H   H144      1.0  0.47967  0.08553  0.42832  1.0000
  H   H145      1.0  0.42242  0.01415  0.37797  1.0000
  C   C156      1.0  0.02227  0.14382  0.41909  1.0000
  H   H146      1.0  0.30998  0.07859  0.25083  1.0000
  C   C157      1.0  0.00382  0.15701  0.41333  1.0000
  N   N12       1.0  0.43583  0.13609  0.38156  1.0000
  C   C158      1.0  0.41119  0.10271  0.24571  1.0000
  C   C159      1.0  0.29991  0.14539  0.24923  1.0000
  H   H147      1.0  0.41077  0.09201  0.25608  1.0000
  H   H148      1.0  0.21281  0.98777  0.42566  1.0000
  H   H149      1.0  0.05688  0.00163  0.46973  1.0000
  S   S59       1.0  0.29924  0.00274  0.37863  1.0000
  C   C160      1.0  0.08611  0.25693  0.28389  1.0000
  C   C161      1.0  0.35255  0.12830  0.22808  1.0000
  C   C162      1.0  0.21339  0.25512  0.24536  1.0000
  C   C163      1.0  0.21539  0.23974  0.25797  1.0000
  H   H150      1.0  0.29456  0.17580  0.23405  1.0000
  H   H151      1.0  0.06516  0.24997  0.30448  1.0000
  H   H152      1.0  0.41123  0.08103  0.45787  1.0000
  C   C164      1.0  0.21511  0.28528  0.25733  1.0000
  H   H153      1.0  0.20168  0.31001  0.23404  1.0000
  C   C165      1.0  0.40501  0.98584  0.37929  1.0000
  C   C166      1.0  0.29462  0.15775  0.23623  1.0000
  H   H154      1.0  0.18570  0.01621  0.36094  1.0000
  H   H155      1.0  0.02201  0.20776  0.40761  1.0000
  C   C167      1.0  0.00366  0.18014  0.40931  1.0000
  C   C168      1.0  0.04026  0.17605  0.41659  1.0000
  C   C169      1.0  0.27625  0.99361  0.41688  1.0000
  C   C170      1.0  0.21732  0.27032  0.27008  1.0000
  H   H156      1.0  0.07837  0.05049  0.47325  1.0000
  H   H157      1.0  0.41614  0.10977  0.39062  1.0000
  S   S60       1.0  0.02585  0.00092  0.43395  1.0000
  C   C171      1.0  0.18894  0.02126  0.39423  1.0000
  C   C172      1.0  0.30028  0.12206  0.25175  1.0000
  C   C173      1.0  0.41301  0.13919  0.23118  1.0000
  C   C174      1.0  0.10002  0.27158  0.27516  1.0000
  C   C175      1.0  0.47881  0.22652  0.32563  1.0000
  C   C176      1.0  0.41332  0.12535  0.24445  1.0000
  H   H158      1.0  0.27995  0.08250  0.24983  1.0000
  C   C177      1.0  0.47116  0.20163  0.31099  1.0000
  C   C178      1.0  0.08019  0.28012  0.30237  1.0000
  C   C179      1.0  0.38214  0.01221  0.35818  1.0000
  H   H159      1.0  0.21456  0.30313  0.25727  1.0000
  S   S61       1.0  0.23388  0.01632  0.38292  1.0000
  C   C180      1.0  0.47308  0.10477  0.38813  1.0000
  N   N13       1.0  0.26024  0.01190  0.41400  1.0000
  C   C181      1.0  0.35228  0.10576  0.23420  1.0000
  N   N14       1.0  0.09438  0.29400  0.29391  1.0000
  C   C182      1.0  0.10379  0.29028  0.28033  1.0000
  H   H160      1.0  0.22582  0.00188  0.35227  1.0000
  C   C183      1.0  0.45700  0.14215  0.37826  1.0000
  H   H161      1.0  0.36656  0.02357  0.39323  1.0000
  C   C184      1.0  0.07597  0.26128  0.29754  1.0000
  C   C185      1.0  0.36471  0.00822  0.40075  1.0000
  H   H162      1.0  0.30428  0.15371  0.25717  1.0000
  H   H163      1.0  0.43107  0.14280  0.41606  1.0000
  C   C186      1.0  0.20866  0.00592  0.39136  1.0000
  H   H164      1.0  0.40197  0.03773  0.35889  1.0000
  H   H165      1.0  0.44895  0.08190  0.39681  1.0000
  H   H166      1.0  0.40056  0.14905  0.38510  1.0000
  H   H167      1.0  0.37297  0.02238  0.34996  1.0000
  Fe  Fe36      1.0  0.99251  0.22340  0.37642  1.0000
  C   C187      1.0  0.34846  0.99521  0.39969  1.0000
  S   S62       1.0  0.43862  0.99393  0.44407  1.0000
  H   H168      1.0  0.44693  0.09581  0.45635  1.0000
  H   H169      1.0  0.41874  0.16987  0.37824  1.0000
  H   H170      1.0  0.22506  0.02432  0.41456  1.0000
  H   H171      1.0  0.05730  0.12147  0.42962  1.0000
  C   C188      1.0  0.43686  0.09132  0.46675  1.0000
  H   H172      1.0  0.08315  0.24224  0.28009  1.0000
  H   H173      1.0  0.29413  0.99499  0.41420  1.0000
  H   H174      1.0  0.16738  0.30591  0.37033  1.0000
  H   H175      1.0  0.06217  0.14548  0.43628  1.0000
  H   H176      1.0  0.41440  0.13237  0.25384  1.0000
  H   H177      1.0  0.35612  0.16128  0.23143  1.0000
  H   H178      1.0  0.21877  0.23580  0.28032  1.0000
  H   H179      1.0  0.40591  0.07687  0.23489  1.0000
  C   C189      1.0  0.41666  0.08283  0.46767  1.0000
  C   C190      1.0  0.47594  0.12662  0.38154  1.0000
  C   C191      1.0  0.09872  0.31354  0.29921  1.0000
  H   H180      1.0  0.21503  0.22204  0.25814  1.0000
  H   H181      1.0  0.48750  0.09278  0.39115  1.0000
  H   H182      1.0  0.21134  0.24907  0.23581  1.0000
  H   H183      1.0  0.02630  0.98492  0.38934  1.0000
  H   H184      1.0  0.48485  0.26367  0.42883  1.0000
  H   H185      1.0  0.38392  0.05843  0.47249  1.0000
  H   H186      1.0  0.01628  0.99573  0.40603  1.0000
  H   H187      1.0  0.13913  0.31728  0.35392  1.0000
  H   H188      1.0  0.04384  0.02675  0.47656  1.0000
  S   S63       1.0  0.27741  0.98452  0.35503  1.0000
  S   S64       1.0  0.04143  0.16027  0.58891  1.0000
  Fe  Fe37      1.0  0.08246  0.00707  0.57118  1.0000
  S   S65       1.0  0.07527  0.04467  0.56533  1.0000
  H   H189      1.0  0.02839  0.02436  0.50279  1.0000
  C   C192      1.0  0.48515  0.14174  0.58724  1.0000
  S   S66       1.0  0.02884  0.03594  0.55485  1.0000
  Fe  Fe38      1.0  0.06518  0.03768  0.54537  1.0000
  S   S67       1.0  0.06935  0.05984  0.52377  1.0000
  Fe  Fe39      1.0  0.03959  0.04041  0.57517  1.0000
  S   S68       1.0  0.01846  0.06310  0.59028  1.0000
  H   H190      1.0  0.21081  0.03219  0.68777  1.0000
  S   S69       1.0  0.04732  0.00313  0.58245  1.0000
  Fe  Fe40      1.0  0.20892  0.13432  0.67486  1.0000
  S   S70       1.0  0.17166  0.13312  0.68130  1.0000
  S   S71       1.0  0.23404  0.10714  0.66510  1.0000
  Fe  Fe41      1.0  0.20558  0.17901  0.68569  1.0000
  S   S72       1.0  0.16799  0.18130  0.69239  1.0000
  S   S73       1.0  0.22004  0.20630  0.69224  1.0000
  Fe  Fe42      1.0  0.17581  0.14473  0.70142  1.0000
  H   H191      1.0  0.45980  0.10001  0.47873  1.0000
  Fe  Fe43      1.0  0.16782  0.16971  0.67161  1.0000
  S   S74       1.0  0.14669  0.18661  0.65445  1.0000
  S   S75       1.0  0.21340  0.14309  0.69572  1.0000
  S   S76       1.0  0.20507  0.17040  0.66411  1.0000
  Fe  Fe44      1.0  0.21372  0.00113  0.64088  1.0000
  S   S77       1.0  0.19587  0.02112  0.65822  1.0000
  S   S78       1.0  0.23335  0.01860  0.62118  1.0000
  C   C193      1.0  0.15925  0.02365  0.57847  1.0000
  C   C194      1.0  0.31189  0.00006  0.60695  1.0000
  Fe  Fe45      1.0  0.02551  0.18206  0.60588  1.0000
  S   S79       1.0  0.04855  0.20087  0.61342  1.0000
  H   H192      1.0  0.34270  0.06507  0.60458  1.0000
  Fe  Fe46      1.0  0.02892  0.19132  0.63520  1.0000
  S   S80       1.0  0.04382  0.18016  0.65573  1.0000
  Fe  Fe47      1.0  0.02122  0.23058  0.61096  1.0000
  S   S81       1.0  0.02820  0.26642  0.60425  1.0000
  H   H193      1.0  0.35690  0.24602  0.72403  1.0000
  S   S82       1.0  0.99978  0.21282  0.60152  1.0000
  Fe  Fe48      1.0  0.32183  0.26566  0.66743  1.0000
  S   S83       1.0  0.33649  0.29201  0.65067  1.0000
  S   S84       1.0  0.31336  0.23510  0.66065  1.0000
  Fe  Fe49      1.0  0.32528  0.28956  0.69175  1.0000
  H   H194      1.0  0.46955  0.14814  0.60834  1.0000
  S   S85       1.0  0.31146  0.28333  0.71546  1.0000
  Fe  Fe50      1.0  0.36155  0.29056  0.66531  1.0000
  S   S86       1.0  0.39731  0.29147  0.65352  1.0000
  S   S87       1.0  0.29766  0.29110  0.67878  1.0000
  S   S88       1.0  0.34849  0.26215  0.68125  1.0000
  H   H195      1.0  0.47599  0.07030  0.60324  1.0000
  S   S89       1.0  0.45770  0.04362  0.56812  1.0000
  Fe  Fe51      1.0  0.39249  0.04449  0.57329  1.0000
  S   S90       1.0  0.40947  0.07397  0.56135  1.0000
  S   S91       1.0  0.35431  0.04792  0.57506  1.0000
  Fe  Fe52      1.0  0.43521  0.04773  0.55131  1.0000
  S   S92       1.0  0.45222  0.04952  0.52812  1.0000
  Fe  Fe53      1.0  0.43032  0.06718  0.57922  1.0000
  S   S93       1.0  0.43450  0.09155  0.59355  1.0000
  S   S94       1.0  0.41152  0.03930  0.59175  1.0000
  S   S95       1.0  0.46764  0.20283  0.64687  1.0000
  C   C195      1.0  0.45384  0.11117  0.59058  1.0000
  C   C196      1.0  0.46947  0.11407  0.57798  1.0000
  C   C197      1.0  0.22071  0.23771  0.65719  1.0000
  H   H196      1.0  0.03634  0.00705  0.52713  1.0000
  C   C198      1.0  0.45401  0.12355  0.60150  1.0000
  C   C199      1.0  0.34870  0.01173  0.59676  1.0000
  C   C200      1.0  0.08233  0.04309  0.48379  1.0000
  C   C201      1.0  0.42396  0.02206  0.49490  1.0000
  C   C202      1.0  0.44524  0.02909  0.49166  1.0000
  C   C203      1.0  0.45394  0.03687  0.50208  1.0000
  C   C204      1.0  0.44143  0.03779  0.51583  1.0000
  C   C205      1.0  0.42044  0.03014  0.51925  1.0000
  C   C206      1.0  0.41179  0.02223  0.50882  1.0000
  H   H197      1.0  0.18643  0.18723  0.71832  1.0000
  H   H198      1.0  0.47025  0.04265  0.49937  1.0000
  H   H199      1.0  0.41061  0.03079  0.52980  1.0000
  H   H200      1.0  0.39537  0.01668  0.51146  1.0000
  H   H201      1.0  0.20495  0.23297  0.66339  1.0000
  C   C207      1.0  0.04403  0.99884  0.51795  1.0000
  C   C208      1.0  0.43074  0.08805  0.49252  1.0000
  C   C209      1.0  0.48503  0.12928  0.57634  1.0000
  H   H202      1.0  0.32468  0.23144  0.71864  1.0000
  C   C210      1.0  0.41583  0.26625  0.65147  1.0000
  C   C211      1.0  0.43313  0.26594  0.63958  1.0000
  C   C212      1.0  0.44874  0.24634  0.63788  1.0000
  C   C213      1.0  0.44749  0.22715  0.64829  1.0000
  C   C214      1.0  0.43000  0.22732  0.66008  1.0000
  C   C215      1.0  0.41408  0.24678  0.66161  1.0000
  H   H203      1.0  0.43433  0.28092  0.63163  1.0000
  H   H204      1.0  0.46190  0.24612  0.62862  1.0000
  H   H205      1.0  0.42893  0.21247  0.66814  1.0000
  H   H206      1.0  0.40086  0.24691  0.67084  1.0000
  C   C216      1.0  0.33867  0.02825  0.58675  1.0000
  C   C217      1.0  0.31528  0.03035  0.58673  1.0000
  H   H207      1.0  0.15829  0.05312  0.60385  1.0000
  H   H208      1.0  0.30742  0.04312  0.57902  1.0000
  C   C218      1.0  0.22064  0.07693  0.70062  1.0000
  C   C219      1.0  0.24762  0.21144  0.68474  1.0000
  C   C220      1.0  0.26039  0.20036  0.67374  1.0000
  C   C221      1.0  0.28120  0.20698  0.66680  1.0000
  C   C222      1.0  0.28924  0.22458  0.67088  1.0000
  C   C223      1.0  0.27702  0.23472  0.68239  1.0000
  C   C224      1.0  0.25619  0.22828  0.68924  1.0000
  H   H209      1.0  0.25391  0.18724  0.67029  1.0000
  H   H210      1.0  0.29071  0.19892  0.65797  1.0000
  H   H211      1.0  0.28332  0.24788  0.68585  1.0000
  H   H212      1.0  0.24646  0.23675  0.69783  1.0000
  C   C225      1.0  0.11925  0.18053  0.65503  1.0000
  C   C226      1.0  0.11069  0.18328  0.64213  1.0000
  C   C227      1.0  0.08777  0.18230  0.64221  1.0000
  C   C228      1.0  0.07323  0.17854  0.65521  1.0000
  C   C229      1.0  0.08199  0.17480  0.66811  1.0000
  C   C230      1.0  0.10497  0.17576  0.66804  1.0000
  H   H213      1.0  0.12168  0.18688  0.63203  1.0000
  H   H214      1.0  0.08133  0.18489  0.63222  1.0000
  H   H215      1.0  0.07085  0.17172  0.67821  1.0000
  H   H216      1.0  0.11142  0.17368  0.67804  1.0000
  C   C231      1.0  0.22320  0.08461  0.66104  1.0000
  C   C232      1.0  0.23818  0.06588  0.65685  1.0000
  C   C233      1.0  0.22985  0.04670  0.65511  1.0000
  C   C234      1.0  0.20653  0.04619  0.65763  1.0000
  C   C235      1.0  0.19158  0.06523  0.66121  1.0000
  C   C236      1.0  0.19989  0.08443  0.66281  1.0000
  H   H217      1.0  0.25622  0.06597  0.65545  1.0000
  H   H218      1.0  0.24141  0.03192  0.65250  1.0000
  H   H219      1.0  0.17352  0.06503  0.66297  1.0000
  H   H220      1.0  0.18821  0.09892  0.66561  1.0000
  C   C237      1.0  0.41065  0.07957  0.49304  1.0000
  C   C238      1.0  0.13937  0.01625  0.57687  1.0000
  H   H221      1.0  0.22144  0.26347  0.66939  1.0000
  H   H222      1.0  0.16438  0.03877  0.57180  1.0000
  H   H223      1.0  0.17189  0.03402  0.68731  1.0000
  H   H224      1.0  0.99935  0.14995  0.57558  1.0000
  H   H225      1.0  0.12928  0.02555  0.56892  1.0000
  C   C239      1.0  0.09525  0.02174  0.48583  1.0000
  C   C240      1.0  0.33533  0.99769  0.60682  1.0000
  H   H226      1.0  0.16012  0.03508  0.70591  1.0000
  C   C241      1.0  0.02678  0.08892  0.59116  1.0000
  H   H227      1.0  0.03302  0.08340  0.54321  1.0000
  C   C242      1.0  0.01685  0.28219  0.58922  1.0000
  C   C243      1.0  0.03696  0.13209  0.59117  1.0000
  C   C244      1.0  0.05054  0.11801  0.58198  1.0000
  C   C245      1.0  0.04544  0.09654  0.58193  1.0000
  H   H228      1.0  0.06375  0.10588  0.53257  1.0000
  H   H229      1.0  0.06460  0.12407  0.57450  1.0000
  H   H230      1.0  0.05550  0.08629  0.57439  1.0000
  H   H231      1.0  0.48393  0.99993  0.56477  1.0000
  C   C246      1.0  0.09263  0.02401  0.51111  1.0000
  C   C247      1.0  0.07959  0.04525  0.50916  1.0000
  C   C248      1.0  0.07463  0.05488  0.49544  1.0000
  C   C249      1.0  0.01699  0.30552  0.58615  1.0000
  C   C250      1.0  0.99630  0.30840  0.56639  1.0000
  C   C251      1.0  0.19835  0.08539  0.70569  1.0000
  H   H232      1.0  0.06471  0.07142  0.49385  1.0000
  S   S96       1.0  0.19743  0.02075  0.59052  1.0000
  H   H233      1.0  0.22524  0.21224  0.64376  1.0000
  C   C252      1.0  0.01383  0.10257  0.60085  1.0000
  H   H234      1.0  0.15420  0.02891  0.61713  1.0000
  H   H235      1.0  0.30707  0.01248  0.63911  1.0000
  H   H236      1.0  0.31170  0.08852  0.59274  1.0000
  N   N15       1.0  0.41051  0.20336  0.63453  1.0000
  C   C253      1.0  0.39454  0.19648  0.64576  1.0000
  C   C254      1.0  0.40828  0.22520  0.62773  1.0000
  C   C255      1.0  0.37592  0.21173  0.65062  1.0000
  C   C256      1.0  0.38997  0.24092  0.63239  1.0000
  C   C257      1.0  0.37376  0.23408  0.64391  1.0000
  C   C258      1.0  0.42960  0.18694  0.62947  1.0000
  H   H237      1.0  0.39623  0.17914  0.65108  1.0000
  H   H238      1.0  0.42097  0.23072  0.61888  1.0000
  H   H239      1.0  0.00136  0.09798  0.56091  1.0000
  H   H240      1.0  0.38863  0.25843  0.62735  1.0000
  S   S97       1.0  0.00340  0.22275  0.63346  1.0000
  H   H241      1.0  0.44395  0.19532  0.62322  1.0000
  H   H242      1.0  0.43637  0.17564  0.63868  1.0000
  H   H243      1.0  0.42426  0.17677  0.62261  1.0000
  C   C259      1.0  0.30190  0.01635  0.59681  1.0000
  H   H244      1.0  0.03006  0.15796  0.55687  1.0000
  C   C260      1.0  0.29296  0.02680  0.63852  1.0000
  N   N16       1.0  0.06470  0.23683  0.64800  1.0000
  C   C261      1.0  0.06014  0.24358  0.63431  1.0000
  C   C262      1.0  0.08649  0.23348  0.65064  1.0000
  C   C263      1.0  0.07770  0.24630  0.62276  1.0000
  C   C264      1.0  0.10448  0.23622  0.63936  1.0000
  C   C265      1.0  0.10002  0.24246  0.62533  1.0000
  C   C266      1.0  0.04608  0.23413  0.65998  1.0000
  H   H245      1.0  0.04287  0.24667  0.63219  1.0000
  H   H246      1.0  0.09020  0.22783  0.66146  1.0000
  H   H247      1.0  0.07395  0.25118  0.61190  1.0000
  H   H248      1.0  0.12180  0.23254  0.64148  1.0000
  H   H249      1.0  0.11383  0.24405  0.61645  1.0000
  H   H250      1.0  0.03142  0.22926  0.65651  1.0000
  H   H251      1.0  0.05129  0.22027  0.66855  1.0000
  H   H252      1.0  0.04059  0.25003  0.66446  1.0000
  C   C267      1.0  0.10052  0.01237  0.49948  1.0000
  H   H253      1.0  0.43627  0.08951  0.50238  1.0000
  C   C268      1.0  0.26022  0.27835  0.65690  1.0000
  C   C269      1.0  0.01889  0.12413  0.60087  1.0000
  H   H254      1.0  0.45309  0.01690  0.60902  1.0000
  H   H255      1.0  0.14656  0.05635  0.62225  1.0000
  S   S98       1.0  0.07612  0.00047  0.55021  1.0000
  N   N17       1.0  0.04948  0.99820  0.49262  1.0000
  N   N18       1.0  0.01372  0.12894  0.55974  1.0000
  H   H256      1.0  0.23436  0.08561  0.70136  1.0000
  N   N19       1.0  0.18528  0.05603  0.69742  1.0000
  C   C270      1.0  0.20717  0.04705  0.69294  1.0000
  C   C271      1.0  0.22515  0.05751  0.69432  1.0000
  H   H257      1.0  0.46955  0.10466  0.56950  1.0000
  H   H258      1.0  0.25558  0.27948  0.66851  1.0000
  C   C272      1.0  0.99449  0.13778  0.56982  1.0000
  C   C273      1.0  0.48972  0.99184  0.52316  1.0000
  H   H259      1.0  0.16343  0.08178  0.70770  1.0000
  C   C274      1.0  0.26196  0.24880  0.64248  1.0000
  S   S99       1.0  0.41162  0.01398  0.48172  1.0000
  Fe  Fe54      1.0  0.31467  0.31746  0.66327  1.0000
  H   H260      1.0  0.27839  0.25265  0.63691  1.0000
  H   H261      1.0  0.08587  0.01569  0.60742  1.0000
  H   H262      1.0  0.35958  0.24609  0.64772  1.0000
  Fe  Fe55      1.0  0.21389  0.00205  0.60941  1.0000
  C   C275      1.0  0.01442  0.10828  0.55600  1.0000
  H   H263      1.0  0.00716  0.25400  0.58268  1.0000
  H   H264      1.0  0.40069  0.07471  0.50340  1.0000
  S   S100      1.0  0.15934  0.13096  0.72372  1.0000
  H   H265      1.0  0.36669  0.00999  0.59688  1.0000
  S   S101      1.0  0.41676  0.01892  0.56187  1.0000
  H   H266      1.0  0.33379  0.03632  0.62571  1.0000
  H   H267      1.0  0.25409  0.29465  0.65055  1.0000
  C   C276      1.0  0.04399  0.00825  0.47836  1.0000
  Fe  Fe56      1.0  0.25751  0.98619  0.62219  1.0000
  H   H268      1.0  0.47699  0.28141  0.62684  1.0000
  H   H269      1.0  0.15257  0.05811  0.69195  1.0000
  H   H270      1.0  0.11068  0.99596  0.50108  1.0000
  C   C277      1.0  0.13292  0.99657  0.58537  1.0000
  C   C278      1.0  0.03042  0.14173  0.55372  1.0000
  C   C279      1.0  0.00699  0.27196  0.58059  1.0000
  H   H271      1.0  0.99945  0.09673  0.60810  1.0000
  S   S102      1.0  0.00744  0.17054  0.62792  1.0000
  H   H272      1.0  0.24240  0.05104  0.69009  1.0000
  N   N20       1.0  0.25069  0.26007  0.65335  1.0000
  Fe  Fe57      1.0  0.04032  0.99908  0.56106  1.0000
  H   H273      1.0  0.48124  0.99342  0.51366  1.0000
  C   C280      1.0  0.16591  0.99193  0.59714  1.0000
  H   H274      1.0  0.02481  0.31352  0.59268  1.0000
  H   H275      1.0  0.19467  0.10031  0.71076  1.0000
  H   H276      1.0  0.28387  0.01829  0.59681  1.0000
  H   H277      1.0  0.47336  0.26737  0.65374  1.0000
  H   H278      1.0  0.27904  0.27538  0.65464  1.0000
  N   N21       1.0  0.29808  0.04389  0.62599  1.0000
  C   C281      1.0  0.32004  0.04700  0.62091  1.0000
  C   C282      1.0  0.28078  0.05716  0.61977  1.0000
  C   C283      1.0  0.32520  0.06334  0.60903  1.0000
  C   C284      1.0  0.28535  0.07353  0.60777  1.0000
  C   C285      1.0  0.30775  0.07648  0.60233  1.0000
  H   H279      1.0  0.34811  0.30820  0.71642  1.0000
  C   C286      1.0  0.23220  0.22596  0.64624  1.0000
  H   H280      1.0  0.26335  0.05487  0.62391  1.0000
  H   H281      1.0  0.36323  0.20639  0.65955  1.0000
  H   H282      1.0  0.27165  0.08356  0.60260  1.0000
  C   C287      1.0  0.46956  0.13877  0.59986  1.0000
  C   C288      1.0  0.04964  0.11253  0.54011  1.0000
  H   H283      1.0  0.06220  0.14357  0.53943  1.0000
  C   C289      1.0  0.04872  0.13364  0.54391  1.0000
  H   H284      1.0  0.28980  0.03433  0.64847  1.0000
  H   H285      1.0  0.44675  0.04592  0.61096  1.0000
  C   C290      1.0  0.46039  0.03111  0.61123  1.0000
  Fe  Fe58      1.0  0.43750  0.01639  0.57926  1.0000
  C   C291      1.0  0.23021  0.25488  0.66059  1.0000
  H   H286      1.0  0.06415  0.05333  0.60029  1.0000
  C   C292      1.0  0.25294  0.23154  0.63879  1.0000
  H   H287      1.0  0.44207  0.12132  0.61131  1.0000
  C   C293      1.0  0.18074  0.07474  0.70395  1.0000
  C   C294      1.0  0.03956  0.00846  0.50419  1.0000
  C   C295      1.0  0.16654  0.04523  0.69561  1.0000
  N   N22       1.0  0.12391  0.04830  0.61018  1.0000
  C   C296      1.0  0.11220  0.06908  0.60609  1.0000
  C   C297      1.0  0.11446  0.02933  0.61095  1.0000
  C   C298      1.0  0.09047  0.07124  0.60261  1.0000
  C   C299      1.0  0.09299  0.03084  0.60723  1.0000
  C   C300      1.0  0.08090  0.05195  0.60310  1.0000
  C   C301      1.0  0.14678  0.04660  0.61355  1.0000
  H   H288      1.0  0.11965  0.08414  0.60552  1.0000
  H   H289      1.0  0.12359  0.01286  0.61429  1.0000
  H   H290      1.0  0.08114  0.08776  0.59952  1.0000
  N   N23       1.0  0.40408  0.07667  0.48072  1.0000
  S   S103      1.0  0.48521  0.21388  0.60535  1.0000
  H   H291      1.0  0.09704  0.01669  0.52152  1.0000
  H   H292      1.0  0.00831  0.13488  0.60799  1.0000
  C   C302      1.0  0.17261  0.01142  0.58858  1.0000
  H   H293      1.0  0.37954  0.05573  0.49147  1.0000
  H   H294      1.0  0.46517  0.02680  0.62211  1.0000
  H   H295      1.0  0.44981  0.99670  0.53980  1.0000
  H   H296      1.0  0.26224  0.22221  0.63046  1.0000
  H   H297      1.0  0.27789  0.01940  0.63774  1.0000
  C   C303      1.0  0.44399  0.09378  0.47927  1.0000
  C   C304      1.0  0.48596  0.05709  0.59765  1.0000
  C   C305      1.0  0.03235  0.09981  0.54613  1.0000
  C   C306      1.0  0.99682  0.28501  0.56919  1.0000
  S   S104      1.0  0.10912  0.98568  0.58332  1.0000
  N   N24       1.0  0.48020  0.03591  0.60055  1.0000
  H   H298      1.0  0.02724  0.00460  0.47721  1.0000
  S   S105      1.0  0.19238  0.98703  0.62907  1.0000
  H   H299      1.0  0.48670  0.00852  0.52679  1.0000
  H   H300      1.0  0.20715  0.12983  0.72442  1.0000
  C   C307      1.0  0.38290  0.06792  0.48146  1.0000
  H   H301      1.0  0.36858  0.08194  0.48100  1.0000
  H   H302      1.0  0.48920  0.00207  0.59658  1.0000
  H   H303      1.0  0.45499  0.02868  0.48111  1.0000
  H   H304      1.0  0.22587  0.18700  0.72172  1.0000
  C   C308      1.0  0.14608  0.98464  0.59561  1.0000
  C   C309      1.0  0.49155  0.26043  0.65104  1.0000
  H   H305      1.0  0.34317  0.98507  0.61461  1.0000
  Fe  Fe59      1.0  0.15862  0.14890  0.81713  1.0000
  S   S106      1.0  0.16532  0.11684  0.80787  1.0000
  S   S107      1.0  0.12394  0.16958  0.81724  1.0000
  Fe  Fe60      1.0  0.20662  0.14372  0.82342  1.0000
  S   S108      1.0  0.21726  0.11088  0.81504  1.0000
  S   S109      1.0  0.22928  0.15954  0.83357  1.0000
  Fe  Fe61      1.0  0.19819  0.12812  0.79706  1.0000
  S   S110      1.0  0.21469  0.12636  0.77419  1.0000
  Fe  Fe62      1.0  0.18351  0.10223  0.82662  1.0000
  S   S111      1.0  0.17375  0.06986  0.84014  1.0000
  S   S112      1.0  0.19004  0.16168  0.80462  1.0000
  S   S113      1.0  0.17437  0.13359  0.83664  1.0000
  H   H306      1.0  0.16538  0.01210  0.83433  1.0000
  C   C310      1.0  0.17365  0.18238  0.74105  1.0000
  H   H307      1.0  0.45185  0.28944  0.86827  1.0000
  H   H308      1.0  0.12785  0.11272  0.87961  1.0000
  H   H309      1.0  0.15959  0.98524  0.83202  1.0000
  S   S114      1.0  0.43406  0.24830  0.86693  1.0000
  C   C311      1.0  0.23136  0.99540  0.82155  1.0000
  N   N25       1.0  0.07950  0.24548  0.89175  1.0000
  C   C312      1.0  0.44677  0.16204  0.86771  1.0000
  S   S115      1.0  0.00373  0.17985  0.87896  1.0000
  Fe  Fe63      1.0  0.31376  0.28109  0.81985  1.0000
  S   S116      1.0  0.34934  0.28615  0.80981  1.0000
  C   C313      1.0  0.31123  0.28447  0.74367  1.0000
  Fe  Fe64      1.0  0.31195  0.24587  0.80177  1.0000
  S   S117      1.0  0.34747  0.24761  0.79063  1.0000
  S   S118      1.0  0.29132  0.22582  0.79304  1.0000
  Fe  Fe65      1.0  0.35606  0.24848  0.81218  1.0000
  S   S119      1.0  0.38845  0.22711  0.81796  1.0000
  Fe  Fe66      1.0  0.33777  0.28483  0.78904  1.0000
  C   C314      1.0  0.32157  0.29122  0.72958  1.0000
  S   S120      1.0  0.32125  0.24319  0.82361  1.0000
  S   S121      1.0  0.30152  0.28335  0.79891  1.0000
  Fe  Fe67      1.0  0.03165  0.19790  0.88124  1.0000
  S   S122      1.0  0.01716  0.20313  0.90383  1.0000
  S   S123      1.0  0.06945  0.18638  0.87808  1.0000
  C   C315      1.0  0.36671  0.24721  0.74982  1.0000
  H   H310      1.0  0.13083  0.09668  0.83372  1.0000
  C   C316      1.0  0.08825  0.22239  0.89769  1.0000
  C   C317      1.0  0.21265  0.18516  0.73097  1.0000
  S   S124      1.0  0.01572  0.23156  0.87108  1.0000
  H   H311      1.0  0.13812  0.16746  0.84471  1.0000
  H   H312      1.0  0.16779  0.16544  0.77628  1.0000
  C   C318      1.0  0.03437  0.25885  0.91614  1.0000
  C   C319      1.0  0.01941  0.27598  0.90952  1.0000
  C   C320      1.0  0.02086  0.29849  0.91005  1.0000
  C   C321      1.0  0.34801  0.30784  0.73900  1.0000
  H   H313      1.0  0.03323  0.24146  0.91599  1.0000
  H   H314      1.0  0.09954  0.26086  0.90210  1.0000
  H   H315      1.0  0.26002  0.25913  0.83641  1.0000
  H   H316      1.0  0.43943  0.28031  0.91417  1.0000
  C   C322      1.0  0.31947  0.28896  0.75538  1.0000
  N   N26       1.0  0.34758  0.23833  0.74673  1.0000
  H   H317      1.0  0.31153  0.28336  0.76618  1.0000
  C   C323      1.0  0.42252  0.24420  0.85229  1.0000
  C   C324      1.0  0.43461  0.23020  0.84265  1.0000
  C   C325      1.0  0.42424  0.22576  0.83178  1.0000
  C   C326      1.0  0.40182  0.23534  0.83047  1.0000
  C   C327      1.0  0.38991  0.24976  0.83991  1.0000
  C   C328      1.0  0.40025  0.25414  0.85081  1.0000
  H   H318      1.0  0.45180  0.22255  0.84368  1.0000
  H   H319      1.0  0.43355  0.21467  0.82446  1.0000
  H   H320      1.0  0.37257  0.25706  0.83902  1.0000
  H   H321      1.0  0.39082  0.26494  0.85828  1.0000
  S   S125      1.0  0.47263  0.21330  0.89244  1.0000
  H   H322      1.0  0.07475  0.13014  0.84455  1.0000
  H   H323      1.0  0.30187  0.21435  0.76388  1.0000
  H   H324      1.0  0.48879  0.27979  0.92997  1.0000
  C   C329      1.0  0.49162  0.31579  0.89221  1.0000
  H   H325      1.0  0.41900  0.20497  0.88503  1.0000
  H   H326      1.0  0.28583  0.98787  0.87470  1.0000
  C   C330      1.0  0.24864  0.17558  0.82201  1.0000
  C   C331      1.0  0.26332  0.18540  0.82783  1.0000
  C   C332      1.0  0.27715  0.20028  0.81899  1.0000
  C   C333      1.0  0.27631  0.20540  0.80429  1.0000
  C   C334      1.0  0.26222  0.19499  0.79841  1.0000
  C   C335      1.0  0.24845  0.18009  0.80724  1.0000
  H   H327      1.0  0.26365  0.18180  0.83924  1.0000
  H   H328      1.0  0.28819  0.20799  0.82358  1.0000
  H   H329      1.0  0.26163  0.19877  0.78703  1.0000
  H   H330      1.0  0.23738  0.17242  0.80265  1.0000
  C   C336      1.0  0.19917  0.12501  0.76070  1.0000
  C   C337      1.0  0.17600  0.12361  0.76358  1.0000
  C   C338      1.0  0.16394  0.12488  0.75219  1.0000
  N   N27       1.0  0.10765  0.11468  0.84882  1.0000
  C   C339      1.0  0.05094  0.26423  0.92289  1.0000
  C   C340      1.0  0.21030  0.12683  0.74651  1.0000
  H   H331      1.0  0.16730  0.12195  0.77451  1.0000
  H   H332      1.0  0.14596  0.12415  0.75443  1.0000
  H   H333      1.0  0.07396  0.21286  0.90249  1.0000
  H   H334      1.0  0.22825  0.12773  0.74422  1.0000
  C   C341      1.0  0.19518  0.04843  0.84586  1.0000
  C   C342      1.0  0.21807  0.04980  0.84085  1.0000
  C   C343      1.0  0.23468  0.03171  0.84481  1.0000
  H   H335      1.0  0.15390  0.19346  0.77039  1.0000
  H   H336      1.0  0.08335  0.29956  0.89293  1.0000
  C   C344      1.0  0.18904  0.02905  0.85504  1.0000
  H   H337      1.0  0.22298  0.06468  0.83380  1.0000
  H   H338      1.0  0.25235  0.03279  0.84077  1.0000
  C   C345      1.0  0.42262  0.19302  0.87756  1.0000
  H   H339      1.0  0.17136  0.02799  0.85907  1.0000
  C   C346      1.0  0.10899  0.17559  0.83396  1.0000
  C   C347      1.0  0.08558  0.18301  0.83551  1.0000
  C   C348      1.0  0.07324  0.18701  0.84892  1.0000
  C   C349      1.0  0.08436  0.18375  0.86080  1.0000
  C   C350      1.0  0.10782  0.17684  0.85917  1.0000
  C   C351      1.0  0.12007  0.17270  0.84582  1.0000
  H   H340      1.0  0.07692  0.18541  0.82635  1.0000
  H   H341      1.0  0.05512  0.19232  0.85010  1.0000
  H   H342      1.0  0.11650  0.17430  0.86833  1.0000
  H   H343      1.0  0.20474  0.17698  0.76731  1.0000
  C   C352      1.0  0.48960  0.28985  0.91941  1.0000
  N   N28       1.0  0.23933  0.24488  0.82560  1.0000
  C   C353      1.0  0.23247  0.24409  0.81296  1.0000
  C   C354      1.0  0.23071  0.23224  0.83806  1.0000
  C   C355      1.0  0.21632  0.23060  0.81260  1.0000
  C   C356      1.0  0.21463  0.21848  0.83806  1.0000
  C   C357      1.0  0.20740  0.21770  0.82525  1.0000
  C   C358      1.0  0.44594  0.28226  0.89133  1.0000
  H   H344      1.0  0.24015  0.25326  0.80298  1.0000
  H   H345      1.0  0.23675  0.23218  0.84799  1.0000
  H   H346      1.0  0.21150  0.22939  0.80250  1.0000
  H   H347      1.0  0.20855  0.20764  0.84779  1.0000
  H   H348      1.0  0.19571  0.20629  0.82504  1.0000
  H   H349      1.0  0.05317  0.30597  0.87769  1.0000
  C   C359      1.0  0.44675  0.29646  0.87815  1.0000
  S   S126      1.0  0.07624  0.29271  0.92957  1.0000
  N   N29       1.0  0.17885  0.17946  0.75460  1.0000
  H   H350      1.0  0.39378  0.20729  0.86724  1.0000
  C   C360      1.0  0.03763  0.30390  0.91664  1.0000
  C   C361      1.0  0.05297  0.28677  0.92292  1.0000
  H   H351      1.0  0.00924  0.31185  0.90507  1.0000
  S   S127      1.0  0.34891  0.30572  0.76776  1.0000
  H   H352      1.0  0.36227  0.31693  0.73718  1.0000
  C   C362      1.0  0.12254  0.11007  0.85843  1.0000
  N   N30       1.0  0.41340  0.17978  0.85765  1.0000
  H   H353      1.0  0.20072  0.99602  0.86595  1.0000
  C   C363      1.0  0.09395  0.12693  0.87589  1.0000
  C   C364      1.0  0.40844  0.19427  0.86743  1.0000
  H   H354      1.0  0.04013  0.27322  0.87154  1.0000
  C   C365      1.0  0.25700  0.25843  0.82546  1.0000
  Fe  Fe68      1.0  0.46923  0.23094  0.87015  1.0000
  C   C366      1.0  0.20819  0.00207  0.82563  1.0000
  H   H355      1.0  0.38982  0.16558  0.84960  1.0000
  C   C367      1.0  0.43954  0.29150  0.90399  1.0000
  H   H356      1.0  0.11741  0.12408  0.82651  1.0000
  C   C368      1.0  0.06119  0.28902  0.88118  1.0000
  C   C369      1.0  0.20052  0.17970  0.75657  1.0000
  C   C370      1.0  0.08722  0.26340  0.89490  1.0000
  C   C371      1.0  0.20564  0.01091  0.85894  1.0000
  H   H357      1.0  0.14716  0.16912  0.76475  1.0000
  C   C372      1.0  0.44178  0.17668  0.87775  1.0000
  C   C373      1.0  0.17500  0.12761  0.73793  1.0000
  C   C374      1.0  0.33249  0.22932  0.75777  1.0000
  C   C375      1.0  0.19046  0.18529  0.72905  1.0000
  C   C376      1.0  0.07816  0.28543  0.88968  1.0000
  C   C377      1.0  0.22850  0.01211  0.85370  1.0000
  H   H358      1.0  0.23505  0.18169  0.74645  1.0000
  C   C378      1.0  0.19828  0.12818  0.73521  1.0000
  C   C379      1.0  0.08622  0.12561  0.85237  1.0000
  C   C380      1.0  0.43230  0.16384  0.85766  1.0000
  H   H359      1.0  0.25230  0.27600  0.82019  1.0000
  H   H360      1.0  0.10172  0.10062  0.83148  1.0000
  C   C381      1.0  0.39825  0.18081  0.84724  1.0000
  H   H361      1.0  0.27311  0.25106  0.81940  1.0000
  H   H362      1.0  0.29677  0.21559  0.73858  1.0000
  S   S128      1.0  0.29461  0.29612  0.83917  1.0000
  H   H363      1.0  0.05738  0.23460  0.88059  1.0000
  C   C382      1.0  0.07894  0.13160  0.86601  1.0000
  H   H364      1.0  0.29696  0.27539  0.74555  1.0000
  H   H365      1.0  0.38491  0.19584  0.84733  1.0000
  H   H366      1.0  0.09836  0.22189  0.90628  1.0000
  H   H367      1.0  0.45289  0.17542  0.88558  1.0000
  C   C383      1.0  0.11478  0.10870  0.83443  1.0000
  H   H368      1.0  0.37272  0.26021  0.74089  1.0000
  H   H369      1.0  0.46183  0.14946  0.86776  1.0000
  H   H370      1.0  0.34162  0.31362  0.83948  1.0000
  H   H371      1.0  0.06209  0.14071  0.86871  1.0000
  H   H372      1.0  0.43630  0.15245  0.84986  1.0000
  C   C384      1.0  0.34526  0.23850  0.73282  1.0000
  H   H373      1.0  0.24244  0.00792  0.81713  1.0000
  H   H374      1.0  0.08868  0.13232  0.88629  1.0000
  C   C385      1.0  0.21777  0.18233  0.74481  1.0000
  H   H375      1.0  0.09885  0.21371  0.88904  1.0000
  H   H376      1.0  0.40790  0.18214  0.83616  1.0000
  H   H377      1.0  0.06259  0.25088  0.92784  1.0000
  H   H378      1.0  0.33431  0.22897  0.76881  1.0000
  C   C386      1.0  0.31406  0.22093  0.75503  1.0000
  H   H379      1.0  0.13970  0.10179  0.85553  1.0000
  H   H380      1.0  0.45056  0.26422  0.89172  1.0000
  H   H381      1.0  0.20157  0.01989  0.82416  1.0000
  C   C387      1.0  0.31127  0.22153  0.74089  1.0000
  C   C388      1.0  0.33786  0.30072  0.75311  1.0000
  C   C389      1.0  0.34003  0.30292  0.72724  1.0000
  C   C390      1.0  0.11592  0.11613  0.87209  1.0000
  C   C391      1.0  0.06339  0.24886  0.88306  1.0000
  Fe  Fe69      1.0  0.99983  0.23600  0.89363  1.0000
  C   C392      1.0  0.16102  0.17685  0.76710  1.0000
  C   C393      1.0  0.48362  0.31340  0.91799  1.0000
  H   H382      1.0  0.36163  0.25572  0.75942  1.0000
  C   C394      1.0  0.32704  0.23019  0.72970  1.0000
  C   C395      1.0  0.05384  0.27065  0.87774  1.0000
  S   S129      1.0  0.99936  0.27013  0.89998  1.0000
  H   H383      1.0  0.38085  0.23337  0.75173  1.0000
  H   H384      1.0  0.43469  0.31303  0.92579  1.0000
  H   H385      1.0  0.15656  0.18190  0.73944  1.0000
  H   H386      1.0  0.31589  0.99061  0.88830  1.0000
  N   N31       1.0  0.43414  0.31430  0.90352  1.0000
  S   S130      1.0  0.24963  0.98903  0.85743  1.0000
  H   H387      1.0  0.16669  0.98894  0.84884  1.0000
  N   N32       1.0  0.19430  0.98646  0.83191  1.0000
  C   C396      1.0  0.17028  0.99357  0.83698  1.0000
  H   H388      1.0  0.33763  0.31473  0.86541  1.0000
  C   C397      1.0  0.16990  0.56285  0.19944  1.0000
  Fe  Fe70      1.0  0.18409  0.60994  0.16302  1.0000
  H   H389      1.0  0.03442  0.58635  0.11897  1.0000
  S   S131      1.0  0.18098  0.58546  0.14858  1.0000
  Fe  Fe71      1.0  0.17775  0.62209  0.19329  1.0000
  H   H390      1.0  0.39825  0.37618  0.00566  1.0000
  C   C398      1.0  0.46619  0.47902  0.03749  1.0000
  H   H391      1.0  0.26897  0.51902  0.08472  1.0000
  C   C399      1.0  0.29225  0.36751  0.12121  1.0000
  C   C400      1.0  0.16015  0.38973  0.11768  1.0000
  H   H392      1.0  0.31338  0.46809  0.13189  1.0000
  S   S132      1.0  0.15333  0.62011  0.17877  1.0000
  S   S133      1.0  0.20814  0.60863  0.17838  1.0000
  C   C401      1.0  0.31556  0.36182  0.11697  1.0000
  Fe  Fe72      1.0  0.43573  0.35754  0.06876  1.0000
  S   S134      1.0  0.40310  0.37785  0.06284  1.0000
  S   S135      1.0  0.18798  0.64549  0.15256  1.0000
  Fe  Fe73      1.0  0.45621  0.39909  0.06982  1.0000
  S   S136      1.0  0.42531  0.42296  0.06448  1.0000
  H   H393      1.0  0.39381  0.34658  0.98409  1.0000
  Fe  Fe74      1.0  0.40560  0.39800  0.07964  1.0000
  S   S137      1.0  0.37711  0.40574  0.09769  1.0000
  Fe  Fe75      1.0  0.42534  0.40107  0.04807  1.0000
  S   S138      1.0  0.42104  0.41922  0.02577  1.0000
  S   S139      1.0  0.43682  0.37602  0.08654  1.0000
  S   S140      1.0  0.45757  0.37897  0.05240  1.0000
  Fe  Fe76      1.0  0.06832  0.38368  0.04952  1.0000
  S   S141      1.0  0.04295  0.38010  0.06987  1.0000
  S   S142      1.0  0.05382  0.38515  0.02918  1.0000
  Fe  Fe77      1.0  0.10615  0.38768  0.06551  1.0000
  S   S143      1.0  0.08368  0.38454  0.08671  1.0000
  S   S144      1.0  0.14285  0.39025  0.06523  1.0000
  Fe  Fe78      1.0  0.07138  0.35690  0.07933  1.0000
  Fe  Fe79      1.0  0.05768  0.40805  0.07525  1.0000
  S   S145      1.0  0.04025  0.43886  0.08480  1.0000
  S   S146      1.0  0.09568  0.35833  0.05863  1.0000
  S   S147      1.0  0.08118  0.41324  0.05437  1.0000
  Fe  Fe80      1.0  0.22215  0.46115  0.13348  1.0000
  S   S148      1.0  0.21970  0.47204  0.11010  1.0000
  S   S149      1.0  0.22611  0.48339  0.14912  1.0000
  Fe  Fe81      1.0  0.22539  0.41131  0.13131  1.0000
  S   S150      1.0  0.22333  0.41833  0.10785  1.0000
  S   S151      1.0  0.23216  0.37506  0.14166  1.0000
  Fe  Fe82      1.0  0.24733  0.44287  0.10647  1.0000
  S   S152      1.0  0.27639  0.44540  0.08798  1.0000
  Fe  Fe83      1.0  0.19601  0.44643  0.11352  1.0000
  S   S153      1.0  0.16232  0.45327  0.10556  1.0000
  S   S154      1.0  0.25155  0.43374  0.12952  1.0000
  S   S155      1.0  0.19624  0.43769  0.13733  1.0000
  H   H394      1.0  0.17284  0.34560  0.10779  1.0000
  C   C402      1.0  0.01244  0.45043  0.08207  1.0000
  H   H395      1.0  0.46143  0.48453  0.07918  1.0000
  H   H396      1.0  0.49005  0.35725  0.07329  1.0000
  H   H397      1.0  0.35604  0.37026  0.08842  1.0000
  C   C403      1.0  0.05945  0.37637  0.00169  1.0000
  C   C404      1.0  0.28853  0.38301  0.09665  1.0000
  C   C405      1.0  0.04102  0.46603  0.04935  1.0000
  C   C406      1.0  0.14828  0.40960  0.07521  1.0000
  C   C407      1.0  0.13066  0.42398  0.08190  1.0000
  C   C408      1.0  0.13530  0.43790  0.09078  1.0000
  C   C409      1.0  0.15749  0.43732  0.09317  1.0000
  C   C410      1.0  0.17517  0.42340  0.08614  1.0000
  C   C411      1.0  0.17058  0.40971  0.07711  1.0000
  H   H398      1.0  0.11343  0.42421  0.08040  1.0000
  H   H399      1.0  0.12156  0.44877  0.09608  1.0000
  H   H400      1.0  0.19236  0.42320  0.08761  1.0000
  H   H401      1.0  0.18431  0.39887  0.07178  1.0000
  C   C412      1.0  0.17071  0.33844  0.15858  1.0000
  C   C413      1.0  0.07010  0.37577  0.01357  1.0000
  H   H402      1.0  0.45443  0.62617  0.08783  1.0000
  H   H403      1.0  0.10162  0.36724  0.02183  1.0000
  H   H404      1.0  0.04151  0.38237  0.00230  1.0000
  C   C414      1.0  0.21141  0.33819  0.15366  1.0000
  C   C415      1.0  0.20833  0.36125  0.14821  1.0000
  C   C416      1.0  0.18638  0.37289  0.14798  1.0000
  C   C417      1.0  0.16762  0.36149  0.15307  1.0000
  H   H405      1.0  0.18388  0.39073  0.14403  1.0000
  H   H406      1.0  0.15067  0.37059  0.15297  1.0000
  C   C418      1.0  0.34935  0.41697  0.09466  1.0000
  C   C419      1.0  0.34414  0.42452  0.08084  1.0000
  C   C420      1.0  0.32168  0.43327  0.07892  1.0000
  C   C421      1.0  0.30431  0.43413  0.09076  1.0000
  C   C422      1.0  0.30954  0.42626  0.10455  1.0000
  C   C423      1.0  0.33200  0.41792  0.10649  1.0000
  H   H407      1.0  0.35743  0.42384  0.07166  1.0000
  H   H408      1.0  0.31777  0.43934  0.06822  1.0000
  H   H409      1.0  0.29637  0.42681  0.11374  1.0000
  H   H410      1.0  0.33594  0.41203  0.11720  1.0000
  C   C424      1.0  0.12151  0.40694  0.12390  1.0000
  H   H411      1.0  0.11685  0.33127  0.14136  1.0000
  C   C425      1.0  0.45238  0.37176  0.00131  1.0000
  C   C426      1.0  0.44332  0.38265  0.01322  1.0000
  C   C427      1.0  0.43468  0.40557  0.01119  1.0000
  C   C428      1.0  0.43567  0.41763  0.99722  1.0000
  H   H412      1.0  0.17788  0.38833  0.11857  1.0000
  H   H413      1.0  0.45879  0.35396  0.00296  1.0000
  H   H414      1.0  0.44262  0.37318  0.02394  1.0000
  H   H415      1.0  0.42909  0.43539  0.99557  1.0000
  H   H416      1.0  0.44025  0.46097  0.03446  1.0000
  C   C429      1.0  0.45779  0.45999  0.03573  1.0000
  C   C430      1.0  0.26683  0.49590  0.11790  1.0000
  C   C431      1.0  0.04033  0.62050  0.11106  1.0000
  C   C432      1.0  0.19551  0.55782  0.14804  1.0000
  C   C433      1.0  0.19063  0.54540  0.13836  1.0000
  C   C434      1.0  0.20031  0.52273  0.13832  1.0000
  C   C435      1.0  0.21494  0.51227  0.14801  1.0000
  C   C436      1.0  0.22030  0.52482  0.15744  1.0000
  C   C437      1.0  0.21061  0.54752  0.15749  1.0000
  H   H417      1.0  0.17893  0.55327  0.13104  1.0000
  H   H418      1.0  0.19601  0.51325  0.13103  1.0000
  H   H419      1.0  0.23169  0.51684  0.16494  1.0000
  H   H420      1.0  0.21450  0.55692  0.16496  1.0000
  C   C438      1.0  0.00789  0.49434  0.04896  1.0000
  H   H421      1.0  0.13175  0.64591  0.14801  1.0000
  H   H422      1.0  0.24952  0.50321  0.12141  1.0000
  C   C439      1.0  0.16761  0.64843  0.22544  1.0000
  C   C440      1.0  0.30271  0.47619  0.12395  1.0000
  N   N33       1.0  0.48828  0.47762  0.03920  1.0000
  C   C441      1.0  0.99958  0.43923  0.07586  1.0000
  C   C442      1.0  0.26061  0.50633  0.09278  1.0000
  C   C443      1.0  0.19266  0.32681  0.15884  1.0000
  H   H423      1.0  0.27819  0.39190  0.08869  1.0000
  H   H424      1.0  0.15518  0.57638  0.20082  1.0000
  H   H425      1.0  0.18935  0.52038  0.19880  1.0000
  H   H426      1.0  0.14549  0.57347  0.17803  1.0000
  Fe  Fe84      1.0  0.20943  0.64511  0.16936  1.0000
  H   H427      1.0  0.18684  0.36889  0.09797  1.0000
  H   H428      1.0  0.12024  0.32070  0.12467  1.0000
  H   H429      1.0  0.18566  0.49547  0.18202  1.0000
  C   C444      1.0  0.17820  0.52651  0.19087  1.0000
  H   H430      1.0  0.32600  0.35361  0.12500  1.0000
  N   N34       1.0  0.02448  0.61557  0.08664  1.0000
  H   H431      1.0  0.01325  0.48041  0.09057  1.0000
  H   H432      1.0  0.10918  0.41891  0.12936  1.0000
  S   S156      1.0  0.07206  0.32362  0.09430  1.0000
  C   C445      1.0  0.45272  0.38366  0.98732  1.0000
  C   C446      1.0  0.47367  0.45020  0.07600  1.0000
  N   N35       1.0  0.39848  0.38040  0.98309  1.0000
  C   C447      1.0  0.02590  0.59795  0.09771  1.0000
  C   C448      1.0  0.15107  0.54234  0.16986  1.0000
  N   N36       1.0  0.27506  0.49619  0.10363  1.0000
  C   C449      1.0  0.29679  0.48665  0.09931  1.0000
  H   H433      1.0  0.00734  0.62878  0.06874  1.0000
  H   H434      1.0  0.32810  0.46876  0.10590  1.0000
  C   C450      1.0  0.31100  0.47667  0.10938  1.0000
  H   H435      1.0  0.09721  0.39653  0.11374  1.0000
  H   H436      1.0  0.41942  0.34996  0.99010  1.0000
  N   N37       1.0  0.15351  0.37783  0.10888  1.0000
  H   H437      1.0  0.00505  0.60008  0.07591  1.0000
  C   C451      1.0  0.13114  0.37974  0.10770  1.0000
  C   C452      1.0  0.03102  0.63551  0.08746  1.0000
  H   H438      1.0  0.48100  0.60732  0.08608  1.0000
  C   C453      1.0  0.47224  0.62331  0.08973  1.0000
  H   H439      1.0  0.48439  0.50823  0.04761  1.0000
  H   H440      1.0  0.43753  0.33009  0.09920  1.0000
  H   H441      1.0  0.03159  0.60731  0.06566  1.0000
  C   C454      1.0  0.07184  0.36912  0.98906  1.0000
  C   C455      1.0  0.38497  0.40997  0.99726  1.0000
  N   N38       1.0  0.99796  0.48148  0.04242  1.0000
  H   H442      1.0  0.04551  0.33202  0.03608  1.0000
  H   H443      1.0  0.46576  0.42462  0.03448  1.0000
  H   H444      1.0  0.99340  0.42545  0.98033  1.0000
  H   H445      1.0  0.25739  0.49306  0.08725  1.0000
  C   C456      1.0  0.09324  0.36775  0.01277  1.0000
  H   H446      1.0  0.02047  0.58222  0.09712  1.0000
  H   H447      1.0  0.26068  0.38266  0.11416  1.0000
  H   H448      1.0  0.17177  0.55348  0.21032  1.0000
  C   C457      1.0  0.17038  0.36239  0.10104  1.0000
  C   C458      1.0  0.16239  0.52030  0.17095  1.0000
  H   H449      1.0  0.27376  0.48543  0.13957  1.0000
  H   H450      1.0  0.35304  0.34197  0.09734  1.0000
  C   C459      1.0  0.47624  0.47211  0.07723  1.0000
  C   C460      1.0  0.27873  0.37814  0.11096  1.0000
  C   C461      1.0  0.15361  0.55609  0.17938  1.0000
  H   H451      1.0  0.03700  0.49648  0.05829  1.0000
  C   C462      1.0  0.14429  0.40454  0.12525  1.0000
  H   H452      1.0  0.10636  0.63909  0.13233  1.0000
  H   H453      1.0  0.03009  0.33125  0.08232  1.0000
  H   H454      1.0  0.45494  0.49489  0.03755  1.0000
  C   C463      1.0  0.11481  0.39438  0.11514  1.0000
  C   C464      1.0  0.09502  0.36122  0.98822  1.0000
  H   H455      1.0  0.06348  0.36944  0.98001  1.0000
  H   H456      1.0  0.24396  0.51485  0.09757  1.0000
  H   H457      1.0  0.05745  0.45971  0.05258  1.0000
  C   C465      1.0  0.03367  0.60021  0.11012  1.0000
  H   H458      1.0  0.22834  0.32908  0.15387  1.0000
  H   H459      1.0  0.04587  0.34101  0.05286  1.0000
  C   C466      1.0  0.28051  0.48588  0.12826  1.0000
  C   C467      1.0  0.01683  0.61277  0.07357  1.0000
  H   H460      1.0  0.18526  0.57087  0.19503  1.0000
  H   H461      1.0  0.12354  0.35437  0.99957  1.0000
  H   H462      1.0  0.31942  0.38116  0.08164  1.0000
  H   H463      1.0  0.35910  0.36269  0.10679  1.0000
  H   H464      1.0  0.45695  0.44577  0.07705  1.0000
  S   S157      1.0  0.17460  0.60677  0.21681  1.0000
  C   C468      1.0  0.10563  0.36051  0.00013  1.0000
  H   H465      1.0  0.14130  0.54914  0.16125  1.0000
  C   C469      1.0  0.31188  0.37699  0.09276  1.0000
  N   N39       1.0  0.16678  0.54800  0.18985  1.0000
  N   N40       1.0  0.32509  0.36670  0.10290  1.0000
  H   H466      1.0  0.04643  0.62259  0.12060  1.0000
  H   H467      1.0  0.28457  0.36381  0.13237  1.0000
  C   C470      1.0  0.40774  0.35681  0.98216  1.0000
  C   C471      1.0  0.05472  0.32929  0.04537  1.0000
  H   H468      1.0  0.16130  0.50975  0.16327  1.0000
  H   H469      1.0  0.30305  0.48617  0.08803  1.0000
  C   C472      1.0  0.17608  0.51230  0.18150  1.0000
  C   C473      1.0  0.47214  0.43950  0.03573  1.0000
  H   H470      1.0  0.07187  0.33379  0.04102  1.0000
  C   C474      1.0  0.34945  0.35996  0.09865  1.0000
  C   C475      1.0  0.39407  0.38758  0.99612  1.0000
  H   H471      1.0  0.16504  0.36073  0.09085  1.0000
  H   H472      1.0  0.99885  0.51022  0.05183  1.0000
  C   C476      1.0  0.02952  0.48677  0.05256  1.0000
  S   S158      1.0  0.49032  0.40646  0.07199  1.0000
  C   C477      1.0  0.03088  0.45314  0.04254  1.0000
  H   H473      1.0  0.14977  0.41468  0.13172  1.0000
  S   S159      1.0  0.14687  0.32458  0.16487  1.0000
  H   H474      1.0  0.38237  0.41575  0.00754  1.0000
  C   C478      1.0  0.03908  0.63823  0.09965  1.0000
  C   C479      1.0  0.38028  0.42498  0.98497  1.0000
  H   H475      1.0  0.00128  0.45093  0.03404  1.0000
  H   H476      1.0  0.47253  0.62096  0.10147  1.0000
  C   C480      1.0  0.44456  0.40670  0.98531  1.0000
  H   H477      1.0  0.03952  0.43676  0.04023  1.0000
  H   H478      1.0  0.12595  0.37057  0.10053  1.0000
  H   H479      1.0  0.37364  0.44248  0.98565  1.0000
  H   H480      1.0  0.00642  0.42277  0.07307  1.0000
  C   C481      1.0  0.00337  0.47172  0.08573  1.0000
  C   C482      1.0  0.00921  0.46120  0.03911  1.0000
  N   N41       1.0  0.48358  0.64244  0.08228  1.0000
  S   S160      1.0  0.44454  0.31970  0.07028  1.0000
  H   H481      1.0  0.02960  0.64960  0.07879  1.0000
  H   H482      1.0  0.49218  0.36817  0.09650  1.0000
  S   S161      1.0  0.18038  0.59921  0.32560  1.0000
  Fe  Fe85      1.0  0.06186  0.50740  0.46381  1.0000
  S   S162      1.0  0.05403  0.47987  0.45395  1.0000
  Fe  Fe86      1.0  0.05475  0.54175  0.43702  1.0000
  S   S163      1.0  0.04595  0.51665  0.42527  1.0000
  H   H483      1.0  0.31858  0.43818  0.41974  1.0000
  Fe  Fe87      1.0  0.02538  0.50477  0.44645  1.0000
  Fe  Fe88      1.0  0.07535  0.49386  0.43385  1.0000
  S   S164      1.0  0.10029  0.46908  0.42190  1.0000
  S   S165      1.0  0.08558  0.51943  0.44425  1.0000
  Fe  Fe89      1.0  0.24911  0.48781  0.35104  1.0000
  S   S166      1.0  0.27348  0.45593  0.35477  1.0000
  S   S167      1.0  0.25454  0.51239  0.33047  1.0000
  Fe  Fe90      1.0  0.22248  0.47897  0.38071  1.0000
  S   S168      1.0  0.24489  0.44629  0.38685  1.0000
  S   S169      1.0  0.19548  0.49886  0.39493  1.0000
  Fe  Fe91      1.0  0.27399  0.46515  0.37633  1.0000
  S   S170      1.0  0.30909  0.46246  0.38274  1.0000
  Fe  Fe92      1.0  0.24260  0.43966  0.36472  1.0000
  S   S171      1.0  0.24142  0.40413  0.36034  1.0000
  S   S172      1.0  0.25171  0.49803  0.37172  1.0000
  S   S173      1.0  0.21813  0.47122  0.35946  1.0000
  Fe  Fe93      1.0  0.38004  0.51707  0.42782  1.0000
  S   S174      1.0  0.40888  0.52383  0.41017  1.0000
  S   S175      1.0  0.34470  0.51195  0.42518  1.0000
  Fe  Fe94      1.0  0.40859  0.51861  0.45102  1.0000
  S   S176      1.0  0.43956  0.52536  0.43492  1.0000
  Fe  Fe95      1.0  0.41517  0.54956  0.42241  1.0000
  S   S177      1.0  0.42162  0.58330  0.40902  1.0000
  Fe  Fe96      1.0  0.43070  0.49923  0.42420  1.0000
  S   S178      1.0  0.45698  0.47374  0.41385  1.0000
  S   S179      1.0  0.38452  0.54472  0.43929  1.0000
  S   S180      1.0  0.40159  0.49056  0.44105  1.0000
  H   H484      1.0  0.18098  0.62413  0.26378  1.0000
  C   C483      1.0  0.49016  0.41355  0.44289  1.0000
  C   C484      1.0  0.23502  0.59971  0.34245  1.0000
  S   S181      1.0  0.18762  0.36497  0.32143  1.0000
  H   H485      1.0  0.06292  0.62157  0.41167  1.0000
  H   H486      1.0  0.02210  0.44517  0.44116  1.0000
  H   H487      1.0  0.18683  0.33488  0.37617  1.0000
  C   C485      1.0  0.17724  0.63097  0.25312  1.0000
  C   C486      1.0  0.45275  0.55750  0.38124  1.0000
  C   C487      1.0  0.01460  0.43207  0.44882  1.0000
  C   C488      1.0  0.00590  0.63651  0.41942  1.0000
  H   H488      1.0  0.46017  0.55251  0.37064  1.0000
  H   H489      1.0  0.36840  0.46256  0.43661  1.0000
  C   C489      1.0  0.46974  0.45089  0.42524  1.0000
  H   H490      1.0  0.44750  0.57604  0.37991  1.0000
  C   C490      1.0  0.21293  0.60354  0.34967  1.0000
  C   C491      1.0  0.40126  0.64596  0.41513  1.0000
  C   C492      1.0  0.47160  0.42811  0.44869  1.0000
  C   C493      1.0  0.46151  0.44683  0.43992  1.0000
  C   C494      1.0  0.01542  0.59649  0.39395  1.0000
  C   C495      1.0  0.34187  0.45026  0.42987  1.0000
  H   H491      1.0  0.46494  0.42486  0.46000  1.0000
  H   H492      1.0  0.44721  0.45791  0.44451  1.0000
  C   C496      1.0  0.14732  0.50164  0.45323  1.0000
  C   C497      1.0  0.44280  0.59879  0.41040  1.0000
  C   C498      1.0  0.45549  0.59319  0.42163  1.0000
  C   C499      1.0  0.17416  0.33971  0.36912  1.0000
  C   C500      1.0  0.44671  0.61756  0.39990  1.0000
  H   H493      1.0  0.45262  0.57875  0.42978  1.0000
  C   C501      1.0  0.01746  0.59757  0.42988  1.0000
  H   H494      1.0  0.43701  0.62198  0.39115  1.0000
  C   C502      1.0  0.22533  0.39345  0.35008  1.0000
  C   C503      1.0  0.20926  0.40733  0.34243  1.0000
  C   C504      1.0  0.19799  0.39826  0.33375  1.0000
  C   C505      1.0  0.20251  0.37520  0.33261  1.0000
  C   C506      1.0  0.21829  0.36123  0.34046  1.0000
  C   C507      1.0  0.22957  0.37031  0.34915  1.0000
  H   H495      1.0  0.20570  0.42512  0.34308  1.0000
  H   H496      1.0  0.18569  0.40924  0.32782  1.0000
  H   H497      1.0  0.22191  0.34346  0.33979  1.0000
  H   H498      1.0  0.24195  0.35938  0.35502  1.0000
  C   C508      1.0  0.31803  0.47974  0.39300  1.0000
  C   C509      1.0  0.30323  0.48926  0.40399  1.0000
  C   C510      1.0  0.31162  0.49980  0.41337  1.0000
  C   C511      1.0  0.33485  0.50115  0.41185  1.0000
  C   C512      1.0  0.34953  0.49249  0.40047  1.0000
  C   C513      1.0  0.34116  0.48177  0.39117  1.0000
  H   H499      1.0  0.28545  0.48775  0.40562  1.0000
  H   H500      1.0  0.30009  0.50647  0.42210  1.0000
  H   H501      1.0  0.36739  0.49348  0.39909  1.0000
  H   H502      1.0  0.35276  0.47449  0.38270  1.0000
  C   C514      1.0  0.12581  0.47827  0.41287  1.0000
  C   C515      1.0  0.14285  0.46319  0.40618  1.0000
  C   C516      1.0  0.16408  0.46960  0.40003  1.0000
  C   C517      1.0  0.16835  0.49108  0.40065  1.0000
  C   C518      1.0  0.15113  0.50631  0.40702  1.0000
  C   C519      1.0  0.12989  0.49998  0.41305  1.0000
  H   H503      1.0  0.13975  0.44639  0.40598  1.0000
  H   H504      1.0  0.17731  0.45775  0.39517  1.0000
  H   H505      1.0  0.15433  0.52295  0.40752  1.0000
  H   H506      1.0  0.11683  0.51181  0.41801  1.0000
  H   H507      1.0  0.40925  0.44701  0.42818  1.0000
  C   C520      1.0  0.02846  0.63846  0.41372  1.0000
  Fe  Fe97      1.0  0.18596  0.63247  0.31164  1.0000
  C   C521      1.0  0.40394  0.45032  0.41742  1.0000
  H   H508      1.0  0.07263  0.59011  0.38600  1.0000
  C   C522      1.0  0.20081  0.57486  0.32588  1.0000
  C   C523      1.0  0.19602  0.55568  0.33576  1.0000
  C   C524      1.0  0.21234  0.53637  0.33708  1.0000
  C   C525      1.0  0.23351  0.53606  0.32844  1.0000
  C   C526      1.0  0.23814  0.55501  0.31826  1.0000
  C   C527      1.0  0.22186  0.57446  0.31704  1.0000
  H   H509      1.0  0.17969  0.55585  0.34255  1.0000
  H   H510      1.0  0.20851  0.52171  0.34478  1.0000
  H   H511      1.0  0.25449  0.55479  0.31149  1.0000
  H   H512      1.0  0.22564  0.58916  0.30936  1.0000
  H   H513      1.0  0.99255  0.41323  0.42611  1.0000
  H   H514      1.0  0.46243  0.51612  0.39539  1.0000
  C   C528      1.0  0.17816  0.61650  0.24313  1.0000
  H   H515      1.0  0.14715  0.51727  0.45706  1.0000
  H   H516      1.0  0.18260  0.59854  0.24616  1.0000
  N   N42       1.0  0.46905  0.55003  0.39126  1.0000
  S   S182      1.0  0.06163  0.57623  0.42549  1.0000
  S   S183      1.0  0.03171  0.53183  0.45767  1.0000
  H   H517      1.0  0.01464  0.43011  0.42216  1.0000
  C   C529      1.0  0.13043  0.48824  0.45912  1.0000
  C   C530      1.0  0.47520  0.62571  0.41210  1.0000
  C   C531      1.0  0.05522  0.59817  0.38605  1.0000
  H   H518      1.0  0.17722  0.50525  0.43736  1.0000
  H   H519      1.0  0.47942  0.58228  0.38871  1.0000
  H   H520      1.0  0.01740  0.44693  0.46697  1.0000
  H   H521      1.0  0.02163  0.39990  0.42598  1.0000
  S   S184      1.0  0.14992  0.33270  0.30952  1.0000
  H   H522      1.0  0.26528  0.57545  0.33971  1.0000
  C   C532      1.0  0.20851  0.54815  0.37366  1.0000
  C   C533      1.0  0.20440  0.58642  0.35993  1.0000
  N   N43       1.0  0.21769  0.56618  0.36310  1.0000
  H   H523      1.0  0.24957  0.54588  0.35804  1.0000
  H   H524      1.0  0.09820  0.46391  0.46700  1.0000
  H   H525      1.0  0.14616  0.44702  0.43900  1.0000
  H   H526      1.0  0.13464  0.36725  0.33000  1.0000
  C   C534      1.0  0.47167  0.60661  0.42245  1.0000
  C   C535      1.0  0.17347  0.62519  0.22921  1.0000
  H   H527      1.0  0.17697  0.46961  0.42870  1.0000
  N   N44       1.0  0.14256  0.35211  0.35049  1.0000
  Fe  Fe98      1.0  0.18411  0.33078  0.31595  1.0000
  H   H528      1.0  0.41385  0.55708  0.46961  1.0000
  C   C536      1.0  0.15296  0.36814  0.35376  1.0000
  C   C537      1.0  0.12627  0.35889  0.34043  1.0000
  C   C538      1.0  0.16884  0.36222  0.36316  1.0000
  C   C539      1.0  0.00916  0.41458  0.42889  1.0000
  C   C540      1.0  0.24834  0.57891  0.34559  1.0000
  C   C541      1.0  0.16409  0.47483  0.43738  1.0000
  N   N45       1.0  0.25950  0.42092  0.31942  1.0000
  C   C542      1.0  0.27190  0.43532  0.32267  1.0000
  C   C543      1.0  0.24030  0.42911  0.31346  1.0000
  C   C544      1.0  0.26510  0.45858  0.32003  1.0000
  C   C545      1.0  0.23273  0.45228  0.31100  1.0000
  C   C546      1.0  0.24525  0.46708  0.31433  1.0000
  C   C547      1.0  0.26746  0.39666  0.32194  1.0000
  H   H529      1.0  0.28704  0.42885  0.32746  1.0000
  H   H530      1.0  0.23051  0.41771  0.31079  1.0000
  H   H531      1.0  0.27500  0.46999  0.32259  1.0000
  H   H532      1.0  0.21723  0.45873  0.30659  1.0000
  H   H533      1.0  0.23959  0.48512  0.31258  1.0000
  H   H534      1.0  0.27146  0.39140  0.33303  1.0000
  H   H535      1.0  0.25437  0.38672  0.32093  1.0000
  H   H536      1.0  0.28286  0.39239  0.31416  1.0000
  H   H537      1.0  0.22056  0.54044  0.38123  1.0000
  N   N46       1.0  0.13009  0.46893  0.45395  1.0000
  H   H538      1.0  0.40299  0.62110  0.43422  1.0000
  H   H539      1.0  0.01312  0.58176  0.43598  1.0000
  C   C548      1.0  0.48776  0.52042  0.40710  1.0000
  C   C549      1.0  0.00047  0.61615  0.42768  1.0000
  H   H540      1.0  0.40506  0.46819  0.41269  1.0000
  C   C550      1.0  0.01055  0.61864  0.38718  1.0000
  H   H541      1.0  0.43698  0.55001  0.38544  1.0000
  H   H542      1.0  0.00373  0.49317  0.42120  1.0000
  H   H543      1.0  0.11171  0.37072  0.34481  1.0000
  H   H544      1.0  0.11735  0.49364  0.46764  1.0000
  H   H545      1.0  0.24152  0.61260  0.33411  1.0000
  C   C551      1.0  0.04547  0.62004  0.41615  1.0000
  H   H546      1.0  0.04191  0.56909  0.39887  1.0000
  H   H547      1.0  0.20541  0.53480  0.36818  1.0000
  N   N47       1.0  0.38073  0.44584  0.41847  1.0000
  H   H548      1.0  0.32883  0.45719  0.43788  1.0000
  C   C552      1.0  0.36435  0.45335  0.42904  1.0000
  H   H549      1.0  0.08475  0.32770  0.29763  1.0000
  S   S185      1.0  0.20924  0.64146  0.29094  1.0000
  H   H550      1.0  0.11956  0.34423  0.33834  1.0000
  C   C553      1.0  0.40879  0.63639  0.42813  1.0000
  C   C554      1.0  0.23933  0.56222  0.35599  1.0000
  H   H551      1.0  0.19228  0.55429  0.38017  1.0000
  C   C555      1.0  0.06856  0.63258  0.37205  1.0000
  C   C556      1.0  0.37522  0.43550  0.40839  1.0000
  C   C557      1.0  0.35288  0.43215  0.40890  1.0000
  C   C558      1.0  0.33613  0.43965  0.41969  1.0000
  H   H552      1.0  0.38798  0.43028  0.39969  1.0000
  H   H553      1.0  0.34830  0.42482  0.40057  1.0000
  H   H554      1.0  0.20210  0.61929  0.34687  1.0000
  H   H555      1.0  0.11942  0.43933  0.46666  1.0000
  N   N48       1.0  0.05030  0.62003  0.37966  1.0000
  H   H556      1.0  0.10498  0.45057  0.45139  1.0000
  C   C559      1.0  0.02831  0.63014  0.37991  1.0000
  S   S186      1.0  0.40998  0.50920  0.47486  1.0000
  C   C560      1.0  0.16421  0.49488  0.44225  1.0000
  H   H557      1.0  0.45931  0.51122  0.47006  1.0000
  H   H558      1.0  0.18691  0.58927  0.36502  1.0000
  C   C561      1.0  0.42469  0.64601  0.43282  1.0000
  H   H559      1.0  0.17749  0.37493  0.36543  1.0000
  C   C562      1.0  0.04000  0.59946  0.42406  1.0000
  H   H560      1.0  0.38957  0.63781  0.41135  1.0000
  C   C563      1.0  0.46277  0.63097  0.40076  1.0000
  H   H561      1.0  0.46522  0.64560  0.39275  1.0000
  C   C564      1.0  0.99746  0.39890  0.45396  1.0000
  C   C565      1.0  0.11232  0.45498  0.46008  1.0000
  N   N49       1.0  0.00693  0.41534  0.44424  1.0000
  C   C566      1.0  0.14739  0.33003  0.35648  1.0000
  H   H562      1.0  0.48232  0.48879  0.47328  1.0000
  H   H563      1.0  0.14952  0.38554  0.34875  1.0000
  S   S187      1.0  0.15804  0.32375  0.26941  1.0000
  C   C567      1.0  0.16333  0.32349  0.36582  1.0000
  C   C568      1.0  0.03787  0.58608  0.39327  1.0000
  C   C569      1.0  0.14668  0.46210  0.44328  1.0000
  H   H564      1.0  0.43129  0.63831  0.44262  1.0000
  H   H565      1.0  0.48121  0.60243  0.43128  1.0000
  H   H566      1.0  0.07063  0.63224  0.36037  1.0000
  H   H567      1.0  0.41638  0.43947  0.41067  1.0000
  H   H568      1.0  0.15144  0.32865  0.24011  1.0000
  H   H569      1.0  0.00189  0.58759  0.40002  1.0000
  C   C570      1.0  0.48167  0.56485  0.39382  1.0000
  H   H570      1.0  0.48997  0.50293  0.41219  1.0000
  C   C571      1.0  0.01211  0.43310  0.46346  1.0000
  C   C572      1.0  0.00239  0.41646  0.47344  1.0000
  C   C573      1.0  0.47216  0.52799  0.39759  1.0000
  H   H571      1.0  0.99319  0.62709  0.38791  1.0000
  H   H572      1.0  0.08489  0.62550  0.37591  1.0000
  H   H573      1.0  0.02444  0.64737  0.37472  1.0000
  C   C574      1.0  0.99538  0.39904  0.46868  1.0000
  C   C575      1.0  0.48832  0.43637  0.41945  1.0000
  H   H574      1.0  0.11495  0.31912  0.29353  1.0000
  H   H575      1.0  0.06460  0.65046  0.37374  1.0000
  H   H576      1.0  0.24755  0.58168  0.71132  1.0000
  Fe  Fe99      1.0  0.07426  0.53935  0.55505  1.0000
  S   S188      1.0  0.04608  0.53050  0.57262  1.0000
  S   S189      1.0  0.06578  0.55557  0.53314  1.0000
  Fe  Fe100     1.0  0.10951  0.52612  0.57526  1.0000
  S   S190      1.0  0.08387  0.51633  0.59448  1.0000
  S   S191      1.0  0.14754  0.52398  0.57387  1.0000
  Fe  Fe101     1.0  0.07020  0.50000  0.57941  1.0000
  S   S192      1.0  0.05787  0.46644  0.58690  1.0000
  Fe  Fe102     1.0  0.06176  0.54782  0.58609  1.0000
  S   S193      1.0  0.03581  0.57031  0.59929  1.0000
  S   S194      1.0  0.09742  0.50738  0.56074  1.0000
  S   S195      1.0  0.08838  0.55905  0.56796  1.0000
  N   N50       1.0  0.44074  0.62874  0.64070  1.0000
  H   H577      1.0  0.09849  0.46721  0.60003  1.0000
  Fe  Fe103     1.0  0.30599  0.65001  0.70036  1.0000
  S   S196      1.0  0.29344  0.34614  0.65087  1.0000
  H   H578      1.0  0.99533  0.45314  0.52196  1.0000
  Fe  Fe104     1.0  0.44101  0.56052  0.53616  1.0000
  S   S197      1.0  0.44866  0.52441  0.54627  1.0000
  S   S198      1.0  0.42962  0.57342  0.51453  1.0000
  Fe  Fe105     1.0  0.45830  0.57836  0.55952  1.0000
  S   S199      1.0  0.46811  0.54356  0.57115  1.0000
  Fe  Fe106     1.0  0.43467  0.53708  0.56712  1.0000
  S   S200      1.0  0.41371  0.51919  0.58626  1.0000
  S   S201      1.0  0.42393  0.57249  0.55685  1.0000
  N   N51       1.0  0.25896  0.60113  0.69147  1.0000
  S   S202      1.0  0.36131  0.61011  0.68996  1.0000
  S   S203      1.0  0.47453  0.56928  0.53800  1.0000
  C   C576      1.0  0.07015  0.61979  0.55478  1.0000
  Fe  Fe107     1.0  0.34879  0.62341  0.71071  1.0000
  Fe  Fe108     1.0  0.32563  0.60471  0.69068  1.0000
  S   S204      1.0  0.31769  0.57124  0.68789  1.0000
  S   S205      1.0  0.46062  0.61205  0.56556  1.0000
  Fe  Fe109     1.0  0.29011  0.50159  0.60667  1.0000
  S   S206      1.0  0.30259  0.50451  0.62661  1.0000
  S   S207      1.0  0.31372  0.50414  0.58546  1.0000
  Fe  Fe110     1.0  0.24215  0.49711  0.62245  1.0000
  S   S208      1.0  0.25158  0.50019  0.64354  1.0000
  S   S209      1.0  0.20647  0.48940  0.62414  1.0000
  Fe  Fe111     1.0  0.27035  0.52782  0.63097  1.0000
  S   S210      1.0  0.27206  0.56229  0.63565  1.0000
  Fe  Fe112     1.0  0.28293  0.47646  0.63696  1.0000
  S   S211      1.0  0.29878  0.44817  0.65242  1.0000
  S   S212      1.0  0.25858  0.52667  0.61032  1.0000
  S   S213      1.0  0.27261  0.47170  0.61668  1.0000
  H   H579      1.0  0.26359  0.62665  0.70261  1.0000
  H   H580      1.0  0.00587  0.59719  0.55719  1.0000
  H   H581      1.0  0.38973  0.55959  0.60831  1.0000
  H   H582      1.0  0.07583  0.64306  0.56760  1.0000
  H   H583      1.0  0.27688  0.58603  0.70871  1.0000
  C   C577      1.0  0.25350  0.59644  0.67927  1.0000
  C   C578      1.0  0.30729  0.56848  0.67250  1.0000
  C   C579      1.0  0.30111  0.54781  0.67162  1.0000
  C   C580      1.0  0.29099  0.54550  0.66008  1.0000
  C   C581      1.0  0.28677  0.56397  0.64944  1.0000
  C   C582      1.0  0.29352  0.58447  0.65009  1.0000
  C   C583      1.0  0.30386  0.58672  0.66157  1.0000
  H   H584      1.0  0.30387  0.53360  0.68001  1.0000
  H   H585      1.0  0.28592  0.52960  0.65961  1.0000
  H   H586      1.0  0.29044  0.59877  0.64182  1.0000
  H   H587      1.0  0.30868  0.60267  0.66212  1.0000
  C   C584      1.0  0.38592  0.51590  0.58553  1.0000
  C   C585      1.0  0.37683  0.52115  0.57276  1.0000
  C   C586      1.0  0.35445  0.51790  0.57281  1.0000
  C   C587      1.0  0.34112  0.50971  0.58563  1.0000
  C   C588      1.0  0.35030  0.50480  0.59832  1.0000
  C   C589      1.0  0.37258  0.50779  0.59827  1.0000
  H   H588      1.0  0.38708  0.52745  0.56286  1.0000
  H   H589      1.0  0.34754  0.52159  0.56289  1.0000
  H   H590      1.0  0.34077  0.49758  0.60810  1.0000
  H   H591      1.0  0.37957  0.50366  0.60817  1.0000
  C   C590      1.0  0.25020  0.63583  0.66911  1.0000
  H   H592      1.0  0.37483  0.44239  0.57526  1.0000
  C   C591      1.0  0.42019  0.56424  0.48960  1.0000
  C   C592      1.0  0.42310  0.55560  0.50386  1.0000
  C   C593      1.0  0.42150  0.53295  0.50911  1.0000
  C   C594      1.0  0.41691  0.51911  0.50016  1.0000
  C   C595      1.0  0.99539  0.46532  0.51218  1.0000
  H   H593      1.0  0.42365  0.52615  0.52006  1.0000
  H   H594      1.0  0.41554  0.50163  0.50432  1.0000
  C   C596      1.0  0.29737  0.37412  0.65054  1.0000
  C   C597      1.0  0.28902  0.39106  0.64001  1.0000
  C   C598      1.0  0.28967  0.41381  0.64032  1.0000
  C   C599      1.0  0.29893  0.41976  0.65110  1.0000
  C   C600      1.0  0.30785  0.40278  0.66141  1.0000
  C   C601      1.0  0.30707  0.38002  0.66114  1.0000
  H   H595      1.0  0.28149  0.38659  0.63178  1.0000
  H   H596      1.0  0.28253  0.42666  0.63241  1.0000
  H   H597      1.0  0.31509  0.40723  0.66977  1.0000
  H   H598      1.0  0.31351  0.36710  0.66933  1.0000
  C   C602      1.0  0.04778  0.45567  0.57392  1.0000
  C   C603      1.0  0.03175  0.44084  0.57821  1.0000
  C   C604      1.0  0.02398  0.43166  0.56797  1.0000
  H   H599      1.0  0.34323  0.56967  0.57846  1.0000
  C   C605      1.0  0.04929  0.45107  0.54922  1.0000
  C   C606      1.0  0.05640  0.46090  0.55938  1.0000
  H   H600      1.0  0.08592  0.62090  0.54743  1.0000
  H   H601      1.0  0.42137  0.58177  0.48550  1.0000
  H   H602      1.0  0.47388  0.63776  0.63690  1.0000
  H   H603      1.0  0.06884  0.47221  0.55597  1.0000
  C   C607      1.0  0.16318  0.51540  0.58827  1.0000
  C   C608      1.0  0.15335  0.50623  0.60197  1.0000
  C   C609      1.0  0.16678  0.49843  0.61288  1.0000
  C   C610      1.0  0.19002  0.50009  0.61028  1.0000
  C   C611      1.0  0.19974  0.50955  0.59665  1.0000
  C   C612      1.0  0.18640  0.51699  0.58568  1.0000
  H   H604      1.0  0.13547  0.50505  0.60414  1.0000
  H   H605      1.0  0.15911  0.49123  0.62342  1.0000
  H   H606      1.0  0.21759  0.51088  0.59449  1.0000
  H   H607      1.0  0.19415  0.52405  0.57512  1.0000
  C   C613      1.0  0.04288  0.59290  0.60573  1.0000
  C   C614      1.0  0.02557  0.60713  0.61293  1.0000
  C   C615      1.0  0.47231  0.61513  0.58046  1.0000
  C   C616      1.0  0.01006  0.49618  0.49667  1.0000
  C   C617      1.0  0.06981  0.61665  0.60768  1.0000
  C   C618      1.0  0.06505  0.59769  0.60312  1.0000
  H   H608      1.0  0.00838  0.60349  0.61497  1.0000
  N   N52       1.0  0.00956  0.48122  0.50918  1.0000
  H   H609      1.0  0.08700  0.62027  0.60563  1.0000
  H   H610      1.0  0.07847  0.58686  0.59754  1.0000
  C   C619      1.0  0.07045  0.51166  0.49859  1.0000
  C   C620      1.0  0.06268  0.53473  0.49593  1.0000
  C   C621      1.0  0.06132  0.54803  0.50661  1.0000
  C   C622      1.0  0.06755  0.53835  0.52002  1.0000
  C   C623      1.0  0.07509  0.51522  0.52271  1.0000
  C   C624      1.0  0.07667  0.50197  0.51199  1.0000
  C   C625      1.0  0.47304  0.53251  0.48695  1.0000
  H   H611      1.0  0.05548  0.56592  0.50446  1.0000
  H   H612      1.0  0.07979  0.50757  0.53302  1.0000
  H   H613      1.0  0.08260  0.48411  0.51415  1.0000
  C   C626      1.0  0.06448  0.63223  0.56604  1.0000
  H   H614      1.0  0.14691  0.46675  0.54256  1.0000
  H   H615      1.0  0.25318  0.57921  0.67807  1.0000
  C   C627      1.0  0.02515  0.48147  0.51904  1.0000
  N   N53       1.0  0.03614  0.60315  0.56281  1.0000
  H   H616      1.0  0.05657  0.45469  0.53806  1.0000
  H   H617      1.0  0.29314  0.57053  0.60565  1.0000
  H   H618      1.0  0.38101  0.46995  0.57620  1.0000
  H   H619      1.0  0.00676  0.33658  0.57252  1.0000
  H   H620      1.0  0.11458  0.44493  0.55020  1.0000
  H   H621      1.0  0.44314  0.62491  0.68097  1.0000
  C   C628      1.0  0.11233  0.44705  0.57259  1.0000
  H   H622      1.0  0.47822  0.56111  0.49557  1.0000
  H   H623      1.0  0.12320  0.44809  0.60485  1.0000
  H   H624      1.0  0.09485  0.64752  0.63872  1.0000
  H   H625      1.0  0.47568  0.63563  0.66261  1.0000
  C   C629      1.0  0.48134  0.64039  0.59483  1.0000
  C   C630      1.0  0.13982  0.46312  0.55381  1.0000
  C   C631      1.0  0.45974  0.63286  0.64486  1.0000
  N   N54       1.0  0.24083  0.43181  0.66355  1.0000
  C   C632      1.0  0.24509  0.40880  0.66572  1.0000
  C   C633      1.0  0.22987  0.44321  0.65253  1.0000
  C   C634      1.0  0.23888  0.39662  0.65649  1.0000
  C   C635      1.0  0.22363  0.43160  0.64301  1.0000
  C   C636      1.0  0.22828  0.40816  0.64499  1.0000
  C   C637      1.0  0.24716  0.44420  0.67350  1.0000
  H   H626      1.0  0.25402  0.39972  0.67434  1.0000
  H   H627      1.0  0.22601  0.46143  0.65093  1.0000
  H   H628      1.0  0.24317  0.37841  0.65793  1.0000
  H   H629      1.0  0.21537  0.44084  0.63412  1.0000
  H   H630      1.0  0.22390  0.39896  0.63753  1.0000
  H   H631      1.0  0.23322  0.44627  0.68261  1.0000
  H   H632      1.0  0.26285  0.43531  0.67762  1.0000
  H   H633      1.0  0.25109  0.46104  0.66800  1.0000
  H   H634      1.0  0.14455  0.47435  0.58623  1.0000
  H   H635      1.0  0.02180  0.50834  0.49409  1.0000
  C   C638      1.0  0.12173  0.45089  0.55808  1.0000
  H   H636      1.0  0.09790  0.43802  0.57576  1.0000
  Fe  Fe113     1.0  0.99333  0.40702  0.54572  1.0000
  C   C639      1.0  0.42295  0.62240  0.65074  1.0000
  C   C640      1.0  0.48477  0.50684  0.51218  1.0000
  C   C641      1.0  0.05557  0.60543  0.55322  1.0000
  C   C642      1.0  0.11023  0.45178  0.59765  1.0000
  C   C643      1.0  0.46702  0.49881  0.47848  1.0000
  C   C644      1.0  0.13834  0.46727  0.57844  1.0000
  C   C645      1.0  0.33312  0.55763  0.61441  1.0000
  C   C646      1.0  0.03032  0.62612  0.61745  1.0000
  C   C647      1.0  0.05247  0.63093  0.61483  1.0000
  C   C648      1.0  0.14820  0.47138  0.56404  1.0000
  C   C649      1.0  0.41422  0.52769  0.48587  1.0000
  H   H637      1.0  0.10012  0.43768  0.60014  1.0000
  S   S214      1.0  0.31397  0.61513  0.71230  1.0000
  H   H638      1.0  0.01686  0.63700  0.62297  1.0000
  C   C650      1.0  0.46096  0.63146  0.65939  1.0000
  H   H639      1.0  0.01497  0.61360  0.58142  1.0000
  C   C651      1.0  0.30622  0.56255  0.59765  1.0000
  N   N55       1.0  0.12078  0.45507  0.58256  1.0000
  C   C652      1.0  0.03021  0.61567  0.57368  1.0000
  C   C653      1.0  0.34625  0.56657  0.58948  1.0000
  Fe  Fe114     1.0  0.48125  0.53380  0.54939  1.0000
  S   S215      1.0  0.31473  0.63889  0.67878  1.0000
  C   C654      1.0  0.37257  0.56087  0.60621  1.0000
  H   H640      1.0  0.02861  0.49879  0.51879  1.0000
  H   H641      1.0  0.45984  0.65064  0.57854  1.0000
  H   H642      1.0  0.01138  0.42050  0.57133  1.0000
  H   H643      1.0  0.30344  0.54496  0.59818  1.0000
  H   H644      1.0  0.02511  0.43666  0.58946  1.0000
  C   C655      1.0  0.42370  0.62062  0.66536  1.0000
  H   H645      1.0  0.38199  0.56857  0.58332  1.0000
  N   N56       1.0  0.36226  0.45385  0.59514  1.0000
  C   C656      1.0  0.34061  0.45086  0.60132  1.0000
  C   C657      1.0  0.37865  0.45204  0.60349  1.0000
  C   C658      1.0  0.33486  0.44634  0.61624  1.0000
  C   C659      1.0  0.37341  0.44765  0.61845  1.0000
  C   C660      1.0  0.35133  0.44480  0.62484  1.0000
  C   C661      1.0  0.36813  0.45837  0.57949  1.0000
  H   H646      1.0  0.32753  0.45253  0.59473  1.0000
  H   H647      1.0  0.39578  0.45459  0.59859  1.0000
  H   H648      1.0  0.31769  0.44423  0.62114  1.0000
  H   H649      1.0  0.38634  0.44663  0.62505  1.0000
  H   H650      1.0  0.34689  0.44150  0.63644  1.0000
  H   H651      1.0  0.04137  0.47058  0.51599  1.0000
  H   H652      1.0  0.45087  0.61671  0.62084  1.0000
  C   C662      1.0  0.02121  0.58764  0.56137  1.0000
  C   C663      1.0  0.46996  0.63666  0.58421  1.0000
  C   C664      1.0  0.99550  0.49598  0.48704  1.0000
  H   H653      1.0  0.35313  0.46686  0.57443  1.0000
  H   H654      1.0  0.16171  0.48164  0.56083  1.0000
  C   C665      1.0  0.47856  0.49695  0.50178  1.0000
  C   C666      1.0  0.36821  0.56600  0.59214  1.0000
  H   H655      1.0  0.05785  0.54236  0.48563  1.0000
  H   H656      1.0  0.31953  0.55410  0.62318  1.0000
  C   C667      1.0  0.03282  0.43669  0.55344  1.0000
  H   H657      1.0  0.35812  0.55253  0.62844  1.0000
  N   N57       1.0  0.32900  0.56266  0.60057  1.0000
  C   C668      1.0  0.35493  0.55671  0.61746  1.0000
  H   H658      1.0  0.40914  0.61658  0.67323  1.0000
  H   H659      1.0  0.30367  0.57190  0.58686  1.0000
  C   C669      1.0  0.25522  0.64050  0.68173  1.0000
  C   C670      1.0  0.43974  0.63101  0.62538  1.0000
  C   C671      1.0  0.26321  0.58296  0.70339  1.0000
  C   C672      1.0  0.04424  0.63041  0.57545  1.0000
  C   C673      1.0  0.44275  0.62539  0.66968  1.0000
  H   H660      1.0  0.46790  0.54284  0.47730  1.0000
  H   H661      1.0  0.40761  0.61962  0.64752  1.0000
  H   H662      1.0  0.03984  0.63968  0.58442  1.0000
  H   H663      1.0  0.24561  0.60973  0.65804  1.0000
  S   S216      1.0  0.02384  0.42537  0.54022  1.0000
  H   H664      1.0  0.02978  0.57563  0.55397  1.0000
  H   H665      1.0  0.01610  0.57739  0.57196  1.0000
  H   H666      1.0  0.44548  0.64700  0.61958  1.0000
  H   H667      1.0  0.01799  0.47519  0.53028  1.0000
  C   C674      1.0  0.00673  0.31861  0.57475  1.0000
  C   C675      1.0  0.24918  0.61368  0.66787  1.0000
  H   H668      1.0  0.26930  0.56655  0.69953  1.0000
  C   C676      1.0  0.25952  0.62285  0.69288  1.0000
  N   N58       1.0  0.47284  0.50978  0.48935  1.0000
  C   C677      1.0  0.47901  0.54296  0.49718  1.0000
  S   S217      1.0  0.07210  0.49419  0.48566  1.0000
  H   H669      1.0  0.06022  0.59569  0.54450  1.0000
  H   H670      1.0  0.00019  0.41705  0.48484  1.0000
  Fe  Fe115     1.0  0.34986  0.64527  0.67958  1.0000
  C   C678      1.0  0.48503  0.52997  0.50981  1.0000
  C   C679      1.0  0.41594  0.55031  0.48059  1.0000
  H   H671      1.0  0.42223  0.63147  0.62337  1.0000
  H   H672      1.0  0.48725  0.58048  0.58507  1.0000
  H   H673      1.0  0.47816  0.47899  0.50375  1.0000
  H   H674      1.0  0.48921  0.49676  0.52211  1.0000
  C   C680      1.0  0.48533  0.59712  0.58786  1.0000
  H   H675      1.0  0.45418  0.48760  0.48346  1.0000
  H   H676      1.0  0.24724  0.64936  0.66029  1.0000
  H   H677      1.0  0.48965  0.53782  0.51784  1.0000
  H   H678      1.0  0.99568  0.50805  0.47722  1.0000
  S   S218      1.0  0.34067  0.31810  0.67700  1.0000
  Fe  Fe116     1.0  0.42090  0.40619  0.93194  1.0000
  S   S219      1.0  0.43572  0.37041  0.93888  1.0000
  S   S220      1.0  0.38322  0.41682  0.93339  1.0000
  Fe  Fe117     1.0  0.46692  0.42248  0.92527  1.0000
  H   H679      1.0  0.19267  0.33760  0.91844  1.0000
  Fe  Fe118     1.0  0.46281  0.37596  0.91981  1.0000
  C   C681      1.0  0.39339  0.39488  0.97105  1.0000
  Fe  Fe119     1.0  0.45684  0.38573  0.95033  1.0000
  S   S221      1.0  0.44614  0.41070  0.91196  1.0000
  S   S222      1.0  0.44001  0.42124  0.94475  1.0000
  Fe  Fe120     1.0  0.30313  0.41295  0.88052  1.0000
  S   S223      1.0  0.30176  0.43304  0.85853  1.0000
  S   S224      1.0  0.33784  0.39499  0.88424  1.0000
  Fe  Fe121     1.0  0.25168  0.42137  0.88928  1.0000
  S   S225      1.0  0.24674  0.44216  0.86796  1.0000
  S   S226      1.0  0.22181  0.41753  0.90725  1.0000
  Fe  Fe122     1.0  0.27245  0.41509  0.85880  1.0000
  S   S227      1.0  0.26918  0.40135  0.83906  1.0000
  Fe  Fe123     1.0  0.27655  0.45807  0.86974  1.0000
  S   S228      1.0  0.27473  0.49609  0.86671  1.0000
  S   S229      1.0  0.27548  0.39325  0.88003  1.0000
  S   S230      1.0  0.27982  0.43912  0.89186  1.0000
  Fe  Fe124     1.0  0.34204  0.59480  0.82715  1.0000
  S   S231      1.0  0.37138  0.61035  0.81349  1.0000
  S   S232      1.0  0.34358  0.55740  0.82700  1.0000
  Fe  Fe125     1.0  0.34528  0.63855  0.80594  1.0000
  S   S233      1.0  0.48489  0.45175  0.91409  1.0000
  Fe  Fe126     1.0  0.37036  0.62905  0.83173  1.0000
  S   S234      1.0  0.40412  0.62950  0.83861  1.0000
  S   S235      1.0  0.31600  0.62165  0.81794  1.0000
  S   S236      1.0  0.34273  0.61154  0.84597  1.0000
  H   H680      1.0  0.43071  0.34645  0.89027  1.0000
  Fe  Fe127     1.0  0.05980  0.37657  0.93426  1.0000
  S   S237      1.0  0.06218  0.34538  0.95089  1.0000
  S   S238      1.0  0.02451  0.39618  0.93639  1.0000
  Fe  Fe128     1.0  0.10878  0.36596  0.92008  1.0000
  S   S239      1.0  0.11424  0.33404  0.93561  1.0000
  S   S240      1.0  0.13810  0.37234  0.90197  1.0000
  Fe  Fe129     1.0  0.08019  0.32795  0.93243  1.0000
  H   H681      1.0  0.02339  0.49255  0.95147  1.0000
  Fe  Fe130     1.0  0.09561  0.35449  0.95250  1.0000
  H   H682      1.0  0.04624  0.45479  0.95152  1.0000
  S   S241      1.0  0.07585  0.35854  0.91567  1.0000
  S   S242      1.0  0.09218  0.38702  0.93714  1.0000
  C   C682      1.0  0.33185  0.35099  0.86274  1.0000
  C   C683      1.0  0.01848  0.42554  0.93195  1.0000
  C   C684      1.0  0.03528  0.43878  0.92552  1.0000
  C   C685      1.0  0.02958  0.46233  0.92259  1.0000
  H   H683      1.0  0.34210  0.58715  0.79518  1.0000
  C   C686      1.0  0.19860  0.36528  0.93430  1.0000
  H   H684      1.0  0.21756  0.38776  0.84323  1.0000
  H   H685      1.0  0.05256  0.43089  0.92280  1.0000
  H   H686      1.0  0.04257  0.47260  0.91764  1.0000
  H   H687      1.0  0.14203  0.42184  0.88466  1.0000
  H   H688      1.0  0.30261  0.62630  0.74434  1.0000
  H   H689      1.0  0.37023  0.52410  0.85590  1.0000
  C   C687      1.0  0.30115  0.62601  0.76695  1.0000
  C   C688      1.0  0.33621  0.33029  0.85787  1.0000
  H   H690      1.0  0.22434  0.42302  0.84960  1.0000
  H   H691      1.0  0.02427  0.40245  0.96662  1.0000
  C   C689      1.0  0.30695  0.61660  0.75439  1.0000
  H   H692      1.0  0.44672  0.62461  0.81900  1.0000
  H   H693      1.0  0.34633  0.45614  0.88052  1.0000
  C   C690      1.0  0.32741  0.58032  0.79320  1.0000
  C   C691      1.0  0.02967  0.45651  0.95809  1.0000
  C   C692      1.0  0.36360  0.62341  0.76944  1.0000
  C   C693      1.0  0.36919  0.61297  0.75715  1.0000
  C   C694      1.0  0.36204  0.62390  0.74421  1.0000
  C   C695      1.0  0.33847  0.32978  0.84317  1.0000
  H   H694      1.0  0.39199  0.64401  0.78686  1.0000
  H   H695      1.0  0.36889  0.61475  0.77941  1.0000
  H   H696      1.0  0.37872  0.59620  0.75772  1.0000
  H   H697      1.0  0.28115  0.32218  0.86180  1.0000
  H   H698      1.0  0.14688  0.44776  0.87285  1.0000
  C   C696      1.0  0.19858  0.40522  0.90544  1.0000
  C   C697      1.0  0.20078  0.38999  0.89592  1.0000
  C   C698      1.0  0.18233  0.37937  0.89540  1.0000
  C   C699      1.0  0.16145  0.38412  0.90420  1.0000
  C   C700      1.0  0.15930  0.39916  0.91383  1.0000
  C   C701      1.0  0.17780  0.40972  0.91440  1.0000
  H   H699      1.0  0.21681  0.38617  0.88912  1.0000
  H   H700      1.0  0.18420  0.36747  0.88808  1.0000
  H   H701      1.0  0.14328  0.40301  0.92062  1.0000
  H   H702      1.0  0.17602  0.42141  0.92185  1.0000
  C   C702      1.0  0.29302  0.51293  0.85457  1.0000
  C   C703      1.0  0.28893  0.53635  0.85430  1.0000
  C   C704      1.0  0.30401  0.55026  0.84570  1.0000
  C   C705      1.0  0.32330  0.54085  0.83722  1.0000
  C   C706      1.0  0.32709  0.51749  0.83719  1.0000
  C   C707      1.0  0.31207  0.50355  0.84586  1.0000
  H   H703      1.0  0.27419  0.54374  0.86099  1.0000
  H   H704      1.0  0.30084  0.56821  0.84579  1.0000
  H   H705      1.0  0.34193  0.51010  0.83060  1.0000
  H   H706      1.0  0.31536  0.48558  0.84591  1.0000
  C   C708      1.0  0.01693  0.47795  0.95811  1.0000
  C   C709      1.0  0.28579  0.34031  0.82590  1.0000
  C   C710      1.0  0.28004  0.36361  0.82611  1.0000
  C   C711      1.0  0.27525  0.37201  0.83914  1.0000
  C   C712      1.0  0.27549  0.35694  0.85198  1.0000
  C   C713      1.0  0.30787  0.61370  0.77965  1.0000
  H   H707      1.0  0.03892  0.32130  0.91664  1.0000
  H   H708      1.0  0.27962  0.37516  0.81612  1.0000
  H   H709      1.0  0.27136  0.36309  0.86208  1.0000
  H   H710      1.0  0.34201  0.55399  0.86591  1.0000
  C   C714      1.0  0.37089  0.41113  0.91950  1.0000
  C   C715      1.0  0.38342  0.39802  0.90944  1.0000
  C   C716      1.0  0.37309  0.39322  0.89866  1.0000
  C   C717      1.0  0.35027  0.40165  0.89779  1.0000
  C   C718      1.0  0.33781  0.41493  0.90776  1.0000
  C   C719      1.0  0.34808  0.41958  0.91862  1.0000
  H   H711      1.0  0.40100  0.39146  0.91004  1.0000
  H   H712      1.0  0.38281  0.38298  0.89096  1.0000
  H   H713      1.0  0.32016  0.42127  0.90729  1.0000
  H   H714      1.0  0.33830  0.42963  0.92641  1.0000
  Fe  Fe131     1.0  0.31893  0.63988  0.83555  1.0000
  S   S243      1.0  0.47480  0.35550  0.90180  1.0000
  C   C720      1.0  0.00011  0.44015  0.97406  1.0000
  C   C721      1.0  0.99611  0.43583  0.93536  1.0000
  C   C722      1.0  0.33018  0.46803  0.88128  1.0000
  H   H715      1.0  0.33375  0.33324  0.81622  1.0000
  H   H716      1.0  0.30814  0.54363  0.88311  1.0000
  H   H717      1.0  0.32975  0.38526  0.83081  1.0000
  C   C723      1.0  0.18168  0.38613  0.95356  1.0000
  C   C724      1.0  0.32588  0.58326  0.76753  1.0000
  C   C725      1.0  0.34006  0.53642  0.86949  1.0000
  H   H718      1.0  0.18203  0.39888  0.95995  1.0000
  H   H719      1.0  0.32126  0.46442  0.89246  1.0000
  N   N59       1.0  0.31987  0.59251  0.77986  1.0000
  H   H720      1.0  0.04751  0.41483  0.95616  1.0000
  C   C726      1.0  0.28646  0.32533  0.83877  1.0000
  H   H721      1.0  0.44200  0.33085  0.86757  1.0000
  S   S244      1.0  0.00061  0.50216  0.92346  1.0000
  H   H722      1.0  0.36474  0.48417  0.86334  1.0000
  C   C727      1.0  0.16295  0.35822  0.94771  1.0000
  C   C728      1.0  0.33185  0.36971  0.83832  1.0000
  H   H723      1.0  0.21361  0.39106  0.94010  1.0000
  H   H724      1.0  0.16275  0.34074  0.92398  1.0000
  C   C729      1.0  0.03494  0.41568  0.96612  1.0000
  H   H725      1.0  0.33006  0.35179  0.87409  1.0000
  H   H726      1.0  0.14859  0.34915  0.94982  1.0000
  H   H727      1.0  0.44452  0.63402  0.84845  1.0000
  C   C730      1.0  0.31940  0.59509  0.75465  1.0000
  C   C731      1.0  0.43473  0.32836  0.89063  1.0000
  H   H728      1.0  0.29225  0.64307  0.76675  1.0000
  H   H729      1.0  0.18093  0.37342  0.85318  1.0000
  N   N60       1.0  0.33612  0.34935  0.83363  1.0000
  C   C732      1.0  0.28090  0.33370  0.85179  1.0000
  H   H730      1.0  0.32627  0.38693  0.85664  1.0000
  H   H731      1.0  0.47816  0.32142  0.92742  1.0000
  C   C733      1.0  0.00720  0.47262  0.92623  1.0000
  H   H732      1.0  0.21230  0.36227  0.92556  1.0000
  H   H733      1.0  0.39643  0.38917  0.96075  1.0000
  H   H734      1.0  0.33622  0.56688  0.76750  1.0000
  H   H735      1.0  0.45766  0.65025  0.81780  1.0000
  S   S245      1.0  0.48548  0.38803  0.93178  1.0000
  H   H736      1.0  0.30392  0.62147  0.78925  1.0000
  C   C734      1.0  0.35594  0.51960  0.86387  1.0000
  C   C735      1.0  0.32969  0.37081  0.85292  1.0000
  C   C736      1.0  0.31821  0.50796  0.88302  1.0000
  C   C737      1.0  0.19948  0.38159  0.94254  1.0000
  C   C738      1.0  0.35264  0.49709  0.86806  1.0000
  H   H737      1.0  0.32922  0.36320  0.81251  1.0000
  H   H738      1.0  0.31962  0.46466  0.87388  1.0000
  C   C739      1.0  0.32107  0.53061  0.87915  1.0000
  H   H739      1.0  0.00868  0.60919  0.91812  1.0000
  C   C740      1.0  0.42662  0.32368  0.91686  1.0000
  H   H740      1.0  0.41804  0.35510  0.97148  1.0000
  N   N61       1.0  0.33408  0.49153  0.87764  1.0000
  H   H741      1.0  0.30281  0.50367  0.88992  1.0000
  C   C741      1.0  0.17923  0.33726  0.92801  1.0000
  H   H742      1.0  0.16338  0.43670  0.88717  1.0000
  C   C742      1.0  0.44115  0.31967  0.87776  1.0000
  H   H743      1.0  0.18091  0.32018  0.93448  1.0000
  H   H744      1.0  0.33254  0.56203  0.79291  1.0000
  H   H745      1.0  0.35756  0.34828  0.81360  1.0000
  H   H746      1.0  0.32494  0.58810  0.74477  1.0000
  N   N62       1.0  0.18031  0.35408  0.93681  1.0000
  H   H747      1.0  0.28973  0.33398  0.81581  1.0000
  C   C743      1.0  0.38438  0.41739  0.97178  1.0000
  H   H748      1.0  0.31361  0.58191  0.80249  1.0000
  C   C744      1.0  0.48431  0.32634  0.90434  1.0000
  H   H749      1.0  0.43155  0.34066  0.91571  1.0000
  H   H750      1.0  0.38077  0.42885  0.96212  1.0000
  C   C745      1.0  0.16333  0.37430  0.95622  1.0000
  H   H751      1.0  0.40794  0.32507  0.91974  1.0000
  C   C746      1.0  0.33940  0.34851  0.81823  1.0000
  N   N63       1.0  0.17218  0.41988  0.86902  1.0000
  C   C747      1.0  0.16789  0.40079  0.86518  1.0000
  C   C748      1.0  0.19211  0.42796  0.86349  1.0000
  C   C749      1.0  0.18413  0.38886  0.85591  1.0000
  C   C750      1.0  0.20854  0.41663  0.85403  1.0000
  C   C751      1.0  0.20463  0.39684  0.85035  1.0000
  C   C752      1.0  0.15524  0.43219  0.87886  1.0000
  H   H752      1.0  0.15215  0.39425  0.86967  1.0000
  H   H753      1.0  0.19549  0.44313  0.86650  1.0000
  N   N64       1.0  0.02111  0.43794  0.96589  1.0000
  S   S246      1.0  0.46228  0.36891  0.97268  1.0000
  H   H754      1.0  0.14937  0.37757  0.96479  1.0000
  S   S247      1.0  0.11127  0.35221  0.97249  1.0000
  S   S248      1.0  0.36766  0.60955  0.72940  1.0000
  C   C753      1.0  0.35125  0.64506  0.76871  1.0000
  H   H755      1.0  0.04405  0.41167  0.97548  1.0000
  H   H756      1.0  0.42550  0.62378  0.79755  1.0000
  C   C754      1.0  0.34980  0.64559  0.74349  1.0000
  C   C755      1.0  0.41983  0.64135  0.79850  1.0000
  C   C756      1.0  0.45106  0.64001  0.81154  1.0000
  H   H757      1.0  0.46469  0.63518  0.80278  1.0000
  H   H758      1.0  0.44497  0.41610  0.97462  1.0000
  C   C757      1.0  0.99548  0.48034  0.96636  1.0000
  C   C758      1.0  0.43471  0.65061  0.84683  1.0000
  Fe  Fe132     1.0  0.28661  0.75099  0.19060  1.0000
  S   S249      1.0  0.31110  0.76447  0.17189  1.0000
  S   S250      1.0  0.25174  0.74496  0.18881  1.0000
  Fe  Fe133     1.0  0.31850  0.74771  0.21177  1.0000
  S   S251      1.0  0.34644  0.76014  0.19493  1.0000
  Fe  Fe134     1.0  0.31856  0.78572  0.18651  1.0000
  S   S252      1.0  0.32712  0.82052  0.17748  1.0000
  Fe  Fe135     1.0  0.33725  0.73811  0.18133  1.0000
  S   S253      1.0  0.35997  0.71776  0.16539  1.0000
  S   S254      1.0  0.29130  0.77505  0.20451  1.0000
  S   S255      1.0  0.31205  0.72296  0.19898  1.0000
  C   C759      1.0  0.01991  0.98301  0.06318  1.0000
  C   C760      1.0  0.23917  0.94300  0.17208  1.0000
  Fe  Fe136     1.0  0.43146  0.89436  0.05835  1.0000
  S   S256      1.0  0.44701  0.92059  0.04184  1.0000
  S   S257      1.0  0.39429  0.89160  0.06157  1.0000
  Fe  Fe137     1.0  0.47283  0.89193  0.03536  1.0000
  H   H759      1.0  0.01167  0.95123  0.07515  1.0000
  Fe  Fe138     1.0  0.46919  0.92167  0.05785  1.0000
  S   S258      1.0  0.45586  0.86526  0.05070  1.0000
  S   S259      1.0  0.45100  0.89818  0.07515  1.0000
  H   H760      1.0  0.16339  0.65531  0.21493  1.0000
  H   H761      1.0  0.04258  0.90885  0.04826  1.0000
  H   H762      1.0  0.14613  0.84266  0.02125  1.0000
  Fe  Fe139     1.0  0.26251  0.92243  0.13475  1.0000
  S   S260      1.0  0.27026  0.92433  0.11081  1.0000
  S   S261      1.0  0.25220  0.89152  0.14948  1.0000
  Fe  Fe140     1.0  0.29334  0.94882  0.11209  1.0000
  S   S262      1.0  0.32869  0.95481  0.10173  1.0000
  Fe  Fe141     1.0  0.24272  0.95423  0.11056  1.0000
  S   S263      1.0  0.21224  0.96042  0.09874  1.0000
  S   S264      1.0  0.28811  0.94384  0.13623  1.0000
  S   S265      1.0  0.23415  0.95132  0.13450  1.0000
  Fe  Fe142     1.0  0.13766  0.88796  0.06647  1.0000
  S   S266      1.0  0.10781  0.87560  0.08172  1.0000
  S   S267      1.0  0.17116  0.88877  0.07413  1.0000
  Fe  Fe143     1.0  0.11553  0.88700  0.03997  1.0000
  S   S268      1.0  0.08464  0.87473  0.05337  1.0000
  S   S269      1.0  0.11963  0.89388  0.01562  1.0000
  Fe  Fe144     1.0  0.08671  0.90020  0.06702  1.0000
  S   S270      1.0  0.05315  0.92046  0.07456  1.0000
  Fe  Fe145     1.0  0.10828  0.85136  0.06668  1.0000
  S   S271      1.0  0.10767  0.81359  0.07197  1.0000
  S   S272      1.0  0.11632  0.91419  0.05272  1.0000
  S   S273      1.0  0.13945  0.86194  0.05227  1.0000
  S   S274      1.0  0.47796  0.69376  0.12048  1.0000
  Fe  Fe146     1.0  0.03312  0.68810  0.12033  1.0000
  S   S275      1.0  0.03019  0.70370  0.09747  1.0000
  C   C761      1.0  0.11001  0.67533  0.15444  1.0000
  H   H763      1.0  0.21411  0.73015  0.18118  1.0000
  Fe  Fe147     1.0  0.01402  0.73480  0.10685  1.0000
  S   S276      1.0  0.01774  0.77141  0.09863  1.0000
  S   S277      1.0  0.01933  0.71994  0.12941  1.0000
  C   C762      1.0  0.10371  0.88253  0.00576  1.0000
  C   C763      1.0  0.10942  0.88492  0.99076  1.0000
  C   C764      1.0  0.49185  0.81685  0.08435  1.0000
  C   C765      1.0  0.08192  0.86113  0.98964  1.0000
  C   C766      1.0  0.07545  0.85969  0.00456  1.0000
  C   C767      1.0  0.08626  0.87033  0.01259  1.0000
  H   H764      1.0  0.07588  0.91447  0.03020  1.0000
  H   H765      1.0  0.05917  0.69672  0.14333  1.0000
  H   H766      1.0  0.06255  0.84958  0.00999  1.0000
  H   H767      1.0  0.08157  0.86844  0.02409  1.0000
  C   C768      1.0  0.08257  0.80209  0.07942  1.0000
  C   C769      1.0  0.08309  0.77866  0.08139  1.0000
  C   C770      1.0  0.06332  0.76897  0.08706  1.0000
  C   C771      1.0  0.04294  0.78267  0.09100  1.0000
  C   C772      1.0  0.04242  0.80609  0.08893  1.0000
  C   C773      1.0  0.06213  0.81579  0.08313  1.0000
  H   H768      1.0  0.09883  0.76798  0.07841  1.0000
  H   H769      1.0  0.06376  0.75100  0.08826  1.0000
  H   H770      1.0  0.02669  0.81681  0.09188  1.0000
  H   H771      1.0  0.06150  0.83386  0.08164  1.0000
  S   S278      1.0  0.06480  0.66373  0.12412  1.0000
  C   C774      1.0  0.04753  0.94931  0.06761  1.0000
  C   C775      1.0  0.06482  0.96125  0.06014  1.0000
  C   C776      1.0  0.09858  0.87426  0.98271  1.0000
  H   H772      1.0  0.10559  0.69083  0.10678  1.0000
  H   H773      1.0  0.08215  0.95302  0.05895  1.0000
  C   C777      1.0  0.13251  0.82922  0.00601  1.0000
  C   C778      1.0  0.11598  0.81736  0.00412  1.0000
  N   N65       1.0  0.30487  0.69871  0.15059  1.0000
  C   C779      1.0  0.07382  0.97031  0.01796  1.0000
  S   S279      1.0  0.48416  0.89264  0.01161  1.0000
  S   S280      1.0  0.40456  0.88546  0.97951  1.0000
  C   C780      1.0  0.18278  0.90983  0.07978  1.0000
  C   C781      1.0  0.20484  0.90457  0.08324  1.0000
  C   C782      1.0  0.21416  0.91984  0.08897  1.0000
  C   C783      1.0  0.20172  0.94085  0.09100  1.0000
  C   C784      1.0  0.17993  0.94639  0.08713  1.0000
  C   C785      1.0  0.17041  0.93093  0.08167  1.0000
  H   H774      1.0  0.21463  0.88836  0.08174  1.0000
  H   H775      1.0  0.23099  0.91535  0.09177  1.0000
  H   H776      1.0  0.17020  0.96267  0.08853  1.0000
  H   H777      1.0  0.15349  0.93531  0.07901  1.0000
  C   C786      1.0  0.26448  0.72673  0.14652  1.0000
  H   H778      1.0  0.48117  0.89872  0.98159  1.0000
  H   H779      1.0  0.25429  0.69785  0.14098  1.0000
  C   C787      1.0  0.46204  0.89089  0.00265  1.0000
  C   C788      1.0  0.46518  0.89455  0.98763  1.0000
  C   C789      1.0  0.39323  0.92915  0.02850  1.0000
  C   C790      1.0  0.41335  0.94375  0.98916  1.0000
  C   C791      1.0  0.42390  0.88378  0.00317  1.0000
  C   C792      1.0  0.44131  0.88566  0.01040  1.0000
  H   H780      1.0  0.31500  0.72664  0.15670  1.0000
  N   N66       1.0  0.39987  0.93512  0.00273  1.0000
  H   H781      1.0  0.40802  0.87940  0.00926  1.0000
  H   H782      1.0  0.43875  0.88280  0.02200  1.0000
  C   C793      1.0  0.37619  0.90882  0.07300  1.0000
  C   C794      1.0  0.35346  0.90568  0.07728  1.0000
  C   C795      1.0  0.33869  0.91947  0.08628  1.0000
  C   C796      1.0  0.34660  0.93662  0.09084  1.0000
  C   C797      1.0  0.36929  0.93980  0.08647  1.0000
  C   C798      1.0  0.38409  0.92587  0.07764  1.0000
  H   H783      1.0  0.34728  0.89251  0.07370  1.0000
  H   H784      1.0  0.32120  0.91697  0.08956  1.0000
  H   H785      1.0  0.37546  0.95308  0.08995  1.0000
  H   H786      1.0  0.40155  0.92848  0.07433  1.0000
  S   S281      1.0  0.47591  0.95553  0.06073  1.0000
  H   H787      1.0  0.41033  0.93632  0.98008  1.0000
  C   C799      1.0  0.22600  0.69693  0.17579  1.0000
  C   C800      1.0  0.06883  0.93212  0.02834  1.0000
  C   C801      1.0  0.24896  0.71934  0.18398  1.0000
  C   C802      1.0  0.26710  0.70177  0.18323  1.0000
  S   S282      1.0  0.99969  0.67532  0.12469  1.0000
  H   H788      1.0  0.28307  0.70356  0.18591  1.0000
  C   C803      1.0  0.30841  0.92757  0.17711  1.0000
  C   C804      1.0  0.38951  0.71650  0.16386  1.0000
  C   C805      1.0  0.39895  0.72563  0.17326  1.0000
  C   C806      1.0  0.42257  0.72412  0.17190  1.0000
  C   C807      1.0  0.43689  0.71365  0.16107  1.0000
  C   C808      1.0  0.43137  0.79116  0.11512  1.0000
  H   H789      1.0  0.46639  0.78078  0.07185  1.0000
  H   H790      1.0  0.38810  0.73354  0.18173  1.0000
  H   H791      1.0  0.42975  0.73103  0.17931  1.0000
  H   H792      1.0  0.41321  0.82414  0.10862  1.0000
  C   C809      1.0  0.13372  0.83294  0.01970  1.0000
  C   C810      1.0  0.30651  0.83938  0.16891  1.0000
  C   C811      1.0  0.31248  0.85913  0.16011  1.0000
  C   C812      1.0  0.29608  0.87490  0.15364  1.0000
  C   C813      1.0  0.27358  0.87110  0.15617  1.0000
  C   C814      1.0  0.26766  0.85127  0.16485  1.0000
  C   C815      1.0  0.28412  0.83533  0.17112  1.0000
  H   H793      1.0  0.32982  0.86224  0.15833  1.0000
  H   H794      1.0  0.30079  0.89012  0.14691  1.0000
  H   H795      1.0  0.25026  0.84828  0.16687  1.0000
  H   H796      1.0  0.27940  0.82015  0.17792  1.0000
  H   H797      1.0  0.05417  0.75334  0.11874  1.0000
  N   N67       1.0  0.18533  0.91020  0.12292  1.0000
  C   C816      1.0  0.20577  0.90112  0.12712  1.0000
  C   C817      1.0  0.17466  0.89833  0.11616  1.0000
  C   C818      1.0  0.21639  0.87988  0.12418  1.0000
  C   C819      1.0  0.18479  0.87704  0.11304  1.0000
  C   C820      1.0  0.20586  0.86785  0.11701  1.0000
  C   C821      1.0  0.17434  0.93239  0.12623  1.0000
  H   H798      1.0  0.21415  0.91035  0.13263  1.0000
  H   H799      1.0  0.15861  0.90561  0.11263  1.0000
  H   H800      1.0  0.23278  0.87298  0.12737  1.0000
  H   H801      1.0  0.42070  0.94468  0.01547  1.0000
  H   H802      1.0  0.21411  0.85158  0.11438  1.0000
  H   H803      1.0  0.16300  0.93056  0.13670  1.0000
  H   H804      1.0  0.18709  0.94317  0.12656  1.0000
  H   H805      1.0  0.16440  0.94151  0.11773  1.0000
  H   H806      1.0  0.32616  0.92360  0.17828  1.0000
  C   C822      1.0  0.28823  0.69071  0.14605  1.0000
  C   C823      1.0  0.10597  0.70407  0.11280  1.0000
  H   H807      1.0  0.07480  0.77219  0.11537  1.0000
  C   C824      1.0  0.41424  0.76940  0.13613  1.0000
  H   H808      1.0  0.47010  0.66222  0.09882  1.0000
  C   C825      1.0  0.08512  0.80633  0.04171  1.0000
  C   C826      1.0  0.43731  0.83324  0.98804  1.0000
  H   H809      1.0  0.25791  0.71015  0.21491  1.0000
  C   C827      1.0  0.06930  0.75689  0.12240  1.0000
  H   H810      1.0  0.34076  0.69145  0.14786  1.0000
  H   H811      1.0  0.09346  0.79192  0.04873  1.0000
  H   H812      1.0  0.47862  0.92839  0.09613  1.0000
  C   C828      1.0  0.12359  0.70266  0.12052  1.0000
  H   H813      1.0  0.42181  0.83497  0.99570  1.0000
  H   H814      1.0  0.44706  0.74296  0.11575  1.0000
  C   C829      1.0  0.45043  0.75340  0.12319  1.0000
  H   H815      1.0  0.26679  0.97201  0.17264  1.0000
  H   H816      1.0  0.40907  0.96233  0.98674  1.0000
  H   H817      1.0  0.39804  0.93054  0.03858  1.0000
  H   H818      1.0  0.14389  0.83614  0.99682  1.0000
  S   S283      1.0  0.18043  0.65841  0.18506  1.0000
  S   S284      1.0  0.26646  0.97917  0.10979  1.0000
  H   H819      1.0  0.17672  0.86820  0.10705  1.0000
  H   H820      1.0  0.08725  0.80132  0.01428  1.0000
  H   H821      1.0  0.41430  0.75398  0.14383  1.0000
  H   H822      1.0  0.43831  0.69644  0.14327  1.0000
  H   H823      1.0  0.12280  0.89444  0.98537  1.0000
  H   H824      1.0  0.13649  0.71769  0.13530  1.0000
  H   H825      1.0  0.23432  0.93044  0.16664  1.0000
  H   H826      1.0  0.11435  0.81507  0.99344  1.0000
  H   H827      1.0  0.38221  0.78471  0.14671  1.0000
  C   C830      1.0  0.02511  0.96034  0.06928  1.0000
  H   H828      1.0  0.07045  0.80115  0.03848  1.0000
  H   H829      1.0  0.08450  0.98251  0.01211  1.0000
  C   C831      1.0  0.28162  0.73480  0.15101  1.0000
  C   C832      1.0  0.27497  0.95464  0.17383  1.0000
  C   C833      1.0  0.27322  0.91573  0.17568  1.0000
  C   C834      1.0  0.10527  0.73692  0.12926  1.0000
  H   H830      1.0  0.27889  0.75175  0.15353  1.0000
  C   C835      1.0  0.37445  0.91897  0.02857  1.0000
  H   H831      1.0  0.48873  0.88916  0.09136  1.0000
  H   H832      1.0  0.46662  0.75993  0.11869  1.0000
  S   S285      1.0  0.12906  0.68231  0.16410  1.0000
  C   C836      1.0  0.05115  0.97734  0.02314  1.0000
  H   H833      1.0  0.22851  0.94307  0.18278  1.0000
  H   H834      1.0  0.10506  0.74954  0.13585  1.0000
  N   N68       1.0  0.26313  0.93769  0.17366  1.0000
  C   C837      1.0  0.26482  0.68201  0.17853  1.0000
  C   C838      1.0  0.08107  0.66755  0.13667  1.0000
  H   H835      1.0  0.32639  0.68146  0.16539  1.0000
  C   C839      1.0  0.11812  0.82497  0.03133  1.0000
  C   C840      1.0  0.45754  0.83615  0.99192  1.0000
  C   C841      1.0  0.29601  0.91034  0.17738  1.0000
  C   C842      1.0  0.29783  0.94989  0.17541  1.0000
  Fe  Fe148     1.0  0.47676  0.87094  0.06631  1.0000
  C   C843      1.0  0.07486  0.68555  0.14437  1.0000
  H   H836      1.0  0.37636  0.92396  0.99264  1.0000
  Fe  Fe149     1.0  0.15856  0.65544  0.16916  1.0000
  H   H837      1.0  0.08471  0.70369  0.15889  1.0000
  H   H838      1.0  0.38155  0.82014  0.12907  1.0000
  C   C844      1.0  0.22827  0.71667  0.18054  1.0000
  C   C845      1.0  0.08933  0.68946  0.15319  1.0000
  C   C846      1.0  0.10053  0.80978  0.01597  1.0000
  C   C847      1.0  0.08272  0.94754  0.02049  1.0000
  C   C848      1.0  0.03250  0.92277  0.04188  1.0000
  H   H839      1.0  0.45284  0.74255  0.13360  1.0000
  S   S286      1.0  0.24351  0.65693  0.16596  1.0000
  Fe  Fe150     1.0  0.48876  0.70192  0.13970  1.0000
  Fe  Fe151     1.0  0.26055  0.97316  0.13384  1.0000
  C   C849      1.0  0.11584  0.65688  0.14713  1.0000
  H   H840      1.0  0.26371  0.90223  0.17588  1.0000
  C   C850      1.0  0.25303  0.70176  0.22576  1.0000
  C   C851      1.0  0.41338  0.80883  0.11645  1.0000
  N   N69       1.0  0.08787  0.73799  0.12182  1.0000
  C   C852      1.0  0.39563  0.80658  0.12790  1.0000
  H   H841      1.0  0.11902  0.82807  0.04193  1.0000
  C   C853      1.0  0.42694  0.88760  0.98816  1.0000
  H   H842      1.0  0.44507  0.79296  0.10614  1.0000
  H   H843      1.0  0.13701  0.68834  0.12055  1.0000
  C   C854      1.0  0.39600  0.78672  0.13780  1.0000
  C   C855      1.0  0.40383  0.70613  0.15298  1.0000
  C   C856      1.0  0.40587  0.93714  0.01541  1.0000
  H   H844      1.0  0.24835  0.73735  0.14557  1.0000
  S   S287      1.0  0.46643  0.71236  0.15958  1.0000
  C   C857      1.0  0.32569  0.68383  0.15371  1.0000
  H   H845      1.0  0.39665  0.69894  0.14570  1.0000
  C   C858      1.0  0.42745  0.70476  0.15155  1.0000
  C   C859      1.0  0.48030  0.66154  0.08834  1.0000
  C   C860      1.0  0.08810  0.72192  0.11360  1.0000
  C   C861      1.0  0.12330  0.71917  0.12881  1.0000
  H   H846      1.0  0.07415  0.72244  0.10792  1.0000
  H   H847      1.0  0.32679  0.66702  0.15061  1.0000
  S   S288      1.0  0.07155  0.84333  0.98062  1.0000
  C   C862      1.0  0.26785  0.70463  0.14387  1.0000
  H   H848      1.0  0.21667  0.70509  0.21207  1.0000
  C   C863      1.0  0.24445  0.67976  0.17447  1.0000
  H   H849      1.0  0.02466  0.91572  0.03449  1.0000
  N   N70       1.0  0.43173  0.77190  0.12501  1.0000
  Fe  Fe152     1.0  0.99559  0.69300  0.10259  1.0000
  H   H850      1.0  0.29007  0.67320  0.14476  1.0000
  C   C864      1.0  0.30188  0.72049  0.15293  1.0000
  H   H851      1.0  0.21027  0.69542  0.17258  1.0000
  H   H852      1.0  0.27909  0.66871  0.17760  1.0000
  H   H853      1.0  0.06383  0.76039  0.13355  1.0000
  C   C865      1.0  0.44760  0.89301  0.98038  1.0000
  H   H854      1.0  0.07836  0.82012  0.04813  1.0000
  N   N71       1.0  0.10156  0.81392  0.02933  1.0000
  N   N72       1.0  0.04679  0.93923  0.03371  1.0000
  C   C866      1.0  0.47839  0.80943  0.07639  1.0000
  C   C867      1.0  0.10144  0.65306  0.13824  1.0000
  H   H855      1.0  0.45773  0.83995  0.00249  1.0000
  H   H856      1.0  0.30722  0.96347  0.17529  1.0000
  C   C868      1.0  0.03777  0.96145  0.03099  1.0000
  C   C869      1.0  0.47733  0.83501  0.98192  1.0000
  C   C870      1.0  0.48836  0.77072  0.08785  1.0000
  H   H857      1.0  0.46946  0.82136  0.06881  1.0000
  H   H858      1.0  0.43174  0.93922  0.98975  1.0000
  H   H859      1.0  0.01907  0.93052  0.04978  1.0000
  H   H860      1.0  0.30399  0.89288  0.17881  1.0000
  C   C871      1.0  0.36824  0.91727  0.01559  1.0000
  C   C872      1.0  0.38111  0.92566  0.00269  1.0000
  C   C873      1.0  0.47669  0.78642  0.07812  1.0000
  H   H861      1.0  0.35373  0.90927  0.01552  1.0000
  H   H862      1.0  0.36487  0.91231  0.03871  1.0000
  C   C874      1.0  0.49068  0.68013  0.08136  1.0000
  H   H863      1.0  0.23484  0.67902  0.20916  1.0000
  H   H864      1.0  0.48832  0.69514  0.08628  1.0000
  H   H865      1.0  0.02032  0.96717  0.03529  1.0000
  S   S289      1.0  0.48573  0.74200  0.08986  1.0000
  H   H866      1.0  0.10031  0.94178  0.01648  1.0000
  H   H867      1.0  0.23555  0.95977  0.16540  1.0000
  H   H868      1.0  0.20862  0.67870  0.22134  1.0000
  C   C875      1.0  0.22325  0.68802  0.21733  1.0000
  H   H869      1.0  0.04425  0.65402  0.10033  1.0000
  C   C876      1.0  0.05969  0.98403  0.05429  1.0000
  Fe  Fe153     1.0  0.30437  0.76442  0.32619  1.0000
  S   S290      1.0  0.29813  0.80118  0.31678  1.0000
  S   S291      1.0  0.27448  0.74536  0.33398  1.0000
  Fe  Fe154     1.0  0.35571  0.76272  0.32075  1.0000
  S   S292      1.0  0.35294  0.79863  0.31004  1.0000
  S   S293      1.0  0.39155  0.74441  0.32046  1.0000
  Fe  Fe155     1.0  0.32554  0.80547  0.32857  1.0000
  S   S294      1.0  0.33346  0.83115  0.34065  1.0000
  Fe  Fe156     1.0  0.32616  0.79083  0.29940  1.0000
  S   S295      1.0  0.32429  0.80331  0.27591  1.0000
  S   S296      1.0  0.32926  0.76944  0.33967  1.0000
  S   S297      1.0  0.33139  0.75421  0.30840  1.0000
  H   H870      1.0  0.46731  0.92447  0.44440  1.0000
  Fe  Fe157     1.0  0.21334  0.67105  0.30068  1.0000
  S   S298      1.0  0.18393  0.69350  0.29222  1.0000
  S   S299      1.0  0.24687  0.68451  0.29500  1.0000
  C   C877      1.0  0.31785  0.77724  0.24136  1.0000
  S   S300      1.0  0.32331  0.95534  0.36652  1.0000
  H   H871      1.0  0.11687  0.72729  0.29612  1.0000
  H   H872      1.0  0.48492  0.97159  0.41875  1.0000
  Fe  Fe158     1.0  0.16274  0.68023  0.31268  1.0000
  S   S301      1.0  0.13679  0.70451  0.32456  1.0000
  H   H873      1.0  0.16170  0.68075  0.23239  1.0000
  C   C878      1.0  0.26380  0.77357  0.28030  1.0000
  Fe  Fe159     1.0  0.01435  0.69967  0.36728  1.0000
  S   S302      1.0  0.03870  0.68115  0.35095  1.0000
  S   S303      1.0  0.02277  0.70088  0.38888  1.0000
  H   H874      1.0  0.99476  0.91230  0.40811  1.0000
  H   H875      1.0  0.37039  0.74314  0.35025  1.0000
  H   H876      1.0  0.45324  0.72013  0.34899  1.0000
  H   H877      1.0  0.38797  0.97540  0.42851  1.0000
  Fe  Fe160     1.0  0.28803  0.94930  0.36599  1.0000
  S   S304      1.0  0.27453  0.95733  0.38824  1.0000
  S   S305      1.0  0.27455  0.92193  0.35835  1.0000
  C   C879      1.0  0.42462  0.67437  0.41170  1.0000
  C   C880      1.0  0.99407  0.94633  0.44008  1.0000
  N   N73       1.0  0.40922  0.66471  0.40710  1.0000
  H   H878      1.0  0.22499  0.76330  0.31671  1.0000
  C   C881      1.0  0.41563  0.78329  0.35252  1.0000
  H   H879      1.0  0.05099  0.71935  0.31988  1.0000
  H   H880      1.0  0.13744  0.69724  0.28365  1.0000
  C   C882      1.0  0.06522  0.69570  0.30538  1.0000
  C   C883      1.0  0.08365  0.72598  0.30828  1.0000
  Fe  Fe161     1.0  0.46896  0.71147  0.38049  1.0000
  S   S306      1.0  0.43165  0.72061  0.37878  1.0000
  S   S307      1.0  0.47404  0.70722  0.40341  1.0000
  S   S308      1.0  0.00697  0.90082  0.43929  1.0000
  H   H881      1.0  0.36651  0.78767  0.24334  1.0000
  H   H882      1.0  0.01276  0.80509  0.40468  1.0000
  H   H883      1.0  0.03794  0.71543  0.41605  1.0000
  H   H884      1.0  0.31700  0.78336  0.23013  1.0000
  H   H885      1.0  0.43697  0.72955  0.32631  1.0000
  C   C884      1.0  0.23526  0.75455  0.29545  1.0000
  C   C885      1.0  0.37472  0.73544  0.26086  1.0000
  H   H886      1.0  0.37887  0.78724  0.26615  1.0000
  C   C886      1.0  0.25076  0.78203  0.30424  1.0000
  H   H887      1.0  0.02546  0.93545  0.40376  1.0000
  C   C887      1.0  0.24966  0.74452  0.27149  1.0000
  H   H888      1.0  0.18627  0.95734  0.40355  1.0000
  C   C888      1.0  0.01190  0.92849  0.43902  1.0000
  H   H889      1.0  0.42804  0.77914  0.34338  1.0000
  C   C889      1.0  0.08398  0.68892  0.29546  1.0000
  H   H890      1.0  0.03649  0.97088  0.40574  1.0000
  C   C890      1.0  0.03882  0.95489  0.43599  1.0000
  C   C891      1.0  0.03426  0.93283  0.43710  1.0000
  C   C892      1.0  0.48342  0.94280  0.45571  1.0000
  H   H891      1.0  0.22289  0.97088  0.39292  1.0000
  H   H892      1.0  0.05613  0.95811  0.43422  1.0000
  H   H893      1.0  0.04815  0.91912  0.43624  1.0000
  C   C893      1.0  0.06680  0.68654  0.34529  1.0000
  C   C894      1.0  0.08200  0.67191  0.33712  1.0000
  C   C895      1.0  0.10392  0.67668  0.33131  1.0000
  C   C896      1.0  0.11071  0.69629  0.33347  1.0000
  C   C897      1.0  0.09569  0.71062  0.34196  1.0000
  C   C898      1.0  0.07382  0.70572  0.34792  1.0000
  C   C899      1.0  0.17131  0.65420  0.24927  1.0000
  C   C900      1.0  0.22142  0.96698  0.35899  1.0000
  H   H894      1.0  0.10085  0.72582  0.34368  1.0000
  H   H895      1.0  0.06222  0.71712  0.35419  1.0000
  H   H896      1.0  0.43904  0.77033  0.36754  1.0000
  N   N74       1.0  0.39385  0.79237  0.35084  1.0000
  C   C901      1.0  0.26789  0.72718  0.32349  1.0000
  C   C902      1.0  0.24830  0.71693  0.32813  1.0000
  C   C903      1.0  0.24178  0.70355  0.31960  1.0000
  C   C904      1.0  0.25501  0.70007  0.30644  1.0000
  C   C905      1.0  0.27476  0.71002  0.30189  1.0000
  C   C906      1.0  0.28107  0.72365  0.31031  1.0000
  H   H897      1.0  0.23795  0.71962  0.33828  1.0000
  H   H898      1.0  0.22650  0.69602  0.32321  1.0000
  H   H899      1.0  0.28507  0.70746  0.29171  1.0000
  H   H900      1.0  0.29601  0.73153  0.30651  1.0000
  C   C907      1.0  0.32090  0.78438  0.26500  1.0000
  C   C908      1.0  0.31896  0.79226  0.25055  1.0000
  C   C909      1.0  0.31858  0.75427  0.24664  1.0000
  C   C910      1.0  0.31952  0.74654  0.26121  1.0000
  C   C911      1.0  0.32073  0.76152  0.27035  1.0000
  H   H901      1.0  0.31987  0.72880  0.26539  1.0000
  H   H902      1.0  0.32179  0.75525  0.28146  1.0000
  C   C912      1.0  0.29136  0.89711  0.35306  1.0000
  C   C913      1.0  0.31401  0.89124  0.35500  1.0000
  C   C914      1.0  0.32661  0.87106  0.35106  1.0000
  C   C915      1.0  0.31683  0.85663  0.34501  1.0000
  C   C916      1.0  0.29423  0.86259  0.34293  1.0000
  C   C917      1.0  0.28155  0.88269  0.34701  1.0000
  H   H903      1.0  0.32176  0.90215  0.35965  1.0000
  H   H904      1.0  0.34407  0.86660  0.35271  1.0000
  H   H905      1.0  0.28647  0.85161  0.33834  1.0000
  H   H906      1.0  0.26404  0.88705  0.34548  1.0000
  C   C918      1.0  0.42098  0.72616  0.36244  1.0000
  C   C919      1.0  0.39760  0.73262  0.36270  1.0000
  C   C920      1.0  0.38843  0.73819  0.34990  1.0000
  C   C921      1.0  0.40256  0.73713  0.33673  1.0000
  C   C922      1.0  0.42594  0.73045  0.33647  1.0000
  C   C923      1.0  0.43518  0.72507  0.34929  1.0000
  H   H907      1.0  0.38652  0.73360  0.37283  1.0000
  C   C924      1.0  0.12137  0.69341  0.28141  1.0000
  H   H908      1.0  0.37497  0.70570  0.27704  1.0000
  H   H909      1.0  0.27930  0.71284  0.23394  1.0000
  C   C925      1.0  0.01853  0.74156  0.42737  1.0000
  C   C926      1.0  0.16648  0.66282  0.23542  1.0000
  H   H910      1.0  0.23902  0.96078  0.35535  1.0000
  C   C927      1.0  0.43267  0.66513  0.42458  1.0000
  Fe  Fe162     1.0  0.30895  0.96664  0.38776  1.0000
  H   H911      1.0  0.20171  0.91769  0.37187  1.0000
  C   C928      1.0  0.42199  0.77833  0.36615  1.0000
  H   H912      1.0  0.11865  0.70230  0.27056  1.0000
  S   S309      1.0  0.00970  0.76526  0.39374  1.0000
  H   H913      1.0  0.38049  0.72581  0.29613  1.0000
  C   C929      1.0  0.25886  0.69277  0.25049  1.0000
  C   C930      1.0  0.37521  0.77009  0.24326  1.0000
  S   S310      1.0  0.32750  0.95729  0.40693  1.0000
  H   H914      1.0  0.41365  0.97596  0.38783  1.0000
  C   C931      1.0  0.38714  0.79719  0.33660  1.0000
  C   C932      1.0  0.10219  0.71863  0.29841  1.0000
  C   C933      1.0  0.06509  0.71438  0.31180  1.0000
  H   H915      1.0  0.38382  0.81567  0.33304  1.0000
  H   H916      1.0  0.23563  0.67237  0.26444  1.0000
  C   C934      1.0  0.26983  0.97268  0.42314  1.0000
  C   C935      1.0  0.37927  0.73477  0.28535  1.0000
  C   C936      1.0  0.38042  0.75776  0.28222  1.0000
  C   C937      1.0  0.36028  0.96818  0.41964  1.0000
  H   H917      1.0  0.07665  0.65710  0.33497  1.0000
  H   H918      1.0  0.44558  0.67232  0.42790  1.0000
  H   H919      1.0  0.36498  0.95445  0.38111  1.0000
  C   C938      1.0  0.37624  0.72352  0.27465  1.0000
  H   H920      1.0  0.08403  0.67434  0.29053  1.0000
  C   C939      1.0  0.18468  0.95998  0.37045  1.0000
  H   H921      1.0  0.22539  0.92273  0.35806  1.0000
  H   H922      1.0  0.08413  0.73997  0.31363  1.0000
  C   C940      1.0  0.99863  0.96836  0.43896  1.0000
  H   H923      1.0  0.38255  0.76665  0.29053  1.0000
  H   H924      1.0  0.46891  0.95575  0.45725  1.0000
  C   C941      1.0  0.26479  0.78576  0.29106  1.0000
  N   N75       1.0  0.24970  0.75769  0.28275  1.0000
  H   H925      1.0  0.39344  0.94277  0.37399  1.0000
  C   C942      1.0  0.00581  0.70642  0.42734  1.0000
  Fe  Fe163     1.0  0.17843  0.66348  0.28371  1.0000
  H   H926      1.0  0.25183  0.79075  0.31288  1.0000
  N   N76       1.0  0.10221  0.70026  0.29219  1.0000
  C   C943      1.0  0.02242  0.72050  0.42304  1.0000
  H   H927      1.0  0.05109  0.68627  0.30836  1.0000
  H   H928      1.0  0.37223  0.72662  0.25260  1.0000
  C   C944      1.0  0.37809  0.79717  0.36242  1.0000
  H   H929      1.0  0.43113  0.68903  0.40523  1.0000
  H   H930      1.0  0.11530  0.66552  0.32481  1.0000
  H   H931      1.0  0.28266  0.95816  0.42517  1.0000
  N   N77       1.0  0.20682  0.95223  0.36563  1.0000
  C   C945      1.0  0.22911  0.67918  0.24256  1.0000
  H   H932      1.0  0.37139  0.79017  0.33700  1.0000
  H   H933      1.0  0.35878  0.95251  0.42688  1.0000
  H   H934      1.0  0.41057  0.77834  0.38872  1.0000
  H   H935      1.0  0.22700  0.92460  0.37626  1.0000
  S   S311      1.0  0.16997  0.67331  0.26121  1.0000
  H   H936      1.0  0.23870  0.75420  0.26373  1.0000
  C   C946      1.0  0.18704  0.97520  0.40106  1.0000
  C   C947      1.0  0.37851  0.76924  0.26838  1.0000
  H   H937      1.0  0.41676  0.67309  0.38450  1.0000
  C   C948      1.0  0.34639  0.97495  0.40897  1.0000
  C   C949      1.0  0.38385  0.79233  0.37622  1.0000
  H   H938      1.0  0.22400  0.74201  0.29741  1.0000
  S   S312      1.0  0.31972  0.73461  0.23526  1.0000
  N   N78       1.0  0.23532  0.68971  0.22887  1.0000
  H   H939      1.0  0.24342  0.72825  0.27610  1.0000
  H   H940      1.0  0.26811  0.69376  0.25894  1.0000
  C   C950      1.0  0.40592  0.78270  0.37807  1.0000
  H   H941      1.0  0.03282  0.65411  0.40744  1.0000
  C   C951      1.0  0.38326  0.95514  0.38064  1.0000
  H   H942      1.0  0.39487  0.69238  0.39306  1.0000
  C   C952      1.0  0.23561  0.76663  0.30638  1.0000
  H   H943      1.0  0.27464  0.77663  0.27005  1.0000
  H   H944      1.0  0.17322  0.94844  0.37619  1.0000
  H   H945      1.0  0.38890  0.66555  0.39090  1.0000
  C   C953      1.0  0.00802  0.94369  0.40471  1.0000
  H   H946      1.0  0.21515  0.66953  0.24505  1.0000
  H   H947      1.0  0.24172  0.95430  0.43098  1.0000
  H   H948      1.0  0.27660  0.79777  0.28924  1.0000
  H   H949      1.0  0.31886  0.80997  0.24636  1.0000
  H   H950      1.0  0.26713  0.74031  0.26573  1.0000
  H   H951      1.0  0.37119  0.79586  0.38539  1.0000
  H   H952      1.0  0.36571  0.76198  0.23730  1.0000
  C   C954      1.0  0.24691  0.97053  0.42638  1.0000
  H   H953      1.0  0.40012  0.78939  0.32850  1.0000
  N   N79       1.0  0.38855  0.97779  0.37460  1.0000
  N   N80       1.0  0.37576  0.75804  0.25791  1.0000
  C   C955      1.0  0.40198  0.67430  0.39323  1.0000
  H   H954      1.0  0.36086  0.80457  0.36102  1.0000
  S   S313      1.0  0.19277  0.66015  0.32204  1.0000
  C   C956      1.0  0.21549  0.92812  0.36811  1.0000
  H   H955      1.0  0.03088  0.75302  0.42361  1.0000
  N   N81       1.0  0.00303  0.96653  0.40407  1.0000
  S   S314      1.0  0.49119  0.67926  0.37605  1.0000
  S   S315      1.0  0.15463  0.65217  0.30350  1.0000
  C   C957      1.0  0.24068  0.68065  0.25357  1.0000
  H   H956      1.0  0.38665  0.95022  0.39186  1.0000
  C   C958      1.0  0.26512  0.70342  0.23649  1.0000
  C   C959      1.0  0.20777  0.98283  0.39502  1.0000
  H   H957      1.0  0.12384  0.67498  0.28131  1.0000
  C   C960      1.0  0.02099  0.97275  0.43679  1.0000
  H   H958      1.0  0.00883  0.69016  0.42380  1.0000
  H   H959      1.0  0.39270  0.77036  0.23738  1.0000
  Fe  Fe164     1.0  0.00042  0.73471  0.38720  1.0000
  H   H960      1.0  0.00613  0.88615  0.47275  1.0000
  C   C961      1.0  0.99637  0.80019  0.40923  1.0000
  S   S316      1.0  0.14090  0.98061  0.40900  1.0000
  C   C962      1.0  0.99816  0.74832  0.43589  1.0000
  C   C963      1.0  0.48254  0.92523  0.44853  1.0000
  S   S317      1.0  0.99473  0.73479  0.36467  1.0000
  H   H961      1.0  0.99466  0.76503  0.43885  1.0000
  C   C964      1.0  0.37673  0.98117  0.42064  1.0000
  C   C965      1.0  0.17662  0.98307  0.36855  1.0000
  H   H962      1.0  0.36461  0.98405  0.36012  1.0000
  C   C966      1.0  0.02140  0.98017  0.40107  1.0000
  H   H963      1.0  0.05123  0.77636  0.68321  1.0000
  H   H964      1.0  0.01807  0.91900  0.60158  1.0000
  C   C967      1.0  0.06884  0.96832  0.50796  1.0000
  H   H965      1.0  0.24753  0.86352  0.64383  1.0000
  C   C968      1.0  0.24009  0.80895  0.65488  1.0000
  C   C969      1.0  0.05658  0.78815  0.68901  1.0000
  Fe  Fe165     1.0  0.21954  0.95692  0.62902  1.0000
  S   S318      1.0  0.21181  0.92200  0.62854  1.0000
  C   C970      1.0  0.10924  0.70706  0.61681  1.0000
  C   C971      1.0  0.24269  0.86794  0.67145  1.0000
  S   S319      1.0  0.27216  0.66833  0.70934  1.0000
  H   H966      1.0  0.09758  0.67572  0.61749  1.0000
  H   H967      1.0  0.99947  0.94252  0.59390  1.0000
  C   C972      1.0  0.99922  0.96488  0.56276  1.0000
  H   H968      1.0  0.18968  0.96714  0.56495  1.0000
  C   C973      1.0  0.09818  0.77624  0.71465  1.0000
  Fe  Fe166     1.0  0.17288  0.81939  0.68507  1.0000
  S   S320      1.0  0.17553  0.80101  0.66660  1.0000
  S   S321      1.0  0.18072  0.85450  0.68454  1.0000
  Fe  Fe167     1.0  0.15918  0.77927  0.70712  1.0000
  S   S322      1.0  0.16088  0.75745  0.69037  1.0000
  H   H969      1.0  0.99770  0.90571  0.52115  1.0000
  Fe  Fe168     1.0  0.19282  0.77162  0.68041  1.0000
  S   S323      1.0  0.22519  0.75241  0.67038  1.0000
  Fe  Fe169     1.0  0.14323  0.78832  0.67806  1.0000
  S   S324      1.0  0.11420  0.78962  0.66580  1.0000
  S   S325      1.0  0.19260  0.79082  0.69814  1.0000
  S   S326      1.0  0.13911  0.80932  0.69556  1.0000
  Fe  Fe170     1.0  0.03285  0.67982  0.63104  1.0000
  S   S327      1.0  0.02134  0.67642  0.65486  1.0000
  H   H970      1.0  0.47994  0.65715  0.59731  1.0000
  H   H971      1.0  0.00318  0.93535  0.55280  1.0000
  Fe  Fe171     1.0  0.03265  0.71014  0.65303  1.0000
  S   S328      1.0  0.05512  0.71233  0.66912  1.0000
  C   C974      1.0  0.47951  0.97073  0.58081  1.0000
  S   S329      1.0  0.04595  0.71237  0.62959  1.0000
  C   C975      1.0  0.39452  0.67104  0.65929  1.0000
  C   C976      1.0  0.08512  0.78716  0.70413  1.0000
  H   H972      1.0  0.11556  0.72749  0.64613  1.0000
  C   C977      1.0  0.40858  0.67738  0.64638  1.0000
  C   C978      1.0  0.09972  0.76695  0.66583  1.0000
  C   C979      1.0  0.10278  0.74683  0.67538  1.0000
  C   C980      1.0  0.08909  0.73019  0.67616  1.0000
  C   C981      1.0  0.07248  0.73336  0.66727  1.0000
  C   C982      1.0  0.06999  0.75312  0.65735  1.0000
  C   C983      1.0  0.08348  0.76988  0.65670  1.0000
  H   H973      1.0  0.11523  0.74437  0.68246  1.0000
  H   H974      1.0  0.09124  0.71486  0.68380  1.0000
  H   H975      1.0  0.05735  0.75571  0.65039  1.0000
  H   H976      1.0  0.08101  0.78541  0.64927  1.0000
  C   C984      1.0  0.25978  0.69223  0.69859  1.0000
  C   C985      1.0  0.27010  0.69937  0.68462  1.0000
  C   C986      1.0  0.25935  0.71789  0.67606  1.0000
  C   C987      1.0  0.23836  0.72945  0.68145  1.0000
  C   C988      1.0  0.22813  0.72246  0.69548  1.0000
  C   C989      1.0  0.23880  0.70382  0.70400  1.0000
  H   H977      1.0  0.28631  0.69057  0.68038  1.0000
  H   H978      1.0  0.26736  0.72328  0.66524  1.0000
  H   H979      1.0  0.21191  0.73125  0.69968  1.0000
  H   H980      1.0  0.23074  0.69825  0.71477  1.0000
  C   C990      1.0  0.43522  0.68684  0.65942  1.0000
  C   C991      1.0  0.42087  0.68107  0.67232  1.0000
  C   C992      1.0  0.40065  0.67297  0.67227  1.0000
  H   H981      1.0  0.15138  0.91408  0.60294  1.0000
  S   S330      1.0  0.45370  0.98291  0.58993  1.0000
  S   S331      1.0  0.46104  0.69579  0.65982  1.0000
  N   N82       1.0  0.48061  0.97492  0.53464  1.0000
  S   S332      1.0  0.99847  0.72954  0.64948  1.0000
  C   C993      1.0  0.18681  0.87382  0.66870  1.0000
  C   C994      1.0  0.19005  0.89555  0.66988  1.0000
  C   C995      1.0  0.19727  0.91068  0.65763  1.0000
  C   C996      1.0  0.20121  0.90420  0.64410  1.0000
  C   C997      1.0  0.19733  0.88271  0.64287  1.0000
  C   C998      1.0  0.19015  0.86756  0.65512  1.0000
  H   H982      1.0  0.18740  0.90055  0.68035  1.0000
  H   H983      1.0  0.20007  0.92722  0.65870  1.0000
  H   H984      1.0  0.20024  0.87761  0.63242  1.0000
  H   H985      1.0  0.18770  0.85089  0.65409  1.0000
  H   H986      1.0  0.25607  0.65764  0.68283  1.0000
  C   C999      1.0  0.18164  0.95494  0.57307  1.0000
  H   H987      1.0  0.09731  0.65402  0.65577  1.0000
  C   C1000     1.0  0.08214  0.74257  0.71570  1.0000
  S   S333      1.0  0.37035  0.65926  0.65878  1.0000
  H   H988      1.0  0.23435  0.82828  0.68637  1.0000
  C   C1001     1.0  0.10186  0.68685  0.62380  1.0000
  C   C1002     1.0  0.23701  0.80873  0.66963  1.0000
  H   H989      1.0  0.00972  0.87861  0.49860  1.0000
  S   S334      1.0  0.34022  0.65933  0.70033  1.0000
  H   H990      1.0  0.43422  0.96900  0.55983  1.0000
  H   H991      1.0  0.22022  0.94070  0.59566  1.0000
  H   H992      1.0  0.25970  0.86669  0.67443  1.0000
  C   C1003     1.0  0.09687  0.75375  0.72034  1.0000
  S   S335      1.0  0.00621  0.75712  0.60749  1.0000
  C   C1004     1.0  0.48431  0.93792  0.54863  1.0000
  Fe  Fe172     1.0  0.48800  0.69297  0.64041  1.0000
  H   H993      1.0  0.11065  0.71143  0.60525  1.0000
  C   C1005     1.0  0.15991  0.92530  0.59437  1.0000
  H   H994      1.0  0.43975  0.68978  0.63645  1.0000
  C   C1006     1.0  0.99405  0.89504  0.48039  1.0000
  H   H995      1.0  0.21246  0.96843  0.58610  1.0000
  H   H996      1.0  0.14097  0.96959  0.60236  1.0000
  C   C1007     1.0  0.21384  0.95014  0.58578  1.0000
  Fe  Fe173     1.0  0.01101  0.72897  0.62607  1.0000
  N   N83       1.0  0.24117  0.84782  0.66566  1.0000
  C   C1008     1.0  0.09050  0.66087  0.64563  1.0000
  H   H997      1.0  0.00960  0.91928  0.58444  1.0000
  S   S336      1.0  0.23905  0.96949  0.64291  1.0000
  C   C1009     1.0  0.24390  0.82878  0.64554  1.0000
  H   H998      1.0  0.23964  0.88347  0.66353  1.0000
  H   H999      1.0  0.24622  0.82917  0.63405  1.0000
  H   H1000     1.0  0.05755  0.74533  0.70181  1.0000
  H   H1001     1.0  0.17619  0.98216  0.60479  1.0000
  S   S337      1.0  0.48481  0.69058  0.61782  1.0000
  H   H1002     1.0  0.15185  0.95939  0.56297  1.0000
  H   H1003     1.0  0.22654  0.94583  0.57643  1.0000
  N   N84       1.0  0.09956  0.68143  0.63841  1.0000
  H   H1004     1.0  0.10178  0.69188  0.65800  1.0000
  C   C1010     1.0  0.10432  0.69581  0.64639  1.0000
  C   C1011     1.0  0.23738  0.82846  0.67488  1.0000
  C   C1012     1.0  0.18122  0.93008  0.59526  1.0000
  H   H1005     1.0  0.08667  0.80452  0.69951  1.0000
  H   H1006     1.0  0.22957  0.86983  0.68107  1.0000
  S   S338      1.0  0.02665  0.97051  0.55528  1.0000
  H   H1007     1.0  0.23427  0.79333  0.67693  1.0000
  C   C1013     1.0  0.24464  0.84813  0.65115  1.0000
  N   N85       1.0  0.07080  0.77606  0.69960  1.0000
  C   C1014     1.0  0.06389  0.97833  0.49436  1.0000
  H   H1008     1.0  0.08102  0.72505  0.72004  1.0000
  S   S339      1.0  0.99889  0.69659  0.62551  1.0000
  H   H1009     1.0  0.00269  0.87989  0.60042  1.0000
  C   C1015     1.0  0.06893  0.75414  0.70540  1.0000
  H   H1010     1.0  0.23948  0.79373  0.65076  1.0000
  H   H1011     1.0  0.45667  0.93135  0.56568  1.0000
  H   H1012     1.0  0.06615  0.79974  0.68072  1.0000
  H   H1013     1.0  0.18905  0.92230  0.60461  1.0000
  N   N86       1.0  0.19178  0.94474  0.58467  1.0000
  C   C1016     1.0  0.42899  0.68504  0.64644  1.0000
  C   C1017     1.0  0.14939  0.93570  0.58260  1.0000
  C   C1018     1.0  0.11431  0.72173  0.62487  1.0000
  H   H1014     1.0  0.10939  0.78507  0.71836  1.0000
  H   H1015     1.0  0.11980  0.73760  0.61963  1.0000
  H   H1016     1.0  0.04132  0.79801  0.69437  1.0000
  C   C1019     1.0  0.46312  0.94334  0.55670  1.0000
  C   C1020     1.0  0.16034  0.95054  0.57184  1.0000
  S   S340      1.0  0.05917  0.65484  0.61997  1.0000
  H   H1017     1.0  0.08071  0.95289  0.50925  1.0000
  C   C1021     1.0  0.00387  0.92389  0.59532  1.0000
  H   H1018     1.0  0.42556  0.68253  0.68238  1.0000
  C   C1022     1.0  0.45955  0.98016  0.54224  1.0000
  S   S341      1.0  0.24005  0.97130  0.60845  1.0000
  H   H1019     1.0  0.38988  0.66812  0.68227  1.0000
  C   C1023     1.0  0.48879  0.94857  0.58575  1.0000
  H   H1020     1.0  0.40382  0.67605  0.63631  1.0000
  C   C1024     1.0  0.45056  0.96454  0.55346  1.0000
  C   C1025     1.0  0.11196  0.71606  0.63974  1.0000
  H   H1021     1.0  0.06250  0.97115  0.53043  1.0000
  H   H1022     1.0  0.48004  0.93908  0.59514  1.0000
  C   C1026     1.0  0.99596  0.89092  0.49496  1.0000
  S   S342      1.0  0.29557  0.98326  0.62048  1.0000
  H   H1023     1.0  0.48721  0.72513  0.66977  1.0000
  H   H1024     1.0  0.13245  0.93296  0.58203  1.0000
  C   C1027     1.0  0.05877  0.97865  0.51982  1.0000
  H   H1025     1.0  0.07222  0.97050  0.48514  1.0000
  C   C1028     1.0  0.49094  0.98291  0.56871  1.0000
  H   H1026     1.0  0.07178  0.66459  0.64812  1.0000
  H   H1027     1.0  0.20821  0.76244  0.72660  1.0000
  Fe  Fe174     1.0  0.41156  0.88936  0.95536  1.0000
  S   S343      1.0  0.44526  0.87831  0.94281  1.0000
  Fe  Fe175     1.0  0.38841  0.90348  0.92867  1.0000
  S   S344      1.0  0.42048  0.89351  0.91384  1.0000
  S   S345      1.0  0.35459  0.92154  0.92276  1.0000
  Fe  Fe176     1.0  0.42563  0.86272  0.93060  1.0000
  H   H1028     1.0  0.26743  0.88582  0.91756  1.0000
  Fe  Fe177     1.0  0.43732  0.90996  0.92739  1.0000
  S   S346      1.0  0.46282  0.93365  0.91790  1.0000
  S   S347      1.0  0.39223  0.87158  0.94440  1.0000
  S   S348      1.0  0.40499  0.92219  0.94093  1.0000
  C   C1029     1.0  0.20280  0.96404  0.83389  1.0000
  C   C1030     1.0  0.40084  0.67477  0.84049  1.0000
  C   C1031     1.0  0.34464  0.65623  0.75568  1.0000
  Fe  Fe178     1.0  0.19750  0.74638  0.81514  1.0000
  S   S349      1.0  0.21053  0.77877  0.80573  1.0000
  S   S350      1.0  0.21998  0.71662  0.80684  1.0000
  Fe  Fe179     1.0  0.15446  0.77031  0.83103  1.0000
  S   S351      1.0  0.16419  0.80457  0.82226  1.0000
  S   S352      1.0  0.12400  0.76928  0.84850  1.0000
  Fe  Fe180     1.0  0.17509  0.79104  0.80132  1.0000
  S   S353      1.0  0.17158  0.81042  0.77915  1.0000
  Fe  Fe181     1.0  0.19849  0.78871  0.82743  1.0000
  S   S354      1.0  0.22051  0.80021  0.84032  1.0000
  S   S355      1.0  0.16247  0.75807  0.80970  1.0000
  S   S356      1.0  0.18834  0.75511  0.83729  1.0000
  C   C1032     1.0  0.05370  0.78392  0.82489  1.0000
  S   S357      1.0  0.04365  0.72161  0.84179  1.0000
  C   C1033     1.0  0.28937  0.72605  0.81429  1.0000
  Fe  Fe182     1.0  0.07780  0.87058  0.92566  1.0000
  S   S358      1.0  0.08739  0.83671  0.93840  1.0000
  S   S359      1.0  0.10247  0.88293  0.90645  1.0000
  Fe  Fe183     1.0  0.02876  0.87393  0.94007  1.0000
  S   S360      1.0  0.03482  0.83974  0.95335  1.0000
  Fe  Fe184     1.0  0.06601  0.85126  0.95725  1.0000
  Fe  Fe185     1.0  0.05538  0.82863  0.93328  1.0000
  S   S361      1.0  0.05884  0.79581  0.92453  1.0000
  S   S362      1.0  0.05894  0.88610  0.94484  1.0000
  S   S363      1.0  0.04674  0.86188  0.91968  1.0000
  Fe  Fe186     1.0  0.23872  0.95583  0.86835  1.0000
  S   S364      1.0  0.24464  0.94058  0.89072  1.0000
  C   C1034     1.0  0.20766  0.75215  0.73712  1.0000
  Fe  Fe187     1.0  0.22279  0.91406  0.86310  1.0000
  S   S365      1.0  0.22781  0.89499  0.88482  1.0000
  S   S366      1.0  0.20697  0.90332  0.84650  1.0000
  Fe  Fe188     1.0  0.21185  0.92738  0.89255  1.0000
  S   S367      1.0  0.18649  0.92614  0.91280  1.0000
  Fe  Fe189     1.0  0.26028  0.90954  0.88131  1.0000
  S   S368      1.0  0.29311  0.88824  0.88667  1.0000
  S   S369      1.0  0.20438  0.94567  0.87108  1.0000
  S   S370      1.0  0.25679  0.92558  0.85866  1.0000
  C   C1035     1.0  0.15209  0.76679  0.75815  1.0000
  H   H1029     1.0  0.36207  0.97547  0.88664  1.0000
  S   S371      1.0  0.44185  0.71509  0.84864  1.0000
  S   S372      1.0  0.47154  0.72331  0.87941  1.0000
  C   C1036     1.0  0.12591  0.89426  0.90876  1.0000
  C   C1037     1.0  0.14248  0.89890  0.89683  1.0000
  C   C1038     1.0  0.16122  0.90839  0.89811  1.0000
  C   C1039     1.0  0.16331  0.91364  0.91129  1.0000
  C   C1040     1.0  0.14688  0.90879  0.92330  1.0000
  C   C1041     1.0  0.12823  0.89897  0.92206  1.0000
  H   H1030     1.0  0.14071  0.89542  0.88651  1.0000
  H   H1031     1.0  0.17380  0.91202  0.88880  1.0000
  H   H1032     1.0  0.14842  0.91284  0.93352  1.0000
  H   H1033     1.0  0.11547  0.89544  0.93130  1.0000
  H   H1034     1.0  0.01354  0.91550  0.91732  1.0000
  C   C1042     1.0  0.04305  0.77027  0.90907  1.0000
  C   C1043     1.0  0.03829  0.78964  0.91563  1.0000
  H   H1035     1.0  0.03026  0.74860  0.89813  1.0000
  H   H1036     1.0  0.05946  0.75993  0.90909  1.0000
  C   C1044     1.0  0.10372  0.75287  0.84723  1.0000
  C   C1045     1.0  0.08622  0.74942  0.85877  1.0000
  C   C1046     1.0  0.06822  0.73885  0.85744  1.0000
  C   C1047     1.0  0.06767  0.73157  0.84458  1.0000
  C   C1048     1.0  0.08568  0.73417  0.83325  1.0000
  C   C1049     1.0  0.10367  0.74484  0.83455  1.0000
  H   H1037     1.0  0.08620  0.75553  0.86863  1.0000
  H   H1038     1.0  0.05441  0.73713  0.86619  1.0000
  H   H1039     1.0  0.08540  0.72850  0.82328  1.0000
  H   H1040     1.0  0.11712  0.74739  0.82561  1.0000
  C   C1050     1.0  0.21621  0.82884  0.84215  1.0000
  C   C1051     1.0  0.22726  0.83573  0.85181  1.0000
  C   C1052     1.0  0.22432  0.85851  0.85338  1.0000
  C   C1053     1.0  0.21043  0.87452  0.84521  1.0000
  C   C1054     1.0  0.19922  0.86759  0.83565  1.0000
  C   C1055     1.0  0.20206  0.84481  0.83413  1.0000
  H   H1041     1.0  0.23825  0.82345  0.85801  1.0000
  H   H1042     1.0  0.23309  0.86372  0.86073  1.0000
  H   H1043     1.0  0.18851  0.87993  0.82927  1.0000
  H   H1044     1.0  0.19362  0.83968  0.82659  1.0000
  H   H1045     1.0  0.19874  0.85168  0.92007  1.0000
  C   C1056     1.0  0.49058  0.97734  0.93383  1.0000
  C   C1057     1.0  0.16483  0.79753  0.76578  1.0000
  C   C1058     1.0  0.15697  0.77674  0.76908  1.0000
  H   H1046     1.0  0.33517  0.67303  0.75506  1.0000
  C   C1059     1.0  0.23470  0.84939  0.91258  1.0000
  H   H1047     1.0  0.15441  0.76839  0.78005  1.0000
  H   H1048     1.0  0.45604  0.82397  0.95419  1.0000
  C   C1060     1.0  0.27265  0.67374  0.82127  1.0000
  C   C1061     1.0  0.25736  0.68642  0.81248  1.0000
  C   C1062     1.0  0.23800  0.69986  0.81834  1.0000
  C   C1063     1.0  0.23367  0.70013  0.83312  1.0000
  C   C1064     1.0  0.24872  0.68703  0.84197  1.0000
  C   C1065     1.0  0.28301  0.72291  0.84006  1.0000
  H   H1049     1.0  0.26084  0.68620  0.80105  1.0000
  H   H1050     1.0  0.21861  0.71022  0.83775  1.0000
  H   H1051     1.0  0.20367  0.71676  0.77495  1.0000
  C   C1066     1.0  0.02652  0.76382  0.90283  1.0000
  C   C1067     1.0  0.21111  0.76093  0.74884  1.0000
  C   C1068     1.0  0.40973  0.69347  0.84256  1.0000
  C   C1069     1.0  0.43114  0.69085  0.84676  1.0000
  H   H1052     1.0  0.02881  0.67881  0.91886  1.0000
  C   C1070     1.0  0.48633  0.97020  0.94864  1.0000
  H   H1053     1.0  0.34430  0.65415  0.73354  1.0000
  H   H1054     1.0  0.39999  0.71008  0.84087  1.0000
  C   C1071     1.0  0.16775  0.80826  0.75145  1.0000
  H   H1055     1.0  0.19705  0.70056  0.75452  1.0000
  H   H1056     1.0  0.24526  0.90615  0.93764  1.0000
  C   C1072     1.0  0.24022  0.97260  0.82374  1.0000
  H   H1057     1.0  0.24329  0.76185  0.82610  1.0000
  S   S373      1.0  0.02089  0.71352  0.88356  1.0000
  H   H1058     1.0  0.42469  0.79153  0.84557  1.0000
  Fe  Fe190     1.0  0.01598  0.71644  0.86072  1.0000
  H   H1059     1.0  0.45309  0.78676  0.84992  1.0000
  H   H1060     1.0  0.03301  0.93851  0.94004  1.0000
  C   C1073     1.0  0.20481  0.72675  0.76430  1.0000
  C   C1074     1.0  0.33728  0.91079  0.91364  1.0000
  C   C1075     1.0  0.31560  0.92265  0.91225  1.0000
  C   C1076     1.0  0.30179  0.91570  0.90421  1.0000
  C   C1077     1.0  0.30957  0.89680  0.89745  1.0000
  C   C1078     1.0  0.33110  0.88468  0.89905  1.0000
  C   C1079     1.0  0.34497  0.89166  0.90709  1.0000
  H   H1061     1.0  0.30956  0.93747  0.91728  1.0000
  H   H1062     1.0  0.28530  0.92519  0.90310  1.0000
  H   H1063     1.0  0.33723  0.87000  0.89389  1.0000
  H   H1064     1.0  0.36167  0.88243  0.90809  1.0000
  C   C1080     1.0  0.44917  0.81559  0.91340  1.0000
  C   C1081     1.0  0.45383  0.83038  0.90065  1.0000
  C   C1082     1.0  0.46419  0.82188  0.88802  1.0000
  C   C1083     1.0  0.46997  0.79860  0.88805  1.0000
  C   C1084     1.0  0.16307  0.79823  0.74050  1.0000
  C   C1085     1.0  0.29589  0.71629  0.82749  1.0000
  H   H1065     1.0  0.44938  0.84834  0.90049  1.0000
  H   H1066     1.0  0.21276  0.77608  0.77201  1.0000
  H   H1067     1.0  0.24530  0.68724  0.85339  1.0000
  H   H1068     1.0  0.07223  0.78149  0.82099  1.0000
  C   C1086     1.0  0.30175  0.95578  0.86892  1.0000
  N   N87       1.0  0.33527  0.95918  0.88417  1.0000
  C   C1087     1.0  0.41059  0.77468  0.89640  1.0000
  H   H1069     1.0  0.23249  0.93896  0.83149  1.0000
  H   H1070     1.0  0.03498  0.79997  0.87879  1.0000
  N   N88       1.0  0.42743  0.77810  0.86727  1.0000
  C   C1088     1.0  0.03882  0.79672  0.86782  1.0000
  H   H1071     1.0  0.01328  0.81796  0.92044  1.0000
  H   H1072     1.0  0.40470  0.77324  0.90785  1.0000
  H   H1073     1.0  0.46002  0.66704  0.85222  1.0000
  C   C1089     1.0  0.42470  0.79648  0.87397  1.0000
  H   H1074     1.0  0.41655  0.82636  0.95918  1.0000
  N   N89       1.0  0.99861  0.73427  0.93188  1.0000
  C   C1090     1.0  0.46521  0.94209  0.94472  1.0000
  C   C1091     1.0  0.43672  0.78007  0.85197  1.0000
  H   H1075     1.0  0.22922  0.74935  0.77802  1.0000
  H   H1076     1.0  0.45004  0.89606  0.96881  1.0000
  C   C1092     1.0  0.25057  0.74564  0.85265  1.0000
  H   H1077     1.0  0.46764  0.83341  0.87815  1.0000
  H   H1078     1.0  0.28768  0.71445  0.85029  1.0000
  H   H1079     1.0  0.04540  0.79835  0.81791  1.0000
  C   C1093     1.0  0.02963  0.78181  0.84842  1.0000
  C   C1094     1.0  0.25806  0.74903  0.82654  1.0000
  N   N90       1.0  0.43685  0.82918  0.97459  1.0000
  H   H1080     1.0  0.23562  0.83507  0.90722  1.0000
  C   C1095     1.0  0.42143  0.75816  0.87476  1.0000
  C   C1096     1.0  0.22584  0.95677  0.82978  1.0000
  H   H1081     1.0  0.40905  0.74005  0.89541  1.0000
  C   C1097     1.0  0.05830  0.80301  0.85892  1.0000
  H   H1082     1.0  0.45569  0.92833  0.94896  1.0000
  H   H1083     1.0  0.28859  0.95446  0.86304  1.0000
  H   H1084     1.0  0.06987  0.81094  0.86296  1.0000
  H   H1085     1.0  0.42351  0.74356  0.86948  1.0000
  H   H1086     1.0  0.25385  0.73298  0.86222  1.0000
  C   C1098     1.0  0.48231  0.96675  0.92450  1.0000
  H   H1087     1.0  0.40187  0.84014  0.97381  1.0000
  H   H1088     1.0  0.23222  0.74739  0.85208  1.0000
  H   H1089     1.0  0.23098  0.92213  0.92316  1.0000
  C   C1099     1.0  0.41617  0.79509  0.88860  1.0000
  C   C1100     1.0  0.00501  0.77664  0.90318  1.0000
  H   H1090     1.0  0.41483  0.80950  0.89397  1.0000
  C   C1101     1.0  0.02036  0.69433  0.92262  1.0000
  H   H1091     1.0  0.48585  0.97216  0.91305  1.0000
  H   H1092     1.0  0.27011  0.85245  0.90602  1.0000
  H   H1093     1.0  0.21443  0.77813  0.74723  1.0000
  C   C1102     1.0  0.25243  0.87803  0.91847  1.0000
  H   H1094     1.0  0.00940  0.92454  0.96277  1.0000
  C   C1103     1.0  0.41342  0.65326  0.84248  1.0000
  C   C1104     1.0  0.01775  0.94904  0.94417  1.0000
  C   C1105     1.0  0.44355  0.66930  0.84896  1.0000
  H   H1095     1.0  0.17372  0.82440  0.74881  1.0000
  C   C1106     1.0  0.46544  0.78380  0.90082  1.0000
  C   C1107     1.0  0.21312  0.87743  0.92635  1.0000
  C   C1108     1.0  0.20114  0.71749  0.75282  1.0000
  C   C1109     1.0  0.01710  0.80296  0.91546  1.0000
  C   C1110     1.0  0.23082  0.90731  0.93183  1.0000
  H   H1096     1.0  0.31012  0.70281  0.82809  1.0000
  Fe  Fe191     1.0  0.99875  0.68651  0.88795  1.0000
  H   H1097     1.0  0.38443  0.67702  0.83717  1.0000
  C   C1111     1.0  0.00053  0.79645  0.90927  1.0000
  H   H1098     1.0  0.03072  0.73800  0.93638  1.0000
  H   H1099     1.0  0.29864  0.72033  0.80453  1.0000
  H   H1100     1.0  0.25427  0.76218  0.85404  1.0000
  N   N91       1.0  0.23218  0.88687  0.92563  1.0000
  C   C1112     1.0  0.15519  0.77746  0.74383  1.0000
  H   H1101     1.0  0.07846  0.80307  0.83807  1.0000
  C   C1113     1.0  0.47333  0.95279  0.95406  1.0000
  N   N92       1.0  0.26417  0.73887  0.83946  1.0000
  N   N93       1.0  0.13929  0.82881  0.87300  1.0000
  C   C1114     1.0  0.12736  0.83852  0.88441  1.0000
  C   C1115     1.0  0.13476  0.80877  0.87067  1.0000
  C   C1116     1.0  0.11017  0.82829  0.89371  1.0000
  C   C1117     1.0  0.11771  0.79808  0.87977  1.0000
  C   C1118     1.0  0.10536  0.80794  0.89137  1.0000
  C   C1119     1.0  0.15772  0.83927  0.86354  1.0000
  H   H1102     1.0  0.13100  0.85429  0.88643  1.0000
  H   H1103     1.0  0.14437  0.80088  0.86173  1.0000
  H   H1104     1.0  0.10069  0.83610  0.90272  1.0000
  H   H1105     1.0  0.11424  0.78217  0.87785  1.0000
  H   H1106     1.0  0.09217  0.79980  0.89859  1.0000
  H   H1107     1.0  0.15652  0.85733  0.86444  1.0000
  H   H1108     1.0  0.17434  0.83035  0.86626  1.0000
  H   H1109     1.0  0.15729  0.83846  0.85214  1.0000
  C   C1120     1.0  0.27038  0.74261  0.81377  1.0000
  C   C1121     1.0  0.21406  0.85864  0.91980  1.0000
  N   N94       1.0  0.20945  0.74829  0.76222  1.0000
  H   H1110     1.0  0.05045  0.70275  0.92786  1.0000
  C   C1122     1.0  0.35291  0.96132  0.89216  1.0000
  H   H1111     1.0  0.39817  0.70322  0.80295  1.0000
  N   N95       1.0  0.04883  0.78793  0.83979  1.0000
  H   H1112     1.0  0.26484  0.75001  0.80361  1.0000
  S   S374      1.0  0.43558  0.82550  0.92940  1.0000
  C   C1123     1.0  0.30022  0.97457  0.87550  1.0000
  S   S375      1.0  0.28830  0.65966  0.84708  1.0000
  H   H1113     1.0  0.21488  0.91029  0.93949  1.0000
  C   C1124     1.0  0.06301  0.79858  0.84482  1.0000
  H   H1114     1.0  0.14601  0.75072  0.76081  1.0000
  C   C1125     1.0  0.03246  0.70773  0.92768  1.0000
  S   S376      1.0  0.34354  0.65857  0.78389  1.0000
  C   C1126     1.0  0.99728  0.70101  0.92233  1.0000
  H   H1115     1.0  0.43007  0.81208  0.86812  1.0000
  H   H1116     1.0  0.46992  0.94724  0.96551  1.0000
  C   C1127     1.0  0.25405  0.85908  0.91193  1.0000
  Fe  Fe192     1.0  0.47445  0.71611  0.85694  1.0000
  C   C1128     1.0  0.33691  0.94067  0.87773  1.0000
  S   S377      1.0  0.48124  0.78885  0.87168  1.0000
  H   H1117     1.0  0.19689  0.88481  0.93165  1.0000
  H   H1118     1.0  0.19902  0.75447  0.78357  1.0000
  C   C1129     1.0  0.46999  0.94881  0.92990  1.0000
  H   H1119     1.0  0.44018  0.76350  0.84818  1.0000
  C   C1130     1.0  0.00452  0.94123  0.95699  1.0000
  C   C1131     1.0  0.45504  0.79230  0.91346  1.0000
  H   H1120     1.0  0.32106  0.92363  0.86536  1.0000
  C   C1132     1.0  0.26838  0.67397  0.83605  1.0000
  H   H1121     1.0  0.04755  0.76828  0.82389  1.0000
  H   H1122     1.0  0.10382  0.87539  0.97125  1.0000
  H   H1123     1.0  0.46974  0.76584  0.90093  1.0000
  H   H1124     1.0  0.34527  0.96428  0.90321  1.0000
  S   S378      1.0  0.34660  0.65863  0.82297  1.0000
  H   H1125     1.0  0.10734  0.74509  0.72830  1.0000
  C   C1133     1.0  0.01065  0.96990  0.93635  1.0000
  H   H1126     1.0  0.45149  0.78077  0.92331  1.0000
  C   C1134     1.0  0.20246  0.73037  0.73916  1.0000
  C   C1135     1.0  0.02436  0.78607  0.86256  1.0000
  H   H1127     1.0  0.35088  0.92704  0.87883  1.0000
  C   C1136     1.0  0.21292  0.75755  0.77450  1.0000
  C   C1137     1.0  0.41312  0.75609  0.88945  1.0000
  C   C1138     1.0  0.39294  0.67499  0.79411  1.0000
  H   H1128     1.0  0.01855  0.77310  0.84449  1.0000
  H   H1129     1.0  0.28793  0.66418  0.81653  1.0000
  C   C1139     1.0  0.02119  0.72764  0.93247  1.0000
  C   C1140     1.0  0.32013  0.93866  0.87006  1.0000
  C   C1141     1.0  0.31724  0.97601  0.88314  1.0000
  N   N96       1.0  0.43095  0.65222  0.80563  1.0000
  H   H1130     1.0  0.43212  0.68283  0.81292  1.0000
  H   H1131     1.0  0.36547  0.94573  0.89333  1.0000
  H   H1132     1.0  0.99879  0.76664  0.93726  1.0000
  C   C1142     1.0  0.42352  0.67426  0.80709  1.0000
  H   H1133     1.0  0.19182  0.95161  0.83887  1.0000
  H   H1134     1.0  0.25824  0.96722  0.82094  1.0000
  C   C1143     1.0  0.47679  0.83050  0.96830  1.0000
  C   C1144     1.0  0.41538  0.82618  0.97087  1.0000
  S   S379      1.0  0.99695  0.68693  0.86481  1.0000
  H   H1135     1.0  0.37792  0.68370  0.78974  1.0000
  H   H1136     1.0  0.00926  0.78094  0.86943  1.0000
  H   H1137     1.0  0.19911  0.72368  0.73020  1.0000
  C   C1145     1.0  0.40430  0.68591  0.80148  1.0000
  H   H1138     1.0  0.00090  0.95234  0.90299  1.0000
  Fe  Fe193     1.0  0.49068  0.75197  0.86943  1.0000
  H   H1139     1.0  0.16547  0.80665  0.72950  1.0000
  C   C1146     1.0  0.99779  0.92560  0.92104  1.0000
  S   S380      1.0  0.00815  0.65394  0.90241  1.0000
  S   S381      1.0  0.49169  0.74618  0.84694  1.0000
  S   S382      1.0  0.14978  0.76400  0.73034  1.0000
  C   C1147     1.0  0.45631  0.82741  0.96483  1.0000
  H   H1140     1.0  0.02034  0.97572  0.92608  1.0000
  C   C1148     1.0  0.40081  0.65262  0.79252  1.0000
  S   S383      1.0  0.99331  0.89262  0.94479  1.0000
  H   H1141     1.0  0.49205  0.82958  0.96041  1.0000
  H   H1142     1.0  0.41037  0.80990  0.97662  1.0000
  S   S384      1.0  0.65655  0.02779  0.06632  1.0000
  Fe  Fe194     1.0  0.57476  0.04739  0.08505  1.0000
  S   S385      1.0  0.59688  0.06068  0.06507  1.0000
  S   S386      1.0  0.56347  0.06530  0.10436  1.0000
  Fe  Fe195     1.0  0.57754  0.04375  0.05342  1.0000
  S   S387      1.0  0.56241  0.05905  0.03331  1.0000
  Fe  Fe196     1.0  0.61878  0.02698  0.06882  1.0000
  S   S388      1.0  0.55306  0.03367  0.07322  1.0000
  S   S389      1.0  0.59738  0.01432  0.08930  1.0000
  Fe  Fe197     1.0  0.68610  0.28146  0.16598  1.0000
  S   S390      1.0  0.65716  0.26321  0.17709  1.0000
  S   S391      1.0  0.71807  0.26340  0.15466  1.0000
  S   S392      1.0  0.58590  0.00442  0.98130  1.0000
  C   C1149     1.0  0.67710  0.22618  0.15117  1.0000
  Fe  Fe198     1.0  0.65386  0.28627  0.19337  1.0000
  C   C1150     1.0  0.95750  0.14553  0.11903  1.0000
  Fe  Fe199     1.0  0.63555  0.29136  0.16506  1.0000
  S   S393      1.0  0.60860  0.28915  0.15202  1.0000
  H   H1143     1.0  0.52607  0.99499  0.03267  1.0000
  H   H1144     1.0  0.62420  0.19046  0.16336  1.0000
  S   S394      1.0  0.97190  0.18375  0.15563  1.0000
  Fe  Fe200     1.0  0.96487  0.08350  0.05185  1.0000
  S   S395      1.0  0.97335  0.05168  0.06684  1.0000
  H   H1145     1.0  0.54666  0.03689  0.99016  1.0000
  Fe  Fe201     1.0  0.95877  0.05774  0.02823  1.0000
  S   S396      1.0  0.96676  0.02387  0.04167  1.0000
  S   S397      1.0  0.95692  0.06490  0.00428  1.0000
  Fe  Fe202     1.0  0.94464  0.04011  0.05971  1.0000
  S   S398      1.0  0.92216  0.02150  0.07777  1.0000
  H   H1146     1.0  0.51640  0.07451  0.09928  1.0000
  S   S399      1.0  0.93453  0.07305  0.04588  1.0000
  Fe  Fe203     1.0  0.80062  0.16283  0.18389  1.0000
  S   S400      1.0  0.81157  0.12560  0.18953  1.0000
  S   S401      1.0  0.76549  0.17864  0.19241  1.0000
  Fe  Fe204     1.0  0.84762  0.17149  0.16939  1.0000
  S   S402      1.0  0.86263  0.13530  0.17412  1.0000
  S   S403      1.0  0.86615  0.19848  0.15551  1.0000
  Fe  Fe205     1.0  0.83156  0.12823  0.16732  1.0000
  S   S404      1.0  0.83883  0.10424  0.15123  1.0000
  Fe  Fe206     1.0  0.84151  0.13576  0.19594  1.0000
  S   S405      1.0  0.81787  0.16462  0.16107  1.0000
  S   S406      1.0  0.82932  0.17286  0.19177  1.0000
  Fe  Fe207     1.0  0.77861  0.01351  0.13446  1.0000
  C   C1151     1.0  0.98033  0.14744  0.06977  1.0000
  S   S407      1.0  0.77506  0.03212  0.15322  1.0000
  H   H1147     1.0  0.85695  0.05003  0.15542  1.0000
  C   C1152     1.0  0.63725  0.23218  0.13992  1.0000
  H   H1148     1.0  0.97545  0.14574  0.11532  1.0000
  C   C1153     1.0  0.65035  0.24959  0.13702  1.0000
  C   C1154     1.0  0.92095  0.03133  0.97790  1.0000
  S   S408      1.0  0.76385  0.02884  0.11442  1.0000
  Fe  Fe208     1.0  0.51703  0.18609  0.11999  1.0000
  S   S409      1.0  0.52333  0.16893  0.14192  1.0000
  S   S410      1.0  0.52819  0.16991  0.09992  1.0000
  Fe  Fe209     1.0  0.53086  0.20253  0.14471  1.0000
  S   S411      1.0  0.55967  0.20387  0.15656  1.0000
  S   S412      1.0  0.52719  0.21896  0.12213  1.0000
  C   C1155     1.0  0.81894  0.08663  0.15093  1.0000
  C   C1156     1.0  0.82215  0.07418  0.13966  1.0000
  C   C1157     1.0  0.80824  0.05796  0.13998  1.0000
  C   C1158     1.0  0.79114  0.05401  0.15165  1.0000
  C   C1159     1.0  0.78756  0.06689  0.16274  1.0000
  C   C1160     1.0  0.80131  0.08327  0.16235  1.0000
  H   H1149     1.0  0.83573  0.07673  0.13077  1.0000
  H   H1150     1.0  0.81108  0.04820  0.13135  1.0000
  H   H1151     1.0  0.77424  0.06400  0.17174  1.0000
  H   H1152     1.0  0.79867  0.09283  0.17106  1.0000
  C   C1161     1.0  0.89244  0.02603  0.07895  1.0000
  C   C1162     1.0  0.87924  0.02043  0.09232  1.0000
  C   C1163     1.0  0.85584  0.02075  0.09349  1.0000
  C   C1164     1.0  0.84539  0.02647  0.08126  1.0000
  C   C1165     1.0  0.85849  0.03261  0.06790  1.0000
  C   C1166     1.0  0.88196  0.03246  0.06673  1.0000
  H   H1153     1.0  0.88724  0.01547  0.10181  1.0000
  H   H1154     1.0  0.84599  0.01643  0.10385  1.0000
  H   H1155     1.0  0.64461  0.26561  0.13079  1.0000
  H   H1156     1.0  0.89202  0.03664  0.05635  1.0000
  C   C1167     1.0  0.91726  0.02618  0.99294  1.0000
  C   C1168     1.0  0.92904  0.03536  0.00123  1.0000
  C   C1169     1.0  0.94461  0.04980  0.99449  1.0000
  C   C1170     1.0  0.70829  0.01233  0.08959  1.0000
  H   H1157     1.0  0.90475  0.01554  0.99825  1.0000
  H   H1158     1.0  0.92548  0.03192  0.01281  1.0000
  C   C1171     1.0  0.94250  0.18861  0.15555  1.0000
  C   C1172     1.0  0.93314  0.20199  0.14400  1.0000
  C   C1173     1.0  0.90963  0.20522  0.14417  1.0000
  C   C1174     1.0  0.89544  0.19476  0.15575  1.0000
  C   C1175     1.0  0.90480  0.18125  0.16725  1.0000
  C   C1176     1.0  0.92826  0.17834  0.16719  1.0000
  H   H1159     1.0  0.94399  0.21005  0.13503  1.0000
  H   H1160     1.0  0.90246  0.21573  0.13526  1.0000
  H   H1161     1.0  0.89396  0.17321  0.17625  1.0000
  H   H1162     1.0  0.93544  0.16797  0.17613  1.0000
  C   C1177     1.0  0.66345  0.20921  0.15400  1.0000
  S   S413      1.0  0.98679  0.19733  0.11302  1.0000
  C   C1178     1.0  0.72997  0.23877  0.16489  1.0000
  C   C1179     1.0  0.74870  0.22506  0.15853  1.0000
  C   C1180     1.0  0.75960  0.20634  0.16683  1.0000
  C   C1181     1.0  0.75149  0.20103  0.18145  1.0000
  C   C1182     1.0  0.73228  0.21430  0.18767  1.0000
  C   C1183     1.0  0.72161  0.23322  0.17944  1.0000
  H   H1163     1.0  0.75512  0.22921  0.14724  1.0000
  H   H1164     1.0  0.77427  0.19608  0.16193  1.0000
  H   H1165     1.0  0.72589  0.21019  0.19898  1.0000
  H   H1166     1.0  0.70714  0.24368  0.18442  1.0000
  C   C1184     1.0  0.69933  0.99919  0.10217  1.0000
  S   S414      1.0  0.49475  0.21373  0.15376  1.0000
  H   H1167     1.0  0.91830  0.14980  0.14881  1.0000
  C   C1185     1.0  0.78662  0.23097  0.19229  1.0000
  C   C1186     1.0  0.59351  0.26617  0.15435  1.0000
  C   C1187     1.0  0.59656  0.24763  0.16514  1.0000
  C   C1188     1.0  0.58543  0.22899  0.16597  1.0000
  C   C1189     1.0  0.57124  0.22866  0.15604  1.0000
  C   C1190     1.0  0.56783  0.24740  0.14542  1.0000
  C   C1191     1.0  0.57893  0.26605  0.14460  1.0000
  H   H1168     1.0  0.60764  0.24756  0.17275  1.0000
  H   H1169     1.0  0.58794  0.21467  0.17432  1.0000
  H   H1170     1.0  0.55701  0.24732  0.13770  1.0000
  H   H1171     1.0  0.57650  0.28033  0.13622  1.0000
  C   C1192     1.0  0.67283  0.01613  0.08014  1.0000
  C   C1193     1.0  0.79737  0.25638  0.14775  1.0000
  C   C1194     1.0  0.84947  0.03904  0.16506  1.0000
  H   H1172     1.0  0.97276  0.16075  0.06222  1.0000
  H   H1173     1.0  0.76830  0.23304  0.19682  1.0000
  N   N97       1.0  0.64382  0.21234  0.14838  1.0000
  C   C1195     1.0  0.55663  0.09485  0.10255  1.0000
  C   C1196     1.0  0.55179  0.10492  0.11495  1.0000
  C   C1197     1.0  0.54388  0.12807  0.11419  1.0000
  C   C1198     1.0  0.54069  0.14136  0.10102  1.0000
  C   C1199     1.0  0.54625  0.13141  0.08854  1.0000
  C   C1200     1.0  0.55432  0.10823  0.08928  1.0000
  H   H1174     1.0  0.55366  0.09470  0.12525  1.0000
  H   H1175     1.0  0.72528  0.01625  0.08837  1.0000
  H   H1176     1.0  0.54394  0.14161  0.07829  1.0000
  H   H1177     1.0  0.55808  0.10064  0.07964  1.0000
  C   C1201     1.0  0.57817  0.01879  0.99613  1.0000
  C   C1202     1.0  0.59278  0.01511  0.00628  1.0000
  C   C1203     1.0  0.58771  0.02690  0.01795  1.0000
  C   C1204     1.0  0.56783  0.04227  0.01967  1.0000
  C   C1205     1.0  0.55284  0.04548  0.00973  1.0000
  C   C1206     1.0  0.55807  0.03390  0.99792  1.0000
  C   C1207     1.0  0.66398  0.00281  0.09267  1.0000
  H   H1178     1.0  0.59962  0.02462  0.02533  1.0000
  H   H1179     1.0  0.53743  0.05737  0.01099  1.0000
  C   C1208     1.0  0.94840  0.14808  0.13315  1.0000
  C   C1209     1.0  0.77512  0.25684  0.17127  1.0000
  C   C1210     1.0  0.51363  0.29470  0.11669  1.0000
  C   C1211     1.0  0.56983  0.09216  0.99503  1.0000
  C   C1212     1.0  0.69510  0.02067  0.07860  1.0000
  C   C1213     1.0  0.98812  0.10793  0.07933  1.0000
  S   S415      1.0  0.81637  0.02490  0.08222  1.0000
  N   N98       1.0  0.64073  0.06145  0.09963  1.0000
  C   C1214     1.0  0.62869  0.04866  0.11062  1.0000
  C   C1215     1.0  0.66338  0.06119  0.09924  1.0000
  C   C1216     1.0  0.63928  0.03550  0.12176  1.0000
  C   C1217     1.0  0.67444  0.04842  0.11026  1.0000
  C   C1218     1.0  0.66229  0.03549  0.12158  1.0000
  C   C1219     1.0  0.62963  0.07520  0.08797  1.0000
  H   H1180     1.0  0.61083  0.04842  0.11075  1.0000
  H   H1181     1.0  0.67311  0.07054  0.09020  1.0000
  H   H1182     1.0  0.82145  0.21775  0.17279  1.0000
  H   H1183     1.0  0.69254  0.04776  0.10977  1.0000
  H   H1184     1.0  0.61428  0.19897  0.14651  1.0000
  H   H1185     1.0  0.63311  0.09278  0.08633  1.0000
  H   H1186     1.0  0.63610  0.06813  0.07790  1.0000
  H   H1187     1.0  0.61094  0.07576  0.09028  1.0000
  H   H1188     1.0  0.50961  0.28810  0.09050  1.0000
  H   H1189     1.0  0.87191  0.06871  0.17124  1.0000
  H   H1190     1.0  0.60836  0.00343  0.00498  1.0000
  C   C1220     1.0  0.94342  0.14267  0.10979  1.0000
  Fe  Fe210     1.0  0.75011  0.99623  0.11695  1.0000
  Fe  Fe211     1.0  0.57775  0.00178  0.07544  1.0000
  H   H1191     1.0  0.86173  0.02361  0.16739  1.0000
  H   H1192     1.0  0.61581  0.04341  0.97975  1.0000
  H   H1193     1.0  0.69258  0.22379  0.15573  1.0000
  C   C1221     1.0  0.90310  0.09114  0.99289  1.0000
  H   H1194     1.0  0.49673  0.09789  0.14430  1.0000
  C   C1222     1.0  0.88735  0.07915  0.99000  1.0000
  C   C1223     1.0  0.50016  0.09299  0.12224  1.0000
  S   S416      1.0  0.68460  0.30230  0.18319  1.0000
  N   N99       1.0  0.91628  0.10283  0.98193  1.0000
  H   H1195     1.0  0.90537  0.09024  0.00393  1.0000
  S   S417      1.0  0.71434  0.98991  0.11682  1.0000
  H   H1196     1.0  0.87754  0.06923  0.99868  1.0000
  H   H1197     1.0  0.55395  0.98877  0.02260  1.0000
  C   C1224     1.0  0.49463  0.10569  0.13345  1.0000
  H   H1198     1.0  0.60186  0.07094  0.99581  1.0000
  H   H1199     1.0  0.53050  0.29652  0.11881  1.0000
  N   N100      1.0  0.49814  0.10300  0.10847  1.0000
  H   H1200     1.0  0.56899  0.09669  0.00555  1.0000
  H   H1201     1.0  0.79992  0.26259  0.13633  1.0000
  H   H1202     1.0  0.79275  0.21261  0.19433  1.0000
  H   H1203     1.0  0.51059  0.09924  0.08667  1.0000
  C   C1225     1.0  0.62984  0.19426  0.15161  1.0000
  H   H1204     1.0  0.83185  0.16019  0.22151  1.0000
  S   S418      1.0  0.64429  0.27515  0.21718  1.0000
  H   H1205     1.0  0.54368  0.99175  0.99950  1.0000
  C   C1226     1.0  0.81297  0.23921  0.15364  1.0000
  C   C1227     1.0  0.77836  0.26537  0.15661  1.0000
  Fe  Fe212     1.0  0.79609  0.01084  0.10323  1.0000
  S   S419      1.0  0.81162  0.99770  0.12314  1.0000
  H   H1206     1.0  0.75998  0.26355  0.17799  1.0000
  S   S420      1.0  0.96499  0.11891  0.05608  1.0000
  C   C1228     1.0  0.93352  0.11449  0.98498  1.0000
  H   H1207     1.0  0.85051  0.03716  0.05839  1.0000
  H   H1208     1.0  0.93227  0.11460  0.99666  1.0000
  C   C1229     1.0  0.80918  0.23108  0.16834  1.0000
  H   H1209     1.0  0.95067  0.10566  0.98134  1.0000
  H   H1210     1.0  0.63958  0.17884  0.14771  1.0000
  H   H1211     1.0  0.76579  0.27836  0.15212  1.0000
  H   H1212     1.0  0.68752  0.29165  0.21426  1.0000
  H   H1213     1.0  0.52785  0.99943  0.07202  1.0000
  S   S421      1.0  0.98816  0.07109  0.03308  1.0000
  H   H1214     1.0  0.62147  0.23492  0.13568  1.0000
  H   H1215     1.0  0.79567  0.23982  0.19802  1.0000
  H   H1216     1.0  0.82790  0.23209  0.14690  1.0000
  N   N101      1.0  0.84360  0.05092  0.17746  1.0000
  H   H1217     1.0  0.87706  0.15034  0.12487  1.0000
  C   C1230     1.0  0.88715  0.14553  0.13379  1.0000
  H   H1218     1.0  0.98664  0.09058  0.07930  1.0000
  C   C1231     1.0  0.97845  0.12496  0.06945  1.0000
  H   H1219     1.0  0.70213  0.03085  0.06890  1.0000
  S   S422      1.0  0.66489  0.30821  0.15271  1.0000
  C   C1232     1.0  0.67044  0.24650  0.14264  1.0000
  H   H1220     1.0  0.88058  0.15787  0.14128  1.0000
  H   H1221     1.0  0.50094  0.29643  0.12652  1.0000
  H   H1222     1.0  0.88411  0.12849  0.13945  1.0000
  N   N102      1.0  0.79023  0.23964  0.17690  1.0000
  S   S423      1.0  0.85510  0.11625  0.21578  1.0000
  H   H1223     1.0  0.95041  0.14044  0.09882  1.0000
  N   N103      1.0  0.91140  0.14571  0.12859  1.0000
  S   S424      1.0  0.60145  0.01130  0.05522  1.0000
  H   H1224     1.0  0.90946  0.14042  0.10754  1.0000
  H   H1225     1.0  0.51436  0.27731  0.11455  1.0000
  C   C1233     1.0  0.82501  0.04686  0.18747  1.0000
  C   C1234     1.0  0.85745  0.06513  0.17932  1.0000
  C   C1235     1.0  0.81981  0.05731  0.19969  1.0000
  C   C1236     1.0  0.85290  0.07564  0.19149  1.0000
  C   C1237     1.0  0.83398  0.07165  0.20173  1.0000
  H   H1226     1.0  0.53982  0.13548  0.12385  1.0000
  H   H1227     1.0  0.81386  0.03582  0.18589  1.0000
  H   H1228     1.0  0.64696  0.99902  0.09393  1.0000
  H   H1229     1.0  0.66858  0.19359  0.16082  1.0000
  H   H1230     1.0  0.86379  0.08704  0.19292  1.0000
  H   H1231     1.0  0.83017  0.08002  0.21111  1.0000
  H   H1232     1.0  0.83420  0.03425  0.16227  1.0000
  C   C1238     1.0  0.92521  0.14793  0.13781  1.0000
  C   C1239     1.0  0.92027  0.14272  0.11479  1.0000
  C   C1240     1.0  0.50340  0.08939  0.09691  1.0000
  H   H1233     1.0  0.80482  0.05443  0.20746  1.0000
  C   C1241     1.0  0.55199  0.10002  0.98726  1.0000
  H   H1234     1.0  0.68066  0.25995  0.14058  1.0000
  H   H1235     1.0  0.95925  0.15034  0.14041  1.0000
  C   C1242     1.0  0.67725  0.99423  0.10357  1.0000
  H   H1236     1.0  0.67099  0.02484  0.12987  1.0000
  H   H1237     1.0  0.62981  0.02509  0.13032  1.0000
  H   H1238     1.0  0.50668  0.07523  0.12455  1.0000
  N   N104      1.0  0.50703  0.31175  0.10471  1.0000
  C   C1243     1.0  0.68024  0.28903  0.22546  1.0000
  H   H1239     1.0  0.93178  0.13220  0.97944  1.0000
  S   S425      1.0  0.62963  0.31291  0.18229  1.0000
  C   C1244     1.0  0.50610  0.30565  0.09186  1.0000
  H   H1240     1.0  0.53732  0.11108  0.99156  1.0000
  C   C1245     1.0  0.94893  0.05423  0.97942  1.0000
  C   C1246     1.0  0.58838  0.07747  0.98949  1.0000
  H   H1241     1.0  0.49836  0.31697  0.07038  1.0000
  C   C1247     1.0  0.75658  0.05629  0.35235  1.0000
  H   H1242     1.0  0.76004  0.03256  0.33785  1.0000
  Fe  Fe213     1.0  0.64458  0.27563  0.30976  1.0000
  C   C1248     1.0  0.53537  0.26155  0.40158  1.0000
  S   S426      1.0  0.60670  0.28246  0.31612  1.0000
  Fe  Fe214     1.0  0.69026  0.24499  0.30827  1.0000
  S   S427      1.0  0.70995  0.27391  0.30112  1.0000
  S   S428      1.0  0.70658  0.20881  0.30859  1.0000
  Fe  Fe215     1.0  0.68479  0.29094  0.31763  1.0000
  Fe  Fe216     1.0  0.68396  0.28691  0.28638  1.0000
  Fe  Fe217     1.0  0.49929  0.23542  0.38140  1.0000
  S   S429      1.0  0.66727  0.26058  0.32601  1.0000
  S   S430      1.0  0.66565  0.25704  0.29269  1.0000
  S   S431      1.0  0.55418  0.20012  0.34221  1.0000
  C   C1249     1.0  0.57024  0.26290  0.36701  1.0000
  Fe  Fe218     1.0  0.84129  0.10200  0.31496  1.0000
  S   S432      1.0  0.86977  0.11546  0.29906  1.0000
  S   S433      1.0  0.83625  0.06586  0.31584  1.0000
  Fe  Fe219     1.0  0.82238  0.14792  0.32319  1.0000
  S   S434      1.0  0.84947  0.16499  0.30832  1.0000
  S   S435      1.0  0.79476  0.16858  0.33644  1.0000
  Fe  Fe220     1.0  0.84380  0.14459  0.29253  1.0000
  S   S436      1.0  0.83881  0.16399  0.27069  1.0000
  Fe  Fe221     1.0  0.87339  0.13481  0.31611  1.0000
  S   S437      1.0  0.90941  0.13564  0.31940  1.0000
  S   S438      1.0  0.81500  0.12972  0.30684  1.0000
  S   S439      1.0  0.84672  0.11907  0.33257  1.0000
  H   H1243     1.0  0.92905  0.18292  0.36921  1.0000
  S   S440      1.0  0.78933  0.00408  0.36965  1.0000
  C   C1250     1.0  0.56804  0.28556  0.36827  1.0000
  Fe  Fe222     1.0  0.97472  0.20929  0.35196  1.0000
  S   S441      1.0  0.94192  0.21337  0.34284  1.0000
  S   S442      1.0  0.97220  0.19670  0.37552  1.0000
  C   C1251     1.0  0.91840  0.15839  0.32475  1.0000
  C   C1252     1.0  0.94133  0.15707  0.32591  1.0000
  C   C1253     1.0  0.94884  0.17381  0.33135  1.0000
  C   C1254     1.0  0.93354  0.19234  0.33537  1.0000
  C   C1255     1.0  0.91074  0.19403  0.33376  1.0000
  C   C1256     1.0  0.90314  0.17705  0.32861  1.0000
  H   H1244     1.0  0.95330  0.14277  0.32288  1.0000
  H   H1245     1.0  0.96647  0.17240  0.33240  1.0000
  H   H1246     1.0  0.89881  0.20840  0.33675  1.0000
  H   H1247     1.0  0.88544  0.17833  0.32775  1.0000
  C   C1257     1.0  0.90733  0.13798  0.25671  1.0000
  H   H1248     1.0  0.80831  0.99609  0.34047  1.0000
  C   C1258     1.0  0.83409  0.16126  0.24345  1.0000
  C   C1259     1.0  0.84166  0.14957  0.25608  1.0000
  C   C1260     1.0  0.85269  0.12742  0.25644  1.0000
  C   C1261     1.0  0.85658  0.11723  0.24405  1.0000
  C   C1262     1.0  0.65970  0.28055  0.22971  1.0000
  H   H1249     1.0  0.82560  0.17842  0.24309  1.0000
  H   H1250     1.0  0.85860  0.11827  0.26614  1.0000
  H   H1251     1.0  0.86536  0.10019  0.24429  1.0000
  C   C1263     1.0  0.73078  0.19808  0.31666  1.0000
  C   C1264     1.0  0.74359  0.17784  0.31325  1.0000
  C   C1265     1.0  0.76343  0.16899  0.31906  1.0000
  C   C1266     1.0  0.77035  0.18002  0.32861  1.0000
  C   C1267     1.0  0.75735  0.20015  0.33221  1.0000
  C   C1268     1.0  0.73774  0.20936  0.32609  1.0000
  H   H1252     1.0  0.73821  0.16904  0.30600  1.0000
  H   H1253     1.0  0.77294  0.15331  0.31642  1.0000
  H   H1254     1.0  0.76254  0.20869  0.33967  1.0000
  H   H1255     1.0  0.72785  0.22496  0.32881  1.0000
  C   C1269     1.0  0.59217  0.25941  0.32281  1.0000
  C   C1270     1.0  0.60306  0.23737  0.32231  1.0000
  C   C1271     1.0  0.59116  0.21924  0.32816  1.0000
  C   C1272     1.0  0.56860  0.22308  0.33485  1.0000
  C   C1273     1.0  0.55778  0.24512  0.33546  1.0000
  C   C1274     1.0  0.56948  0.26326  0.32927  1.0000
  H   H1256     1.0  0.62057  0.23431  0.31733  1.0000
  H   H1257     1.0  0.59957  0.20219  0.32765  1.0000
  H   H1258     1.0  0.54039  0.24824  0.34057  1.0000
  H   H1259     1.0  0.56107  0.28032  0.32972  1.0000
  H   H1260     1.0  0.53803  0.25770  0.44242  1.0000
  C   C1275     1.0  0.68187  0.29127  0.25035  1.0000
  C   C1276     1.0  0.66145  0.28261  0.25457  1.0000
  N   N105      1.0  0.89698  0.15975  0.25679  1.0000
  H   H1261     1.0  0.53884  0.24513  0.39835  1.0000
  H   H1262     1.0  0.65373  0.28061  0.26569  1.0000
  C   C1277     1.0  0.54539  0.28884  0.41412  1.0000
  C   C1278     1.0  0.55003  0.26783  0.40939  1.0000
  H   H1263     1.0  0.56480  0.25617  0.41206  1.0000
  C   C1279     1.0  0.91812  0.16969  0.37044  1.0000
  H   H1264     1.0  0.75516  0.29120  0.33606  1.0000
  C   C1280     1.0  0.58997  0.25271  0.35937  1.0000
  C   C1281     1.0  0.97643  0.26965  0.39471  1.0000
  Fe  Fe223     1.0  0.50406  0.18448  0.38890  1.0000
  H   H1265     1.0  0.53662  0.17799  0.32223  1.0000
  H   H1266     1.0  0.98956  0.19059  0.40472  1.0000
  H   H1267     1.0  0.87275  0.18440  0.24691  1.0000
  H   H1268     1.0  0.96744  0.26912  0.41753  1.0000
  C   C1282     1.0  0.53321  0.19132  0.31298  1.0000
  S   S443      1.0  0.50456  0.99606  0.43558  1.0000
  C   C1283     1.0  0.80536  0.01952  0.35508  1.0000
  C   C1284     1.0  0.80997  0.04061  0.35659  1.0000
  C   C1285     1.0  0.82022  0.05469  0.34479  1.0000
  C   C1286     1.0  0.82593  0.04777  0.33136  1.0000
  C   C1287     1.0  0.82203  0.02637  0.32996  1.0000
  C   C1288     1.0  0.81180  0.01226  0.34177  1.0000
  H   H1269     1.0  0.80510  0.04627  0.36689  1.0000
  H   H1270     1.0  0.82327  0.07106  0.34602  1.0000
  H   H1271     1.0  0.82646  0.02087  0.31960  1.0000
  C   C1289     1.0  0.77666  0.08424  0.32920  1.0000
  C   C1290     1.0  0.51159  0.29748  0.40284  1.0000
  C   C1291     1.0  0.90501  0.15829  0.28054  1.0000
  S   S444      1.0  0.51043  0.15493  0.40626  1.0000
  N   N106      1.0  0.60495  0.28767  0.35423  1.0000
  H   H1272     1.0  0.99007  0.14925  0.41157  1.0000
  H   H1273     1.0  0.54414  0.20436  0.31243  1.0000
  C   C1292     1.0  0.91577  0.13617  0.28049  1.0000
  S   S445      1.0  0.68767  0.30842  0.33592  1.0000
  H   H1274     1.0  0.96214  0.15421  0.36978  1.0000
  H   H1275     1.0  0.54238  0.21770  0.44036  1.0000
  H   H1276     1.0  0.75678  0.08247  0.36435  1.0000
  H   H1277     1.0  0.91155  0.16496  0.38197  1.0000
  C   C1293     1.0  0.51597  0.27632  0.39836  1.0000
  H   H1278     1.0  0.77875  0.23714  0.28490  1.0000
  H   H1279     1.0  0.92469  0.10849  0.26859  1.0000
  S   S446      1.0  0.98306  0.24005  0.39634  1.0000
  H   H1280     1.0  0.51362  0.22349  0.32832  1.0000
  S   S447      1.0  0.56288  0.29470  0.42536  1.0000
  C   C1294     1.0  0.73159  0.29270  0.35567  1.0000
  H   H1281     1.0  0.90375  0.16622  0.28993  1.0000
  H   H1282     1.0  0.92447  0.31254  0.37967  1.0000
  S   S448      1.0  0.52949  0.20847  0.38194  1.0000
  H   H1283     1.0  0.79233  0.11654  0.33758  1.0000
  C   C1295     1.0  0.62281  0.30092  0.34687  1.0000
  H   H1284     1.0  0.90145  0.18251  0.23729  1.0000
  N   N107      1.0  0.77127  0.09084  0.34240  1.0000
  H   H1285     1.0  0.74959  0.04505  0.36159  1.0000
  H   H1286     1.0  0.90382  0.17750  0.36457  1.0000
  C   C1296     1.0  0.97327  0.30687  0.38035  1.0000
  C   C1297     1.0  0.91678  0.12584  0.26858  1.0000
  C   C1298     1.0  0.77598  0.11279  0.34414  1.0000
  H   H1287     1.0  0.62199  0.25771  0.34641  1.0000
  H   H1288     1.0  0.63465  0.27057  0.24768  1.0000
  Fe  Fe224     1.0  0.52478  0.20614  0.35970  1.0000
  C   C1299     1.0  0.49419  0.19283  0.30897  1.0000
  C   C1300     1.0  0.51941  0.25834  0.44340  1.0000
  H   H1289     1.0  0.98436  0.27588  0.37171  1.0000
  C   C1301     1.0  0.72396  0.30404  0.36742  1.0000
  H   H1290     1.0  0.59159  0.23527  0.35796  1.0000
  N   N108      1.0  0.51409  0.24222  0.43544  1.0000
  H   H1291     1.0  0.51052  0.10888  0.41971  1.0000
  H   H1292     1.0  0.88394  0.16152  0.23734  1.0000
  C   C1302     1.0  0.69134  0.29425  0.23577  1.0000
  H   H1293     1.0  0.75238  0.23398  0.29682  1.0000
  C   C1303     1.0  0.77241  0.06334  0.32730  1.0000
  C   C1304     1.0  0.89568  0.16992  0.26851  1.0000
  H   H1294     1.0  0.76229  0.12631  0.34081  1.0000
  H   H1295     1.0  0.77782  0.05771  0.31699  1.0000
  H   H1296     1.0  0.88714  0.18703  0.26866  1.0000
  C   C1305     1.0  0.49317  0.11628  0.41889  1.0000
  C   C1306     1.0  0.60717  0.26548  0.35291  1.0000
  H   H1297     1.0  0.96415  0.09751  0.34908  1.0000
  H   H1298     1.0  0.55269  0.29363  0.37416  1.0000
  N   N109      1.0  0.93077  0.14986  0.36454  1.0000
  C   C1307     1.0  0.91973  0.13680  0.35889  1.0000
  C   C1308     1.0  0.95339  0.14404  0.36519  1.0000
  C   C1309     1.0  0.93153  0.11773  0.35330  1.0000
  C   C1310     1.0  0.96572  0.12511  0.35971  1.0000
  C   C1311     1.0  0.95471  0.11196  0.35365  1.0000
  C   C1312     1.0  0.96898  0.27964  0.40712  1.0000
  S   S449      1.0  0.49633  0.23493  0.35846  1.0000
  C   C1313     1.0  0.96363  0.30319  0.40615  1.0000
  H   H1299     1.0  0.92287  0.10805  0.34823  1.0000
  C   C1314     1.0  0.58563  0.29781  0.36172  1.0000
  S   S450      1.0  0.66085  0.30678  0.30220  1.0000
  C   C1315     1.0  0.52747  0.22174  0.43515  1.0000
  C   C1316     1.0  0.74974  0.29926  0.34552  1.0000
  H   H1300     1.0  0.55649  0.25337  0.37171  1.0000
  N   N110      1.0  0.76438  0.20871  0.28346  1.0000
  C   C1317     1.0  0.78078  0.19094  0.28063  1.0000
  C   C1318     1.0  0.74461  0.21204  0.27797  1.0000
  C   C1319     1.0  0.77744  0.17571  0.27230  1.0000
  C   C1320     1.0  0.74063  0.19705  0.26969  1.0000
  C   C1321     1.0  0.75720  0.17880  0.26683  1.0000
  C   C1322     1.0  0.76854  0.22478  0.29187  1.0000
  H   H1301     1.0  0.77747  0.11331  0.35542  1.0000
  H   H1302     1.0  0.73155  0.22611  0.28020  1.0000
  H   H1303     1.0  0.79053  0.16166  0.27010  1.0000
  H   H1304     1.0  0.72472  0.19958  0.26561  1.0000
  H   H1305     1.0  0.75438  0.16710  0.26037  1.0000
  H   H1306     1.0  0.90186  0.14152  0.35818  1.0000
  H   H1307     1.0  0.77762  0.21589  0.30083  1.0000
  H   H1308     1.0  0.79657  0.18840  0.28486  1.0000
  C   C1323     1.0  0.83774  0.15100  0.23116  1.0000
  S   S451      1.0  0.69495  0.30004  0.26289  1.0000
  H   H1309     1.0  0.78509  0.09471  0.32015  1.0000
  C   C1324     1.0  0.76101  0.07734  0.35386  1.0000
  C   C1325     1.0  0.65052  0.27713  0.24430  1.0000
  H   H1310     1.0  0.92287  0.12693  0.28984  1.0000
  H   H1311     1.0  0.53294  0.18962  0.42763  1.0000
  C   C1326     1.0  0.88845  0.17271  0.24393  1.0000
  C   C1327     1.0  0.52621  0.30374  0.41068  1.0000
  H   H1312     1.0  0.70922  0.29947  0.37491  1.0000
  S   S452      1.0  0.50220  0.17954  0.36666  1.0000
  C   C1328     1.0  0.76244  0.04925  0.33899  1.0000
  H   H1313     1.0  0.72275  0.27966  0.35405  1.0000
  C   C1329     1.0  0.52227  0.20582  0.42801  1.0000
  H   H1314     1.0  0.90815  0.12984  0.24748  1.0000
  H   H1315     1.0  0.53840  0.18406  0.30290  1.0000
  H   H1316     1.0  0.98376  0.12089  0.36006  1.0000
  H   H1317     1.0  0.51271  0.27594  0.43906  1.0000
  H   H1318     1.0  0.97703  0.99491  0.40506  1.0000
  H   H1319     1.0  0.49903  0.19870  0.41567  1.0000
  C   C1330     1.0  0.50177  0.21746  0.32330  1.0000
  N   N111      1.0  0.50921  0.20104  0.31490  1.0000
  C   C1331     1.0  0.50318  0.21091  0.42125  1.0000
  H   H1320     1.0  0.95802  0.31072  0.41577  1.0000
  C   C1332     1.0  0.49526  0.24730  0.42887  1.0000
  H   H1321     1.0  0.49992  0.17929  0.30270  1.0000
  H   H1322     1.0  0.62065  0.30668  0.33547  1.0000
  H   H1323     1.0  0.58363  0.31550  0.36256  1.0000
  H   H1324     1.0  0.63986  0.29077  0.34715  1.0000
  S   S453      1.0  0.49616  0.26866  0.38947  1.0000
  C   C1333     1.0  0.97850  0.28336  0.38132  1.0000
  H   H1325     1.0  0.61423  0.31296  0.23280  1.0000
  H   H1326     1.0  0.51207  0.25465  0.45489  1.0000
  C   C1334     1.0  0.84921  0.12904  0.23134  1.0000
  H   H1327     1.0  0.70712  0.30097  0.23241  1.0000
  H   H1328     1.0  0.49660  0.30901  0.40039  1.0000
  H   H1329     1.0  0.89866  0.30601  0.40274  1.0000
  C   C1335     1.0  0.76013  0.31692  0.34726  1.0000
  H   H1330     1.0  0.62256  0.31587  0.35195  1.0000
  H   H1331     1.0  0.49263  0.13166  0.37940  1.0000
  H   H1332     1.0  0.97509  0.31736  0.36994  1.0000
  C   C1336     1.0  0.96578  0.31686  0.39274  1.0000
  Fe  Fe225     1.0  0.81431  0.26860  0.70917  1.0000
  S   S454      1.0  0.78955  0.26210  0.69615  1.0000
  Fe  Fe226     1.0  0.85509  0.25536  0.68713  1.0000
  S   S455      1.0  0.83388  0.24748  0.67260  1.0000
  S   S456      1.0  0.89329  0.25097  0.68269  1.0000
  Fe  Fe227     1.0  0.81134  0.27932  0.67732  1.0000
  S   S457      1.0  0.79868  0.30096  0.65792  1.0000
  Fe  Fe228     1.0  0.81405  0.23101  0.69252  1.0000
  S   S458      1.0  0.80512  0.19640  0.69377  1.0000
  S   S459      1.0  0.83406  0.28870  0.69049  1.0000
  S   S460      1.0  0.83725  0.23601  0.70693  1.0000
  C   C1337     1.0  0.52403  0.28037  0.64069  1.0000
  H   H1333     1.0  0.71011  0.02001  0.67742  1.0000
  Fe  Fe229     1.0  0.70487  0.15784  0.67186  1.0000
  S   S461      1.0  0.72411  0.12447  0.67960  1.0000
  S   S462      1.0  0.72009  0.19012  0.66600  1.0000
  Fe  Fe230     1.0  0.66059  0.13884  0.67607  1.0000
  S   S463      1.0  0.67647  0.10401  0.68487  1.0000
  S   S464      1.0  0.62304  0.14428  0.67489  1.0000
  Fe  Fe231     1.0  0.69426  0.12160  0.69712  1.0000
  Fe  Fe232     1.0  0.70475  0.11006  0.66665  1.0000
  S   S465      1.0  0.72262  0.08490  0.65212  1.0000
  S   S466      1.0  0.67583  0.15583  0.69003  1.0000
  S   S467      1.0  0.68800  0.14394  0.65715  1.0000
  H   H1334     1.0  0.53230  0.27233  0.64980  1.0000
  Fe  Fe233     1.0  0.54512  0.19317  0.61620  1.0000
  S   S468      1.0  0.53893  0.20260  0.59338  1.0000
  S   S469      1.0  0.58266  0.18623  0.61762  1.0000
  C   C1338     1.0  0.63740  0.07625  0.64104  1.0000
  H   H1335     1.0  0.98849  0.12400  0.57818  1.0000
  Fe  Fe234     1.0  0.50952  0.18317  0.60001  1.0000
  Fe  Fe235     1.0  0.49479  0.20327  0.62732  1.0000
  Fe  Fe236     1.0  0.51549  0.23210  0.60082  1.0000
  S   S470      1.0  0.51532  0.26736  0.58832  1.0000
  S   S471      1.0  0.51756  0.17132  0.62235  1.0000
  S   S472      1.0  0.52307  0.22398  0.62327  1.0000
  N   N112      1.0  0.63613  0.09236  0.64943  1.0000
  C   C1339     1.0  0.76890  0.00260  0.63908  1.0000
  H   H1336     1.0  0.57829  0.26934  0.55542  1.0000
  H   H1337     1.0  0.98898  0.27700  0.56267  1.0000
  C   C1340     1.0  0.57277  0.28486  0.59620  1.0000
  C   C1341     1.0  0.55479  0.27298  0.59666  1.0000
  C   C1342     1.0  0.53831  0.28161  0.58788  1.0000
  C   C1343     1.0  0.53984  0.30225  0.57876  1.0000
  C   C1344     1.0  0.84656  0.18470  0.66428  1.0000
  H   H1338     1.0  0.58551  0.27805  0.60299  1.0000
  H   H1339     1.0  0.55368  0.25719  0.60382  1.0000
  H   H1340     1.0  0.53181  0.04899  0.57191  1.0000
  C   C1345     1.0  0.73836  0.99771  0.65883  1.0000
  H   H1341     1.0  0.99018  0.99320  0.57409  1.0000
  C   C1346     1.0  0.70811  0.06377  0.64975  1.0000
  C   C1347     1.0  0.71711  0.05086  0.63882  1.0000
  C   C1348     1.0  0.70650  0.03308  0.63719  1.0000
  C   C1349     1.0  0.68666  0.02838  0.64639  1.0000
  C   C1350     1.0  0.67751  0.04149  0.65717  1.0000
  C   C1351     1.0  0.68823  0.05910  0.65888  1.0000
  H   H1342     1.0  0.73240  0.05455  0.63164  1.0000
  H   H1343     1.0  0.66208  0.03797  0.66425  1.0000
  H   H1344     1.0  0.68117  0.06890  0.66734  1.0000
  C   C1352     1.0  0.61197  0.15684  0.65903  1.0000
  C   C1353     1.0  0.62603  0.16390  0.64634  1.0000
  C   C1354     1.0  0.61678  0.17284  0.63375  1.0000
  C   C1355     1.0  0.59338  0.17503  0.63376  1.0000
  C   C1356     1.0  0.57927  0.16816  0.64646  1.0000
  C   C1357     1.0  0.58857  0.15905  0.65904  1.0000
  H   H1345     1.0  0.64403  0.16253  0.64620  1.0000
  H   H1346     1.0  0.62781  0.17813  0.62397  1.0000
  H   H1347     1.0  0.56123  0.16976  0.64659  1.0000
  H   H1348     1.0  0.57757  0.15365  0.66883  1.0000
  H   H1349     1.0  0.92570  0.18668  0.67999  1.0000
  H   H1350     1.0  0.49895  0.25745  0.66108  1.0000
  H   H1351     1.0  0.88961  0.19927  0.69520  1.0000
  C   C1358     1.0  0.88938  0.19273  0.68549  1.0000
  C   C1359     1.0  0.78243  0.19487  0.68512  1.0000
  C   C1360     1.0  0.76976  0.21431  0.67878  1.0000
  C   C1361     1.0  0.75086  0.21263  0.67275  1.0000
  C   C1362     1.0  0.74443  0.19158  0.67313  1.0000
  C   C1363     1.0  0.75733  0.17219  0.67931  1.0000
  C   C1364     1.0  0.77636  0.17381  0.68518  1.0000
  H   H1352     1.0  0.77439  0.23064  0.67860  1.0000
  H   H1353     1.0  0.74107  0.22771  0.66789  1.0000
  H   H1354     1.0  0.75277  0.15589  0.67951  1.0000
  H   H1355     1.0  0.78613  0.15871  0.69002  1.0000
  H   H1356     1.0  0.76984  0.16124  0.72255  1.0000
  H   H1357     1.0  0.71345  0.02323  0.62871  1.0000
  C   C1365     1.0  0.90912  0.17831  0.66415  1.0000
  H   H1358     1.0  0.52204  0.01008  0.57805  1.0000
  H   H1359     1.0  0.60869  0.07996  0.66449  1.0000
  C   C1366     1.0  0.90777  0.24100  0.66690  1.0000
  C   C1367     1.0  0.89622  0.23839  0.65616  1.0000
  C   C1368     1.0  0.90803  0.22878  0.64422  1.0000
  C   C1369     1.0  0.93145  0.22170  0.64295  1.0000
  C   C1370     1.0  0.94310  0.22478  0.65352  1.0000
  C   C1371     1.0  0.93129  0.23451  0.66541  1.0000
  H   H1360     1.0  0.87820  0.24357  0.65707  1.0000
  H   H1361     1.0  0.89893  0.22646  0.63607  1.0000
  H   H1362     1.0  0.96105  0.21902  0.65280  1.0000
  H   H1363     1.0  0.94033  0.23642  0.67370  1.0000
  H   H1364     1.0  0.83760  0.17183  0.67183  1.0000
  H   H1365     1.0  0.72635  0.04209  0.67613  1.0000
  C   C1372     1.0  0.86882  0.19217  0.68113  1.0000
  S   S473      1.0  0.94533  0.20770  0.62858  1.0000
  N   N113      1.0  0.86844  0.18511  0.66851  1.0000
  H   H1366     1.0  0.84840  0.18091  0.65324  1.0000
  C   C1373     1.0  0.53507  0.29532  0.62996  1.0000
  H   H1367     1.0  0.50829  0.98750  0.51997  1.0000
  H   H1368     1.0  0.50861  0.07918  0.58479  1.0000
  C   C1374     1.0  0.58715  0.25994  0.56398  1.0000
  H   H1369     1.0  0.73513  0.01466  0.68596  1.0000
  C   C1375     1.0  0.57469  0.30518  0.58677  1.0000
  H   H1370     1.0  0.78520  0.03158  0.63792  1.0000
  C   C1376     1.0  0.71879  0.16798  0.71150  1.0000
  H   H1371     1.0  0.67924  0.19232  0.70841  1.0000
  N   N114      1.0  0.60847  0.23688  0.58680  1.0000
  H   H1372     1.0  0.92482  0.17355  0.65718  1.0000
  H   H1373     1.0  0.70710  0.15804  0.70937  1.0000
  C   C1377     1.0  0.51751  0.04523  0.58009  1.0000
  C   C1378     1.0  0.90963  0.18569  0.67695  1.0000
  C   C1379     1.0  0.88825  0.17819  0.66004  1.0000
  C   C1380     1.0  0.75845  0.02856  0.65611  1.0000
  H   H1374     1.0  0.97298  0.27159  0.62092  1.0000
  H   H1375     1.0  0.85314  0.19769  0.68782  1.0000
  C   C1381     1.0  0.52471  0.30553  0.61812  1.0000
  S   S474      1.0  0.67206  0.00722  0.64427  1.0000
  C   C1382     1.0  0.58017  0.24008  0.57180  1.0000
  C   C1383     1.0  0.61545  0.25636  0.57918  1.0000
  H   H1376     1.0  0.63469  0.23108  0.59982  1.0000
  H   H1377     1.0  0.61002  0.28398  0.56198  1.0000
  H   H1378     1.0  0.62381  0.09758  0.67094  1.0000
  H   H1379     1.0  0.97217  0.31249  0.61253  1.0000
  H   H1380     1.0  0.88809  0.17289  0.64992  1.0000
  H   H1381     1.0  0.60497  0.10996  0.65824  1.0000
  C   C1384     1.0  0.65196  0.10658  0.64656  1.0000
  C   C1385     1.0  0.66988  0.10466  0.63521  1.0000
  C   C1386     1.0  0.65513  0.07381  0.62961  1.0000
  C   C1387     1.0  0.67147  0.08811  0.62671  1.0000
  H   H1382     1.0  0.65094  0.11927  0.65324  1.0000
  H   H1383     1.0  0.68281  0.11550  0.63328  1.0000
  H   H1384     1.0  0.65657  0.06043  0.62335  1.0000
  H   H1385     1.0  0.68568  0.08598  0.61815  1.0000
  H   H1386     1.0  0.62853  0.26348  0.58234  1.0000
  C   C1388     1.0  0.77223  0.02181  0.64382  1.0000
  H   H1387     1.0  0.58537  0.21346  0.58945  1.0000
  C   C1389     1.0  0.59112  0.22868  0.58323  1.0000
  H   H1388     1.0  0.93951  0.30841  0.57779  1.0000
  N   N115      1.0  0.50312  0.27595  0.63969  1.0000
  H   H1389     1.0  0.85014  0.31239  0.64873  1.0000
  C   C1390     1.0  0.75191  0.99046  0.64663  1.0000
  H   H1390     1.0  0.60649  0.22834  0.60933  1.0000
  C   C1391     1.0  0.94630  0.30052  0.58750  1.0000
  C   C1392     1.0  0.96508  0.27969  0.61166  1.0000
  H   H1391     1.0  0.72490  0.98834  0.66447  1.0000
  C   C1393     1.0  0.51204  0.02345  0.58351  1.0000
  C   C1394     1.0  0.72768  0.02363  0.67639  1.0000
  H   H1392     1.0  0.98040  0.14635  0.56400  1.0000
  S   S475      1.0  0.70414  0.10965  0.71919  1.0000
  H   H1393     1.0  0.83568  0.20130  0.66465  1.0000
  N   N116      1.0  0.71429  0.19095  0.70914  1.0000
  H   H1394     1.0  0.62209  0.20685  0.59938  1.0000
  N   N117      1.0  0.74164  0.01664  0.66336  1.0000
  H   H1395     1.0  0.74196  0.13866  0.71838  1.0000
  C   C1395     1.0  0.61744  0.09500  0.66133  1.0000
  H   H1396     1.0  0.56589  0.23393  0.56932  1.0000
  H   H1397     1.0  0.62499  0.06482  0.64334  1.0000
  C   C1396     1.0  0.55802  0.31396  0.57814  1.0000
  C   C1397     1.0  0.60502  0.26807  0.56760  1.0000
  C   C1398     1.0  0.61854  0.22532  0.59942  1.0000
  C   C1399     1.0  0.74967  0.19299  0.71620  1.0000
  C   C1400     1.0  0.94645  0.27738  0.59205  1.0000
  C   C1401     1.0  0.72965  0.20348  0.71112  1.0000
  H   H1398     1.0  0.93971  0.26751  0.58602  1.0000
  H   H1399     1.0  0.76081  0.04380  0.65955  1.0000
  H   H1400     1.0  0.55167  0.29879  0.63070  1.0000
  Fe  Fe237     1.0  0.98359  0.20302  0.62431  1.0000
  H   H1401     1.0  0.76207  0.20294  0.71743  1.0000
  C   C1402     1.0  0.75409  0.16955  0.71899  1.0000
  N   N118      1.0  0.95537  0.31289  0.59486  1.0000
  H   H1402     1.0  0.95624  0.24899  0.60784  1.0000
  C   C1403     1.0  0.49333  0.01903  0.59394  1.0000
  C   C1404     1.0  0.96461  0.30280  0.60683  1.0000
  C   C1405     1.0  0.95584  0.26696  0.60424  1.0000
  H   H1403     1.0  0.69596  0.20361  0.69193  1.0000
  H   H1404     1.0  0.72665  0.22167  0.70857  1.0000
  H   H1405     1.0  0.68812  0.21915  0.70678  1.0000
  H   H1406     1.0  0.77934  0.99710  0.62954  1.0000
  C   C1406     1.0  0.50378  0.30033  0.61696  1.0000
  C   C1407     1.0  0.73861  0.15692  0.71657  1.0000
  H   H1407     1.0  0.52705  0.30908  0.57201  1.0000
  S   S476      1.0  0.50519  0.16058  0.58460  1.0000
  C   C1408     1.0  0.69339  0.20210  0.70379  1.0000
  C   C1409     1.0  0.50452  0.06216  0.58728  1.0000
  H   H1408     1.0  0.49608  0.30738  0.60746  1.0000
  H   H1409     1.0  0.49700  0.13152  0.56653  1.0000
  H   H1410     1.0  0.66331  0.14213  0.72354  1.0000
  C   C1410     1.0  0.49318  0.28541  0.62790  1.0000
  H   H1411     1.0  0.49272  0.24393  0.64748  1.0000
  H   H1412     1.0  0.53322  0.31691  0.60961  1.0000
  Fe  Fe238     1.0  0.85211  0.28342  0.83081  1.0000
  S   S477      1.0  0.87293  0.27933  0.84862  1.0000
  Fe  Fe239     1.0  0.80597  0.27834  0.82447  1.0000
  S   S478      1.0  0.77750  0.25795  0.83325  1.0000
  S   S479      1.0  0.84084  0.25918  0.81958  1.0000
  H   H1413     1.0  0.57670  0.13915  0.88572  1.0000
  H   H1414     1.0  0.84829  0.26941  0.73036  1.0000
  S   S480      1.0  0.53033  0.03005  0.96419  1.0000
  Fe  Fe240     1.0  0.56936  0.00764  0.93158  1.0000
  S   S481      1.0  0.57850  0.03390  0.94199  1.0000
  H   H1415     1.0  0.67921  0.03627  0.81272  1.0000
  Fe  Fe241     1.0  0.56616  0.01310  0.96285  1.0000
  Fe  Fe242     1.0  0.54198  0.04939  0.94250  1.0000
  C   C1411     1.0  0.63248  0.98615  0.89731  1.0000
  H   H1416     1.0  0.92512  0.11170  0.95931  1.0000
  S   S482      1.0  0.53353  0.02459  0.93037  1.0000
  H   H1417     1.0  0.54120  0.17709  0.83702  1.0000
  Fe  Fe243     1.0  0.71283  0.14261  0.80845  1.0000
  S   S483      1.0  0.67575  0.14280  0.80883  1.0000
  S   S484      1.0  0.73873  0.11252  0.81436  1.0000
  Fe  Fe244     1.0  0.71000  0.19312  0.79854  1.0000
  S   S485      1.0  0.67261  0.19756  0.79827  1.0000
  S   S486      1.0  0.72894  0.22289  0.79070  1.0000
  Fe  Fe245     1.0  0.67098  0.17378  0.81908  1.0000
  S   S487      1.0  0.64702  0.17798  0.83972  1.0000
  Fe  Fe246     1.0  0.68060  0.16638  0.78793  1.0000
  S   S488      1.0  0.66253  0.16605  0.76948  1.0000
  S   S489      1.0  0.70785  0.17188  0.82024  1.0000
  S   S490      1.0  0.71813  0.16369  0.78662  1.0000
  S   S491      1.0  0.52777  0.20513  0.88196  1.0000
  Fe  Fe247     1.0  0.52045  0.22279  0.86026  1.0000
  S   S492      1.0  0.54603  0.22700  0.84000  1.0000
  S   S493      1.0  0.80824  0.30382  0.80434  1.0000
  S   S494      1.0  0.70447  0.01930  0.83820  1.0000
  S   S495      1.0  0.73331  0.00304  0.87212  1.0000
  Fe  Fe248     1.0  0.88036  0.02225  0.92009  1.0000
  S   S496      1.0  0.90916  0.03106  0.90277  1.0000
  S   S497      1.0  0.84735  0.01016  0.91826  1.0000
  Fe  Fe249     1.0  0.90656  0.02750  0.94379  1.0000
  S   S498      1.0  0.93716  0.03654  0.92820  1.0000
  S   S499      1.0  0.53567  0.08748  0.93990  1.0000
  Fe  Fe250     1.0  0.91206  0.05819  0.91507  1.0000
  S   S500      1.0  0.91852  0.09203  0.90192  1.0000
  Fe  Fe251     1.0  0.93203  0.00893  0.91724  1.0000
  H   H1418     1.0  0.78808  0.28699  0.75976  1.0000
  S   S501      1.0  0.88137  0.05120  0.93150  1.0000
  S   S502      1.0  0.90333  0.99805  0.93376  1.0000
  Fe  Fe252     1.0  0.50148  0.23270  0.89031  1.0000
  H   H1419     1.0  0.50322  0.28447  0.88420  1.0000
  S   S503      1.0  0.96805  0.21725  0.85188  1.0000
  S   S504      1.0  0.79948  0.27932  0.73072  1.0000
  Fe  Fe253     1.0  0.98608  0.21429  0.87092  1.0000
  C   C1412     1.0  0.60872  0.05548  0.97094  1.0000
  C   C1413     1.0  0.52351  0.12799  0.92342  1.0000
  H   H1420     1.0  0.88345  0.98691  0.89972  1.0000
  C   C1414     1.0  0.84290  0.01077  0.88967  1.0000
  C   C1415     1.0  0.93606  0.10873  0.90667  1.0000
  C   C1416     1.0  0.93587  0.11054  0.92098  1.0000
  C   C1417     1.0  0.94710  0.12672  0.92429  1.0000
  C   C1418     1.0  0.95867  0.14110  0.91335  1.0000
  C   C1419     1.0  0.95957  0.13867  0.89908  1.0000
  C   C1420     1.0  0.94835  0.12252  0.89577  1.0000
  H   H1421     1.0  0.92643  0.10003  0.92944  1.0000
  C   C1421     1.0  0.81231  0.99583  0.88264  1.0000
  H   H1422     1.0  0.94870  0.12114  0.88468  1.0000
  C   C1422     1.0  0.91705  0.18741  0.90560  1.0000
  H   H1423     1.0  0.96846  0.14955  0.89056  1.0000
  H   H1424     1.0  0.94016  0.04917  0.95959  1.0000
  C   C1423     1.0  0.83431  0.00502  0.90420  1.0000
  C   C1424     1.0  0.69270  0.12583  0.73293  1.0000
  S   S505      1.0  0.49663  0.25178  0.86856  1.0000
  H   H1425     1.0  0.94648  0.12846  0.93534  1.0000
  H   H1426     1.0  0.51372  0.16018  0.91073  1.0000
  H   H1427     1.0  0.70550  0.02015  0.80666  1.0000
  C   C1425     1.0  0.91545  0.16026  0.86834  1.0000
  S   S506      1.0  0.79901  0.99103  0.86862  1.0000
  C   C1426     1.0  0.81944  0.28264  0.76807  1.0000
  C   C1427     1.0  0.72876  0.08730  0.82282  1.0000
  C   C1428     1.0  0.74434  0.06807  0.82628  1.0000
  C   C1429     1.0  0.73691  0.04723  0.83182  1.0000
  C   C1430     1.0  0.71390  0.04555  0.83360  1.0000
  C   C1431     1.0  0.69830  0.06486  0.83045  1.0000
  C   C1432     1.0  0.70568  0.08572  0.82522  1.0000
  H   H1428     1.0  0.76225  0.06916  0.82431  1.0000
  H   H1429     1.0  0.74906  0.03232  0.83414  1.0000
  H   H1430     1.0  0.68046  0.06362  0.83187  1.0000
  H   H1431     1.0  0.69355  0.10041  0.82268  1.0000
  C   C1433     1.0  0.61959  0.19317  0.83957  1.0000
  C   C1434     1.0  0.60522  0.19490  0.85266  1.0000
  C   C1435     1.0  0.58274  0.20563  0.85294  1.0000
  C   C1436     1.0  0.57459  0.21495  0.84012  1.0000
  C   C1437     1.0  0.58919  0.21381  0.82703  1.0000
  C   C1438     1.0  0.61162  0.20281  0.82674  1.0000
  H   H1432     1.0  0.61135  0.18758  0.86262  1.0000
  H   H1433     1.0  0.57173  0.20664  0.86306  1.0000
  H   H1434     1.0  0.58295  0.22100  0.81708  1.0000
  H   H1435     1.0  0.62253  0.20148  0.81659  1.0000
  H   H1436     1.0  0.65423  0.24866  0.80321  1.0000
  S   S507      1.0  0.97043  0.16278  0.91790  1.0000
  C   C1439     1.0  0.66348  0.15305  0.74361  1.0000
  C   C1440     1.0  0.67495  0.15106  0.75529  1.0000
  C   C1441     1.0  0.69563  0.13683  0.75558  1.0000
  C   C1442     1.0  0.70430  0.12397  0.74454  1.0000
  H   H1437     1.0  0.64747  0.16405  0.74333  1.0000
  H   H1438     1.0  0.70479  0.13564  0.76435  1.0000
  H   H1439     1.0  0.72011  0.11268  0.74493  1.0000
  C   C1443     1.0  0.52550  0.10449  0.92475  1.0000
  C   C1444     1.0  0.51929  0.09515  0.91410  1.0000
  H   H1440     1.0  0.52826  0.13534  0.93162  1.0000
  H   H1441     1.0  0.91545  0.15306  0.85885  1.0000
  S   S508      1.0  0.90400  0.02135  0.96806  1.0000
  H   H1442     1.0  0.73518  0.04117  0.80012  1.0000
  C   C1445     1.0  0.54981  0.16045  0.85759  1.0000
  H   H1443     1.0  0.66888  0.07323  0.79366  1.0000
  H   H1444     1.0  0.87379  0.06902  0.97341  1.0000
  C   C1446     1.0  0.51526  0.14210  0.91159  1.0000
  C   C1447     1.0  0.77186  0.04632  0.87184  1.0000
  C   C1448     1.0  0.57181  0.07869  0.96879  1.0000
  H   H1445     1.0  0.89730  0.15237  0.90416  1.0000
  C   C1449     1.0  0.51090  0.10926  0.90232  1.0000
  C   C1450     1.0  0.49623  0.27922  0.90722  1.0000
  H   H1446     1.0  0.60396  0.04505  0.96397  1.0000
  Fe  Fe254     1.0  0.72392  0.99330  0.85301  1.0000
  C   C1451     1.0  0.76487  0.24795  0.82113  1.0000
  C   C1452     1.0  0.75312  0.22954  0.82605  1.0000
  C   C1453     1.0  0.74209  0.22166  0.81680  1.0000
  C   C1454     1.0  0.74245  0.23240  0.80262  1.0000
  C   C1455     1.0  0.75431  0.25075  0.79765  1.0000
  C   C1456     1.0  0.76566  0.25840  0.80685  1.0000
  H   H1447     1.0  0.75253  0.22137  0.83709  1.0000
  H   H1448     1.0  0.73316  0.20744  0.82071  1.0000
  H   H1449     1.0  0.75483  0.25901  0.78663  1.0000
  H   H1450     1.0  0.77467  0.27262  0.80297  1.0000
  C   C1457     1.0  0.84302  0.27763  0.76513  1.0000
  C   C1458     1.0  0.85334  0.27280  0.75150  1.0000
  H   H1451     1.0  0.69777  0.23102  0.85433  1.0000
  H   H1452     1.0  0.52074  0.07708  0.91503  1.0000
  H   H1453     1.0  0.53293  0.16506  0.86320  1.0000
  Fe  Fe255     1.0  0.98762  0.18792  0.90068  1.0000
  H   H1454     1.0  0.72410  0.11139  0.78312  1.0000
  C   C1459     1.0  0.67590  0.22499  0.84062  1.0000
  C   C1460     1.0  0.55429  0.16694  0.84273  1.0000
  N   N119      1.0  0.70122  0.05504  0.79723  1.0000
  C   C1461     1.0  0.89938  0.26200  0.84918  1.0000
  C   C1462     1.0  0.90919  0.24889  0.83854  1.0000
  C   C1463     1.0  0.93035  0.23536  0.83943  1.0000
  C   C1464     1.0  0.94183  0.23490  0.85092  1.0000
  C   C1465     1.0  0.93198  0.24801  0.86154  1.0000
  C   C1466     1.0  0.91083  0.26147  0.86067  1.0000
  H   H1455     1.0  0.90050  0.24919  0.82964  1.0000
  H   H1456     1.0  0.93790  0.22526  0.83117  1.0000
  H   H1457     1.0  0.94072  0.24795  0.87036  1.0000
  H   H1458     1.0  0.90337  0.27161  0.86892  1.0000
  H   H1459     1.0  0.89652  0.13613  0.88268  1.0000
  N   N120      1.0  0.79929  0.21781  0.77763  1.0000
  C   C1467     1.0  0.79021  0.20569  0.79015  1.0000
  C   C1468     1.0  0.81801  0.22763  0.77712  1.0000
  C   C1469     1.0  0.79877  0.20469  0.80284  1.0000
  C   C1470     1.0  0.82694  0.22710  0.78960  1.0000
  C   C1471     1.0  0.81698  0.21585  0.80258  1.0000
  C   C1472     1.0  0.78934  0.21968  0.76461  1.0000
  H   H1460     1.0  0.77569  0.19741  0.79051  1.0000
  H   H1461     1.0  0.82591  0.23624  0.76704  1.0000
  H   H1462     1.0  0.79088  0.19591  0.81288  1.0000
  H   H1463     1.0  0.84133  0.23558  0.78923  1.0000
  H   H1464     1.0  0.82330  0.21584  0.81243  1.0000
  H   H1465     1.0  0.77062  0.22044  0.76726  1.0000
  H   H1466     1.0  0.79250  0.23543  0.75710  1.0000
  H   H1467     1.0  0.79660  0.20504  0.75908  1.0000
  C   C1473     1.0  0.71771  0.09549  0.78673  1.0000
  N   N121      1.0  0.56659  0.14886  0.86498  1.0000
  C   C1474     1.0  0.58789  0.14293  0.85786  1.0000
  C   C1475     1.0  0.59293  0.14904  0.84298  1.0000
  C   C1476     1.0  0.57600  0.16119  0.83541  1.0000
  C   C1477     1.0  0.56136  0.14196  0.88052  1.0000
  H   H1468     1.0  0.60126  0.13383  0.86368  1.0000
  H   H1469     1.0  0.61007  0.14514  0.83744  1.0000
  H   H1470     1.0  0.57988  0.16680  0.82395  1.0000
  H   H1471     1.0  0.54916  0.15518  0.88554  1.0000
  H   H1472     1.0  0.55365  0.12625  0.88289  1.0000
  C   C1478     1.0  0.72379  0.05592  0.79630  1.0000
  H   H1473     1.0  0.73784  0.03117  0.91148  1.0000
  C   C1479     1.0  0.73559  0.06417  0.86554  1.0000
  C   C1480     1.0  0.55299  0.09335  0.97403  1.0000
  H   H1474     1.0  0.77112  0.02768  0.89309  1.0000
  H   H1475     1.0  0.79003  0.04186  0.86894  1.0000
  H   H1476     1.0  0.96100  0.06533  0.97413  1.0000
  H   H1477     1.0  0.70700  0.05891  0.88194  1.0000
  C   C1481     1.0  0.83199  0.00617  0.87900  1.0000
  C   C1482     1.0  0.68677  0.07390  0.79287  1.0000
  H   H1478     1.0  0.68320  0.10945  0.78433  1.0000
  H   H1479     1.0  0.72313  0.01623  0.90248  1.0000
  N   N122      1.0  0.91655  0.17796  0.89276  1.0000
  C   C1483     1.0  0.62993  0.99077  0.92202  1.0000
  H   H1480     1.0  0.71075  0.04373  0.90671  1.0000
  H   H1481     1.0  0.57238  0.07363  0.95848  1.0000
  H   H1482     1.0  0.85782  0.01898  0.88663  1.0000
  H   H1483     1.0  0.53924  0.09932  0.96784  1.0000
  C   C1484     1.0  0.93717  0.04504  0.97115  1.0000
  C   C1485     1.0  0.92686  0.18746  0.87970  1.0000
  H   H1484     1.0  0.66185  0.98743  0.92955  1.0000
  C   C1486     1.0  0.72529  0.05579  0.87930  1.0000
  H   H1485     1.0  0.93507  0.18613  0.85703  1.0000
  C   C1487     1.0  0.75903  0.05936  0.86182  1.0000
  C   C1488     1.0  0.84020  0.27311  0.74085  1.0000
  Fe  Fe256     1.0  0.52528  0.00374  0.95203  1.0000
  C   C1489     1.0  0.61925  0.99009  0.91045  1.0000
  C   C1490     1.0  0.90463  0.15093  0.88165  1.0000
  N   N123      1.0  0.73805  0.04315  0.88912  1.0000
  S   S509      1.0  0.81676  0.30043  0.83742  1.0000
  C   C1491     1.0  0.81664  0.27836  0.74376  1.0000
  H   H1486     1.0  0.91533  0.17455  0.91542  1.0000
  H   H1487     1.0  0.93435  0.99320  0.88581  1.0000
  C   C1492     1.0  0.92654  0.17872  0.86732  1.0000
  H   H1488     1.0  0.83880  0.01076  0.86781  1.0000
  H   H1489     1.0  0.68453  0.02853  0.79493  1.0000
  H   H1490     1.0  0.93568  0.20172  0.87880  1.0000
  C   C1493     1.0  0.69218  0.03397  0.80309  1.0000
  H   H1491     1.0  0.90331  0.20188  0.90669  1.0000
  S   S510      1.0  0.85848  0.30818  0.81068  1.0000
  C   C1494     1.0  0.50880  0.13276  0.90105  1.0000
  Fe  Fe257     1.0  0.84366  0.28580  0.80000  1.0000
  H   H1492     1.0  0.76720  0.06537  0.85111  1.0000
  H   H1493     1.0  0.50599  0.10191  0.89418  1.0000
  H   H1494     1.0  0.72543  0.07384  0.85767  1.0000
  C   C1495     1.0  0.69477  0.09442  0.78758  1.0000
  C   C1496     1.0  0.76104  0.03828  0.88551  1.0000
  C   C1497     1.0  0.80632  0.28306  0.75741  1.0000
  C   C1498     1.0  0.67243  0.14066  0.73240  1.0000
  S   S511      1.0  0.86006  0.27757  0.77810  1.0000
  H   H1495     1.0  0.66902  0.21147  0.84825  1.0000
  H   H1496     1.0  0.68365  0.24666  0.79523  1.0000
  C   C1499     1.0  0.66885  0.23138  0.82721  1.0000
  C   C1500     1.0  0.69196  0.23596  0.84403  1.0000
  H   H1497     1.0  0.65640  0.22269  0.82468  1.0000
  S   S512      1.0  0.96221  0.98603  0.90779  1.0000
  C   C1501     1.0  0.72690  0.03313  0.90313  1.0000
  N   N124      1.0  0.67760  0.24822  0.81746  1.0000
  C   C1502     1.0  0.70082  0.25308  0.83402  1.0000
  C   C1503     1.0  0.67054  0.25442  0.80329  1.0000
  C   C1504     1.0  0.69364  0.25881  0.82062  1.0000
  H   H1498     1.0  0.71374  0.26137  0.83643  1.0000
  H   H1499     1.0  0.66818  0.27297  0.80001  1.0000
  H   H1500     1.0  0.75008  0.07704  0.79081  1.0000
  C   C1505     1.0  0.90520  0.16016  0.89381  1.0000
  S   S513      1.0  0.96858  0.22155  0.89259  1.0000
  H   H1501     1.0  0.87158  0.26881  0.74916  1.0000
  C   C1506     1.0  0.73237  0.07613  0.79099  1.0000
  H   H1502     1.0  0.81125  0.28612  0.77854  1.0000
  H   H1503     1.0  0.70128  0.27150  0.81268  1.0000
  H   H1504     1.0  0.95599  0.00661  0.95520  1.0000
  H   H1505     1.0  0.93357  0.19315  0.90503  1.0000
  C   C1507     1.0  0.89870  0.09107  0.96470  1.0000
  C   C1508     1.0  0.81461  0.99470  0.90783  1.0000
  S   S514      1.0  0.56050  0.98524  0.95239  1.0000
  H   H1506     1.0  0.61989  0.99368  0.93222  1.0000
  S   S515      1.0  0.49236  0.20365  0.85984  1.0000
  C   C1509     1.0  0.91426  0.10291  0.96798  1.0000
  H   H1507     1.0  0.90970  0.99197  0.87822  1.0000
  C   C1510     1.0  0.80371  0.99008  0.89716  1.0000
  H   H1508     1.0  0.62197  0.06530  0.96466  1.0000
  H   H1509     1.0  0.95263  0.98653  0.97115  1.0000
  S   S516      1.0  0.58950  0.99333  0.91221  1.0000
  H   H1510     1.0  0.98450  0.99851  0.93507  1.0000
  H   H1511     1.0  0.89756  0.09058  0.95364  1.0000
  S   S517      1.0  0.50210  0.24960  0.90925  1.0000
  Fe  Fe258     1.0  0.49827  0.18759  0.88210  1.0000
  H   H1512     1.0  0.80778  0.99013  0.91902  1.0000
  S   S518      1.0  0.49861  0.14986  0.88594  1.0000
  C   C1511     1.0  0.95607  0.98837  0.95926  1.0000
  C   C1512     1.0  0.49757  0.29235  0.89363  1.0000
  C   C1513     1.0  0.65371  0.98724  0.92049  1.0000
  H   H1513     1.0  0.50032  0.99093  0.92957  1.0000
  H   H1514     1.0  0.54385  0.98518  0.90454  1.0000
  H   H1515     1.0  0.62432  0.98576  0.88830  1.0000
  C   C1514     1.0  0.88523  0.07907  0.97581  1.0000
  H   H1516     1.0  0.84949  0.31615  0.86346  1.0000
  H   H1517     1.0  0.88136  0.31686  0.76065  1.0000
  N   N125      1.0  0.58902  0.07068  0.97662  1.0000
  Fe  Fe259     1.0  0.55394  0.53073  0.03435  1.0000
  S   S519      1.0  0.55828  0.49914  0.05027  1.0000
  S   S520      1.0  0.54624  0.52545  0.01325  1.0000
  Fe  Fe260     1.0  0.55536  0.56046  0.05646  1.0000
  S   S521      1.0  0.55896  0.53119  0.07422  1.0000
  S   S522      1.0  0.55706  0.59607  0.05915  1.0000
  Fe  Fe261     1.0  0.58408  0.51471  0.05755  1.0000
  S   S523      1.0  0.61914  0.49593  0.05978  1.0000
  Fe  Fe262     1.0  0.53284  0.51834  0.06527  1.0000
  S   S524      1.0  0.58206  0.54475  0.04016  1.0000
  S   S525      1.0  0.52700  0.54926  0.04894  1.0000
  H   H1518     1.0  0.60116  0.34060  0.22524  1.0000
  H   H1519     1.0  0.53368  0.46625  0.07255  1.0000
  C   C1515     1.0  0.62216  0.50705  0.00022  1.0000
  S   S526      1.0  0.71204  0.62622  0.14971  1.0000
  S   S527      1.0  0.67308  0.62879  0.18763  1.0000
  H   H1520     1.0  0.76095  0.60287  0.15345  1.0000
  C   C1516     1.0  0.96890  0.47082  0.07672  1.0000
  Fe  Fe263     1.0  0.75019  0.49717  0.10785  1.0000
  S   S528      1.0  0.75483  0.47868  0.12982  1.0000
  S   S529      1.0  0.78057  0.50150  0.09038  1.0000
  Fe  Fe264     1.0  0.69853  0.50094  0.11478  1.0000
  S   S530      1.0  0.69948  0.48270  0.13721  1.0000
  S   S531      1.0  0.66307  0.51449  0.11014  1.0000
  Fe  Fe265     1.0  0.72571  0.50413  0.13749  1.0000
  S   S532      1.0  0.72316  0.52024  0.15715  1.0000
  Fe  Fe266     1.0  0.72810  0.45904  0.12748  1.0000
  S   S533      1.0  0.73292  0.42088  0.13191  1.0000
  S   S534      1.0  0.72289  0.52415  0.11566  1.0000
  S   S535      1.0  0.72537  0.47573  0.10485  1.0000
  S   S536      1.0  0.65794  0.36529  0.16975  1.0000
  Fe  Fe267     1.0  0.89160  0.55471  0.08187  1.0000
  S   S537      1.0  0.91999  0.53631  0.09344  1.0000
  S   S538      1.0  0.85628  0.55814  0.09481  1.0000
  Fe  Fe268     1.0  0.92387  0.56453  0.05388  1.0000
  S   S539      1.0  0.95466  0.54697  0.06333  1.0000
  S   S540      1.0  0.92737  0.57955  0.03043  1.0000
  Fe  Fe269     1.0  0.93275  0.52067  0.07363  1.0000
  S   S541      1.0  0.94209  0.48360  0.07263  1.0000
  Fe  Fe270     1.0  0.93915  0.56472  0.08220  1.0000
  S   S542      1.0  0.95999  0.57839  0.09516  1.0000
  S   S543      1.0  0.90291  0.53701  0.06282  1.0000
  S   S544      1.0  0.90978  0.58432  0.07196  1.0000
  C   C1517     1.0  0.64145  0.43015  0.13028  1.0000
  C   C1518     1.0  0.97776  0.44934  0.07331  1.0000
  C   C1519     1.0  0.93439  0.55978  0.01855  1.0000
  C   C1520     1.0  0.93831  0.56724  0.00372  1.0000
  C   C1521     1.0  0.94153  0.55190  0.99403  1.0000
  C   C1522     1.0  0.94089  0.52906  0.99919  1.0000
  C   C1523     1.0  0.93774  0.52152  0.01401  1.0000
  C   C1524     1.0  0.93454  0.53683  0.02367  1.0000
  H   H1521     1.0  0.93845  0.58496  0.99971  1.0000
  C   C1525     1.0  0.61722  0.50126  0.97691  1.0000
  H   H1522     1.0  0.93710  0.50388  0.01803  1.0000
  H   H1523     1.0  0.93154  0.53094  0.03506  1.0000
  C   C1526     1.0  0.96217  0.60723  0.09376  1.0000
  C   C1527     1.0  0.97160  0.61407  0.10423  1.0000
  C   C1528     1.0  0.85976  0.49972  0.11320  1.0000
  C   C1529     1.0  0.88874  0.48595  0.09421  1.0000
  C   C1530     1.0  0.60413  0.49538  0.00640  1.0000
  C   C1531     1.0  0.95677  0.62296  0.08188  1.0000
  H   H1524     1.0  0.50090  0.50817  0.02978  1.0000
  C   C1532     1.0  0.97535  0.48957  0.03861  1.0000
  H   H1525     1.0  0.94952  0.61790  0.07373  1.0000
  H   H1526     1.0  0.88136  0.59319  0.01485  1.0000
  H   H1527     1.0  0.65911  0.37442  0.13573  1.0000
  H   H1528     1.0  0.97497  0.49855  0.08565  1.0000
  C   C1533     1.0  0.80071  0.51863  0.09111  1.0000
  C   C1534     1.0  0.82107  0.51740  0.08140  1.0000
  C   C1535     1.0  0.83812  0.52973  0.08222  1.0000
  C   C1536     1.0  0.83478  0.54362  0.09267  1.0000
  C   C1537     1.0  0.81417  0.54532  0.10213  1.0000
  C   C1538     1.0  0.79723  0.53277  0.10143  1.0000
  H   H1529     1.0  0.82379  0.50656  0.07336  1.0000
  H   H1530     1.0  0.85383  0.52842  0.07483  1.0000
  H   H1531     1.0  0.81143  0.55612  0.11020  1.0000
  H   H1532     1.0  0.78156  0.53393  0.10891  1.0000
  C   C1539     1.0  0.71251  0.40562  0.14317  1.0000
  C   C1540     1.0  0.69308  0.41639  0.15084  1.0000
  C   C1541     1.0  0.67668  0.40375  0.15917  1.0000
  C   C1542     1.0  0.67955  0.38031  0.15984  1.0000
  C   C1543     1.0  0.69899  0.36951  0.15222  1.0000
  C   C1544     1.0  0.71544  0.38214  0.14395  1.0000
  H   H1533     1.0  0.69064  0.43445  0.15032  1.0000
  H   H1534     1.0  0.66165  0.41222  0.16502  1.0000
  H   H1535     1.0  0.70134  0.35146  0.15264  1.0000
  H   H1536     1.0  0.73042  0.37371  0.13802  1.0000
  C   C1545     1.0  0.71301  0.59694  0.15142  1.0000
  C   C1546     1.0  0.72476  0.58581  0.14015  1.0000
  C   C1547     1.0  0.72712  0.56228  0.14158  1.0000
  C   C1548     1.0  0.71765  0.54979  0.15428  1.0000
  C   C1549     1.0  0.70531  0.56099  0.16538  1.0000
  C   C1550     1.0  0.70308  0.58449  0.16399  1.0000
  H   H1537     1.0  0.73252  0.59534  0.13040  1.0000
  H   H1538     1.0  0.73694  0.55377  0.13304  1.0000
  H   H1539     1.0  0.69797  0.55137  0.17522  1.0000
  H   H1540     1.0  0.69412  0.59280  0.17278  1.0000
  C   C1551     1.0  0.63082  0.49836  0.07476  1.0000
  C   C1552     1.0  0.61762  0.50858  0.08597  1.0000
  C   C1553     1.0  0.62761  0.51222  0.09719  1.0000
  C   C1554     1.0  0.65089  0.50580  0.09726  1.0000
  C   C1555     1.0  0.66401  0.49459  0.08643  1.0000
  C   C1556     1.0  0.65394  0.49088  0.07518  1.0000
  H   H1541     1.0  0.59977  0.51405  0.08589  1.0000
  H   H1542     1.0  0.61734  0.52072  0.10562  1.0000
  H   H1543     1.0  0.68201  0.48961  0.08637  1.0000
  H   H1544     1.0  0.66421  0.48279  0.06657  1.0000
  C   C1557     1.0  0.54535  0.60506  0.07568  1.0000
  Fe  Fe271     1.0  0.69626  0.64348  0.16869  1.0000
  C   C1558     1.0  0.49461  0.43822  0.03749  1.0000
  C   C1559     1.0  0.52413  0.62180  0.10102  1.0000
  C   C1560     1.0  0.52212  0.60007  0.09913  1.0000
  C   C1561     1.0  0.53259  0.59175  0.08646  1.0000
  H   H1545     1.0  0.68673  0.39347  0.11951  1.0000
  H   H1546     1.0  0.87375  0.56827  0.03795  1.0000
  H   H1547     1.0  0.53036  0.57525  0.08494  1.0000
  C   C1562     1.0  0.50250  0.45760  0.03910  1.0000
  C   C1563     1.0  0.57825  0.55054  0.99688  1.0000
  C   C1564     1.0  0.56152  0.53741  0.99710  1.0000
  C   C1565     1.0  0.55769  0.53236  0.98422  1.0000
  H   H1548     1.0  0.74842  0.53245  0.18001  1.0000
  H   H1549     1.0  0.58127  0.55456  0.00678  1.0000
  C   C1566     1.0  0.49992  0.32190  0.08039  1.0000
  H   H1550     1.0  0.81822  0.46339  0.10647  1.0000
  H   H1551     1.0  0.63464  0.38567  0.12703  1.0000
  H   H1552     1.0  0.96657  0.50395  0.04408  1.0000
  C   C1567     1.0  0.64544  0.38900  0.13429  1.0000
  C   C1568     1.0  0.50219  0.33389  0.10644  1.0000
  H   H1553     1.0  0.75122  0.62251  0.16552  1.0000
  H   H1554     1.0  0.63942  0.46648  0.12612  1.0000
  H   H1555     1.0  0.50567  0.42218  0.03799  1.0000
  H   H1556     1.0  0.94423  0.55780  0.98261  1.0000
  C   C1569     1.0  0.67717  0.35308  0.21978  1.0000
  H   H1557     1.0  0.77906  0.60603  0.16574  1.0000
  H   H1558     1.0  0.51186  0.58988  0.10732  1.0000
  N   N126      1.0  0.65468  0.40999  0.12847  1.0000
  S   S545      1.0  0.94276  0.50966  0.98749  1.0000
  H   H1559     1.0  0.62442  0.43063  0.13623  1.0000
  H   H1560     1.0  0.72682  0.54139  0.20341  1.0000
  C   C1570     1.0  0.64760  0.34435  0.20905  1.0000
  H   H1561     1.0  0.85673  0.46241  0.09231  1.0000
  H   H1562     1.0  0.52921  0.42738  0.07078  1.0000
  C   C1571     1.0  0.96159  0.64508  0.08025  1.0000
  S   S546      1.0  0.50789  0.63288  0.11601  1.0000
  H   H1563     1.0  0.97575  0.60201  0.11348  1.0000
  H   H1564     1.0  0.63063  0.51419  0.00690  1.0000
  H   H1565     1.0  0.54482  0.52216  0.98434  1.0000
  H   H1566     1.0  0.87341  0.52759  0.03835  1.0000
  C   C1572     1.0  0.98173  0.48202  0.08293  1.0000
  H   H1567     1.0  0.88097  0.51239  0.01534  1.0000
  Fe  Fe272     1.0  0.66072  0.32755  0.17090  1.0000
  C   C1573     1.0  0.53760  0.63475  0.09044  1.0000
  H   H1568     1.0  0.89541  0.46948  0.09056  1.0000
  H   H1569     1.0  0.69309  0.35932  0.21877  1.0000
  C   C1574     1.0  0.62881  0.51000  0.98538  1.0000
  H   H1570     1.0  0.67837  0.46549  0.11279  1.0000
  H   H1571     1.0  0.51993  0.45639  0.04063  1.0000
  C   C1575     1.0  0.54825  0.62635  0.07784  1.0000
  H   H1572     1.0  0.50294  0.33873  0.11661  1.0000
  C   C1576     1.0  0.64975  0.45043  0.12461  1.0000
  C   C1577     1.0  0.61963  0.63745  0.14080  1.0000
  C   C1578     1.0  0.49610  0.35058  0.09515  1.0000
  N   N127      1.0  0.63703  0.33584  0.22230  1.0000
  C   C1579     1.0  0.83011  0.47307  0.10874  1.0000
  C   C1580     1.0  0.67607  0.40940  0.12082  1.0000
  H   H1573     1.0  0.64257  0.60473  0.15774  1.0000
  N   N128      1.0  0.88507  0.56707  0.00226  1.0000
  H   H1574     1.0  0.83279  0.51189  0.12917  1.0000
  H   H1575     1.0  0.60774  0.62694  0.14732  1.0000
  H   H1576     1.0  0.96783  0.44058  0.06856  1.0000
  H   H1577     1.0  0.49973  0.62615  0.06444  1.0000
  C   C1581     1.0  0.88049  0.53020  0.01531  1.0000
  H   H1578     1.0  0.87080  0.51108  0.11451  1.0000
  H   H1579     1.0  0.87320  0.58946  0.98466  1.0000
  C   C1582     1.0  0.51439  0.43988  0.07249  1.0000
  H   H1580     1.0  0.88761  0.49918  0.08466  1.0000
  C   C1583     1.0  0.88066  0.57560  0.01484  1.0000
  C   C1584     1.0  0.83824  0.50031  0.12151  1.0000
  H   H1581     1.0  0.80629  0.48782  0.12519  1.0000
  H   H1582     1.0  0.66455  0.62033  0.15814  1.0000
  S   S547      1.0  0.50061  0.50581  0.07695  1.0000
  C   C1585     1.0  0.51696  0.46191  0.07340  1.0000
  C   C1586     1.0  0.88477  0.54472  0.00235  1.0000
  H   H1583     1.0  0.64049  0.34438  0.19951  1.0000
  H   H1584     1.0  0.64240  0.51958  0.98038  1.0000
  C   C1587     1.0  0.85183  0.47274  0.10071  1.0000
  H   H1585     1.0  0.63528  0.38992  0.14511  1.0000
  H   H1586     1.0  0.67634  0.35929  0.19700  1.0000
  H   H1587     1.0  0.55827  0.63664  0.06956  1.0000
  C   C1588     1.0  0.66788  0.35293  0.20758  1.0000
  H   H1588     1.0  0.90141  0.48938  0.10019  1.0000
  H   H1589     1.0  0.70220  0.42880  0.10946  1.0000
  N   N129      1.0  0.64832  0.55522  0.07495  1.0000
  C   C1589     1.0  0.64056  0.56302  0.08768  1.0000
  C   C1590     1.0  0.63381  0.55576  0.06554  1.0000
  C   C1591     1.0  0.61759  0.57111  0.09143  1.0000
  C   C1592     1.0  0.61080  0.56396  0.06890  1.0000
  C   C1593     1.0  0.60265  0.57155  0.08195  1.0000
  C   C1594     1.0  0.67250  0.54715  0.07108  1.0000
  H   H1590     1.0  0.65201  0.56230  0.09523  1.0000
  H   H1591     1.0  0.63984  0.54936  0.05551  1.0000
  H   H1592     1.0  0.61136  0.57666  0.10171  1.0000
  H   H1593     1.0  0.59928  0.56422  0.06150  1.0000
  H   H1594     1.0  0.58476  0.57760  0.08473  1.0000
  H   H1595     1.0  0.68130  0.56119  0.06493  1.0000
  H   H1596     1.0  0.68045  0.53998  0.08081  1.0000
  H   H1597     1.0  0.67510  0.53342  0.06455  1.0000
  C   C1595     1.0  0.82337  0.48686  0.11925  1.0000
  C   C1596     1.0  0.59146  0.55809  0.98380  1.0000
  C   C1597     1.0  0.49495  0.34448  0.08207  1.0000
  N   N130      1.0  0.86644  0.48573  0.10315  1.0000
  H   H1598     1.0  0.89829  0.59588  0.98976  1.0000
  H   H1599     1.0  0.57844  0.47846  0.00248  1.0000
  S   S548      1.0  0.70728  0.62538  0.21941  1.0000
  N   N131      1.0  0.59931  0.49014  0.98303  1.0000
  N   N132      1.0  0.75180  0.58806  0.17522  1.0000
  C   C1598     1.0  0.74026  0.59305  0.18816  1.0000
  C   C1599     1.0  0.75525  0.56647  0.17242  1.0000
  C   C1600     1.0  0.73111  0.57638  0.19849  1.0000
  C   C1601     1.0  0.74649  0.54934  0.18256  1.0000
  C   C1602     1.0  0.73418  0.55441  0.19562  1.0000
  C   C1603     1.0  0.76135  0.60569  0.16450  1.0000
  H   H1600     1.0  0.73785  0.61003  0.19055  1.0000
  H   H1601     1.0  0.76412  0.56252  0.16211  1.0000
  H   H1602     1.0  0.72155  0.58062  0.20860  1.0000
  C   C1604     1.0  0.49689  0.49795  0.04051  1.0000
  C   C1605     1.0  0.88940  0.58210  0.98858  1.0000
  C   C1606     1.0  0.67166  0.44992  0.11703  1.0000
  C   C1607     1.0  0.97638  0.63618  0.10262  1.0000
  C   C1608     1.0  0.87632  0.56156  0.02799  1.0000
  C   C1609     1.0  0.68492  0.42934  0.11505  1.0000
  H   H1603     1.0  0.98426  0.64094  0.11057  1.0000
  Fe  Fe273     1.0  0.69128  0.64454  0.20052  1.0000
  H   H1604     1.0  0.59842  0.49352  0.01789  1.0000
  C   C1610     1.0  0.59287  0.48690  0.99760  1.0000
  C   C1611     1.0  0.87629  0.53871  0.02820  1.0000
  H   H1605     1.0  0.97657  0.49505  0.02685  1.0000
  H   H1606     1.0  0.63647  0.62864  0.16723  1.0000
  H   H1607     1.0  0.60464  0.56794  0.98366  1.0000
  H   H1608     1.0  0.96451  0.47608  0.04211  1.0000
  N   N133      1.0  0.64033  0.63691  0.14460  1.0000
  H   H1609     1.0  0.90058  0.57294  0.98033  1.0000
  C   C1612     1.0  0.64626  0.62193  0.15757  1.0000
  C   C1613     1.0  0.49677  0.64141  0.06916  1.0000
  H   H1610     1.0  0.88855  0.53786  0.99240  1.0000
  H   H1611     1.0  0.51251  0.49375  0.04548  1.0000
  H   H1612     1.0  0.56981  0.47906  0.97915  1.0000
  C   C1614     1.0  0.61570  0.32704  0.22366  1.0000
  H   H1613     1.0  0.61495  0.31986  0.21398  1.0000
  H   H1614     1.0  0.97023  0.46322  0.98081  1.0000
  C   C1615     1.0  0.49788  0.47804  0.07587  1.0000
  C   C1616     1.0  0.49277  0.43401  0.07372  1.0000
  C   C1617     1.0  0.65497  0.65085  0.13672  1.0000
  H   H1615     1.0  0.67129  0.65067  0.13981  1.0000
  Fe  Fe274     1.0  0.66291  0.62653  0.33156  1.0000
  S   S549      1.0  0.66654  0.59722  0.31982  1.0000
  S   S550      1.0  0.63608  0.62783  0.35131  1.0000
  H   H1616     1.0  0.93190  0.33815  0.35678  1.0000
  S   S551      1.0  0.70831  0.61908  0.29800  1.0000
  Fe  Fe275     1.0  0.67066  0.62278  0.29979  1.0000
  H   H1617     1.0  0.64767  0.41830  0.43104  1.0000
  Fe  Fe276     1.0  0.70386  0.59586  0.31916  1.0000
  S   S552      1.0  0.72875  0.56361  0.32250  1.0000
  S   S553      1.0  0.70020  0.62356  0.33229  1.0000
  H   H1618     1.0  0.98968  0.47476  0.40433  1.0000
  H   H1619     1.0  0.91565  0.37871  0.35509  1.0000
  Fe  Fe277     1.0  0.89871  0.39020  0.42210  1.0000
  S   S554      1.0  0.92315  0.39917  0.40222  1.0000
  S   S555      1.0  0.86103  0.38945  0.42401  1.0000
  Fe  Fe278     1.0  0.93649  0.37383  0.44018  1.0000
  S   S556      1.0  0.96399  0.38055  0.42156  1.0000
  Fe  Fe279     1.0  0.94110  0.41297  0.41639  1.0000
  S   S557      1.0  0.95768  0.44415  0.40845  1.0000
  Fe  Fe280     1.0  0.94403  0.36601  0.40904  1.0000
  S   S558      1.0  0.95840  0.34639  0.39080  1.0000
  S   S559      1.0  0.91463  0.40716  0.43583  1.0000
  S   S560      1.0  0.91851  0.35612  0.42816  1.0000
  Fe  Fe281     1.0  0.53504  0.36982  0.44545  1.0000
  S   S561      1.0  0.54361  0.33374  0.45566  1.0000
  Fe  Fe282     1.0  0.58210  0.37072  0.42830  1.0000
  S   S562      1.0  0.59438  0.33511  0.43732  1.0000
  S   S563      1.0  0.60327  0.39462  0.41320  1.0000
  H   H1620     1.0  0.89202  0.39298  0.37648  1.0000
  H   H1621     1.0  0.66484  0.32613  0.46120  1.0000
  Fe  Fe283     1.0  0.57594  0.34406  0.45846  1.0000
  S   S564      1.0  0.54986  0.36321  0.42308  1.0000
  S   S565      1.0  0.56626  0.38031  0.44975  1.0000
  C   C1618     1.0  0.76484  0.52009  0.36148  1.0000
  Fe  Fe284     1.0  0.72303  0.44303  0.36570  1.0000
  S   S566      1.0  0.75557  0.43377  0.35146  1.0000
  S   S567      1.0  0.69888  0.47551  0.36227  1.0000
  Fe  Fe285     1.0  0.72712  0.39748  0.38489  1.0000
  S   S568      1.0  0.76038  0.38461  0.37223  1.0000
  S   S569      1.0  0.71027  0.37385  0.40298  1.0000
  Fe  Fe286     1.0  0.76932  0.41881  0.37199  1.0000
  S   S570      1.0  0.80395  0.42708  0.37298  1.0000
  Fe  Fe287     1.0  0.74378  0.40051  0.35304  1.0000
  S   S571      1.0  0.74726  0.38439  0.33326  1.0000
  S   S572      1.0  0.73726  0.43057  0.38622  1.0000
  S   S573      1.0  0.71007  0.41091  0.36568  1.0000
  C   C1619     1.0  0.70217  0.33164  0.33379  1.0000
  C   C1620     1.0  0.71879  0.33641  0.32196  1.0000
  C   C1621     1.0  0.73210  0.35318  0.32166  1.0000
  C   C1622     1.0  0.72878  0.36525  0.33313  1.0000
  C   C1623     1.0  0.71149  0.36113  0.34463  1.0000
  C   C1624     1.0  0.69832  0.34433  0.34499  1.0000
  H   H1622     1.0  0.63753  0.32947  0.24484  1.0000
  H   H1623     1.0  0.93574  0.40638  0.46155  1.0000
  H   H1624     1.0  0.70864  0.37044  0.35346  1.0000
  H   H1625     1.0  0.68541  0.34077  0.35414  1.0000
  C   C1625     1.0  0.63290  0.38759  0.40949  1.0000
  C   C1626     1.0  0.64561  0.40403  0.40153  1.0000
  C   C1627     1.0  0.66934  0.39972  0.39925  1.0000
  C   C1628     1.0  0.68054  0.37888  0.40488  1.0000
  C   C1629     1.0  0.66788  0.36223  0.41262  1.0000
  C   C1630     1.0  0.64408  0.36656  0.41491  1.0000
  H   H1626     1.0  0.63705  0.42034  0.39734  1.0000
  H   H1627     1.0  0.67892  0.41278  0.39345  1.0000
  H   H1628     1.0  0.67647  0.34606  0.41698  1.0000
  H   H1629     1.0  0.63444  0.35377  0.42100  1.0000
  C   C1631     1.0  0.84557  0.39968  0.40960  1.0000
  C   C1632     1.0  0.85461  0.41290  0.39708  1.0000
  C   C1633     1.0  0.84171  0.42100  0.38594  1.0000
  C   C1634     1.0  0.81970  0.41591  0.38715  1.0000
  C   C1635     1.0  0.81073  0.40253  0.39963  1.0000
  C   C1636     1.0  0.82359  0.39454  0.41081  1.0000
  H   H1630     1.0  0.87137  0.41726  0.39610  1.0000
  H   H1631     1.0  0.84873  0.43146  0.37637  1.0000
  H   H1632     1.0  0.79381  0.39853  0.40071  1.0000
  H   H1633     1.0  0.81643  0.38437  0.42047  1.0000
  C   C1637     1.0  0.94451  0.37487  0.47503  1.0000
  H   H1634     1.0  0.71571  0.55651  0.36543  1.0000
  C   C1638     1.0  0.72372  0.44359  0.31819  1.0000
  C   C1639     1.0  0.96675  0.45739  0.42071  1.0000
  C   C1640     1.0  0.95831  0.45355  0.43537  1.0000
  C   C1641     1.0  0.96578  0.46451  0.44485  1.0000
  H   H1635     1.0  0.78184  0.51935  0.35548  1.0000
  C   C1642     1.0  0.49861  0.41785  0.42826  1.0000
  H   H1636     1.0  0.94575  0.44246  0.43936  1.0000
  H   H1637     1.0  0.95899  0.46169  0.45615  1.0000
  C   C1643     1.0  0.50020  0.53556  0.41011  1.0000
  H   H1638     1.0  0.99131  0.38561  0.45037  1.0000
  Fe  Fe288     1.0  0.70153  0.64689  0.31115  1.0000
  C   C1644     1.0  0.68933  0.61768  0.26250  1.0000
  C   C1645     1.0  0.70168  0.61735  0.24866  1.0000
  C   C1646     1.0  0.69106  0.62554  0.23658  1.0000
  H   H1639     1.0  0.69768  0.61117  0.27171  1.0000
  H   H1640     1.0  0.71954  0.61075  0.24732  1.0000
  C   C1647     1.0  0.71981  0.53895  0.33293  1.0000
  C   C1648     1.0  0.73545  0.51908  0.33423  1.0000
  C   C1649     1.0  0.72925  0.49944  0.34313  1.0000
  C   C1650     1.0  0.70726  0.49952  0.35068  1.0000
  C   C1651     1.0  0.69150  0.51925  0.34917  1.0000
  C   C1652     1.0  0.69775  0.53892  0.34035  1.0000
  H   H1641     1.0  0.75254  0.51903  0.32849  1.0000
  H   H1642     1.0  0.74148  0.48431  0.34417  1.0000
  H   H1643     1.0  0.67446  0.51942  0.35501  1.0000
  H   H1644     1.0  0.68561  0.55417  0.33947  1.0000
  H   H1645     1.0  0.50661  0.56998  0.40575  1.0000
  H   H1646     1.0  0.51289  0.40674  0.42368  1.0000
  H   H1647     1.0  0.91621  0.32118  0.40948  1.0000
  C   C1653     1.0  0.73527  0.46140  0.31115  1.0000
  H   H1648     1.0  0.88589  0.32947  0.41174  1.0000
  C   C1654     1.0  0.72076  0.52198  0.37587  1.0000
  H   H1649     1.0  0.88526  0.36691  0.39923  1.0000
  C   C1655     1.0  0.99105  0.48221  0.42520  1.0000
  C   C1656     1.0  0.93924  0.39830  0.47206  1.0000
  C   C1657     1.0  0.60200  0.61307  0.33023  1.0000
  C   C1658     1.0  0.58184  0.61976  0.33897  1.0000
  H   H1650     1.0  0.77295  0.47112  0.36236  1.0000
  H   H1651     1.0  0.86478  0.43185  0.46738  1.0000
  C   C1659     1.0  0.72481  0.48350  0.31180  1.0000
  C   C1660     1.0  0.49720  0.55794  0.40342  1.0000
  C   C1661     1.0  0.72770  0.54118  0.36707  1.0000
  C   C1662     1.0  0.65552  0.63407  0.25227  1.0000
  H   H1652     1.0  0.57772  0.61041  0.34963  1.0000
  N   N134      1.0  0.90385  0.33809  0.39063  1.0000
  H   H1653     1.0  0.68419  0.35597  0.44890  1.0000
  H   H1654     1.0  0.71254  0.34821  0.37776  1.0000
  C   C1663     1.0  0.91673  0.33005  0.37889  1.0000
  H   H1655     1.0  0.76927  0.46890  0.38157  1.0000
  S   S574      1.0  0.94479  0.35782  0.46210  1.0000
  H   H1656     1.0  0.73029  0.48693  0.38356  1.0000
  N   N135      1.0  0.70255  0.44771  0.32593  1.0000
  H   H1657     1.0  0.79128  0.48295  0.37072  1.0000
  C   C1664     1.0  0.66622  0.62605  0.26437  1.0000
  H   H1658     1.0  0.70207  0.41305  0.33495  1.0000
  H   H1659     1.0  0.72189  0.32669  0.31329  1.0000
  H   H1660     1.0  0.65959  0.64019  0.22912  1.0000
  C   C1665     1.0  0.69220  0.46933  0.32664  1.0000
  H   H1661     1.0  0.67556  0.47263  0.33295  1.0000
  H   H1662     1.0  0.90067  0.33894  0.46189  1.0000
  H   H1663     1.0  0.61223  0.36642  0.45679  1.0000
  H   H1664     1.0  0.52241  0.31992  0.41430  1.0000
  C   C1666     1.0  0.70306  0.48753  0.31948  1.0000
  H   H1665     1.0  0.62348  0.62084  0.31013  1.0000
  H   H1666     1.0  0.75222  0.45802  0.30526  1.0000
  H   H1667     1.0  0.69495  0.50467  0.32024  1.0000
  C   C1667     1.0  0.92107  0.34448  0.36591  1.0000
  C   C1668     1.0  0.64790  0.33661  0.46231  1.0000
  C   C1669     1.0  0.73614  0.50204  0.37723  1.0000
  C   C1670     1.0  0.61233  0.64916  0.35160  1.0000
  H   H1668     1.0  0.67875  0.42636  0.32574  1.0000
  H   H1669     1.0  0.86914  0.36881  0.45289  1.0000
  H   H1670     1.0  0.67332  0.34438  0.24283  1.0000
  C   C1671     1.0  0.98307  0.47179  0.41566  1.0000
  H   H1671     1.0  0.51211  0.52995  0.41762  1.0000
  H   H1672     1.0  0.64205  0.33803  0.47382  1.0000
  C   C1672     1.0  0.69027  0.42897  0.33280  1.0000
  C   C1673     1.0  0.66598  0.34493  0.23327  1.0000
  H   H1673     1.0  0.75504  0.55488  0.35244  1.0000
  N   N136      1.0  0.73440  0.32121  0.36913  1.0000
  H   H1674     1.0  0.61151  0.40445  0.44227  1.0000
  C   C1674     1.0  0.66818  0.36667  0.44774  1.0000
  H   H1675     1.0  0.98303  0.61461  0.43216  1.0000
  H   H1676     1.0  0.63762  0.64050  0.25363  1.0000
  H   H1677     1.0  0.61359  0.59847  0.33403  1.0000
  H   H1678     1.0  0.68021  0.43236  0.34328  1.0000
  H   H1679     1.0  0.73186  0.42647  0.31746  1.0000
  H   H1680     1.0  0.70331  0.52222  0.38107  1.0000
  C   C1675     1.0  0.87267  0.37823  0.46053  1.0000
  C   C1676     1.0  0.77356  0.48013  0.37126  1.0000
  S   S575      1.0  0.50215  0.39004  0.45419  1.0000
  N   N137      1.0  0.75795  0.50139  0.37023  1.0000
  C   C1677     1.0  0.74985  0.54027  0.35980  1.0000
  H   H1681     1.0  0.74538  0.35637  0.31268  1.0000
  C   C1678     1.0  0.89886  0.37527  0.37701  1.0000
  H   H1682     1.0  0.73360  0.49753  0.30653  1.0000
  C   C1679     1.0  0.75216  0.32782  0.35918  1.0000
  C   C1680     1.0  0.60769  0.62599  0.31684  1.0000
  H   H1683     1.0  0.75974  0.34214  0.36010  1.0000
  C   C1681     1.0  0.62753  0.39416  0.44408  1.0000
  H   H1684     1.0  0.71730  0.32298  0.39056  1.0000
  C   C1682     1.0  0.66834  0.38818  0.43963  1.0000
  C   C1683     1.0  0.87004  0.41378  0.46862  1.0000
  C   C1684     1.0  0.89503  0.36040  0.38985  1.0000
  S   S576      1.0  0.65054  0.62739  0.28164  1.0000
  C   C1685     1.0  0.64785  0.40195  0.43778  1.0000
  C   C1686     1.0  0.56757  0.63914  0.33421  1.0000
  S   S577      1.0  0.99184  0.49151  0.45209  1.0000
  C   C1687     1.0  0.62802  0.37257  0.45210  1.0000
  N   N138      1.0  0.64814  0.35910  0.45377  1.0000
  H   H1685     1.0  0.55223  0.64495  0.34114  1.0000
  Fe  Fe289     1.0  0.56102  0.32781  0.43359  1.0000
  H   H1686     1.0  0.98807  0.38590  0.47637  1.0000
  H   H1687     1.0  0.85610  0.40974  0.45032  1.0000
  C   C1688     1.0  0.72538  0.33373  0.38106  1.0000
  C   C1689     1.0  0.86517  0.40141  0.45905  1.0000
  C   C1690     1.0  0.64576  0.33638  0.23434  1.0000
  C   C1691     1.0  0.66794  0.63396  0.23839  1.0000
  H   H1688     1.0  0.68422  0.39380  0.43435  1.0000
  C   C1692     1.0  0.91207  0.36724  0.36500  1.0000
  H   H1689     1.0  0.73899  0.34031  0.38459  1.0000
  H   H1690     1.0  0.63601  0.32761  0.45882  1.0000
  H   H1691     1.0  0.59635  0.63423  0.37225  1.0000
  N   N139      1.0  0.59383  0.64519  0.31236  1.0000
  H   H1692     1.0  0.77366  0.32279  0.33914  1.0000
  C   C1693     1.0  0.89226  0.34338  0.47250  1.0000
  C   C1694     1.0  0.90093  0.32294  0.40435  1.0000
  C   C1695     1.0  0.98222  0.47881  0.43979  1.0000
  N   N140      1.0  0.88463  0.36768  0.47125  1.0000
  H   H1693     1.0  0.60209  0.64870  0.28972  1.0000
  S   S578      1.0  0.49469  0.64298  0.41386  1.0000
  H   H1694     1.0  0.49478  0.43940  0.40810  1.0000
  C   C1696     1.0  0.59472  0.64778  0.36331  1.0000
  H   H1695     1.0  0.58519  0.38047  0.47664  1.0000
  H   H1696     1.0  0.87768  0.33409  0.47659  1.0000
  Fe  Fe290     1.0  0.94657  0.40148  0.56290  1.0000
  S   S579      1.0  0.93957  0.37894  0.54884  1.0000
  S   S580      1.0  0.92332  0.40974  0.58313  1.0000
  C   C1697     1.0  0.73293  0.35297  0.65232  1.0000
  Fe  Fe291     1.0  0.95500  0.40276  0.53039  1.0000
  S   S581      1.0  0.94173  0.41807  0.50962  1.0000
  H   H1697     1.0  0.54045  0.33464  0.49693  1.0000
  S   S582      1.0  0.95887  0.42701  0.54441  1.0000
  H   H1698     1.0  0.88129  0.52904  0.70709  1.0000
  H   H1699     1.0  0.52787  0.39277  0.53095  1.0000
  Fe  Fe292     1.0  0.77844  0.47576  0.62004  1.0000
  S   S583      1.0  0.76932  0.46786  0.59989  1.0000
  S   S584      1.0  0.79016  0.50968  0.61920  1.0000
  Fe  Fe293     1.0  0.77512  0.42792  0.63546  1.0000
  S   S585      1.0  0.76648  0.41616  0.61671  1.0000
  S   S586      1.0  0.77837  0.40603  0.65681  1.0000
  Fe  Fe294     1.0  0.79339  0.43577  0.60391  1.0000
  S   S587      1.0  0.81715  0.42186  0.58561  1.0000
  Fe  Fe295     1.0  0.74291  0.44870  0.61417  1.0000
  S   S588      1.0  0.70613  0.44770  0.61209  1.0000
  S   S589      1.0  0.80421  0.44468  0.62290  1.0000
  S   S590      1.0  0.74983  0.45954  0.63406  1.0000
  C   C1698     1.0  0.78844  0.34425  0.64529  1.0000
  H   H1700     1.0  0.84225  0.32725  0.62415  1.0000
  C   C1699     1.0  0.83128  0.52622  0.69702  1.0000
  H   H1701     1.0  0.84035  0.38009  0.65757  1.0000
  H   H1702     1.0  0.50714  0.58691  0.60398  1.0000
  C   C1700     1.0  0.75607  0.60314  0.66616  1.0000
  C   C1701     1.0  0.83694  0.37636  0.63621  1.0000
  H   H1703     1.0  0.55581  0.37647  0.52913  1.0000
  Fe  Fe296     1.0  0.63277  0.38993  0.56831  1.0000
  S   S591      1.0  0.60520  0.38005  0.58621  1.0000
  S   S592      1.0  0.66719  0.39859  0.57044  1.0000
  Fe  Fe297     1.0  0.60468  0.38585  0.54520  1.0000
  S   S593      1.0  0.57511  0.37595  0.56157  1.0000
  S   S594      1.0  0.60150  0.39567  0.52154  1.0000
  Fe  Fe298     1.0  0.58132  0.40291  0.57267  1.0000
  S   S595      1.0  0.55317  0.42717  0.58272  1.0000
  Fe  Fe299     1.0  0.60139  0.35375  0.57359  1.0000
  S   S596      1.0  0.60895  0.41457  0.55559  1.0000
  S   S597      1.0  0.63090  0.36180  0.55640  1.0000
  Fe  Fe300     1.0  0.82038  0.58752  0.67238  1.0000
  S   S598      1.0  0.83100  0.61682  0.65619  1.0000
  S   S599      1.0  0.80483  0.55697  0.67029  1.0000
  Fe  Fe301     1.0  0.83016  0.60782  0.69745  1.0000
  S   S600      1.0  0.84118  0.63868  0.68324  1.0000
  Fe  Fe302     1.0  0.81151  0.63832  0.67237  1.0000
  C   C1702     1.0  0.93844  0.41136  0.48277  1.0000
  Fe  Fe303     1.0  0.85982  0.61499  0.66834  1.0000
  S   S601      1.0  0.89646  0.61524  0.65792  1.0000
  S   S602      1.0  0.79887  0.60929  0.68779  1.0000
  S   S603      1.0  0.85085  0.58380  0.68333  1.0000
  C   C1703     1.0  0.54221  0.35958  0.50980  1.0000
  C   C1704     1.0  0.72808  0.34939  0.63937  1.0000
  H   H1704     1.0  0.89440  0.61286  0.68882  1.0000
  H   H1705     1.0  0.76514  0.64993  0.69093  1.0000
  C   C1705     1.0  0.52559  0.39104  0.48805  1.0000
  H   H1706     1.0  0.96932  0.34330  0.59247  1.0000
  H   H1707     1.0  0.82076  0.38681  0.61208  1.0000
  H   H1708     1.0  0.79491  0.32809  0.68028  1.0000
  H   H1709     1.0  0.83845  0.49264  0.61118  1.0000
  H   H1710     1.0  0.94259  0.62134  0.64706  1.0000
  C   C1706     1.0  0.59396  0.34955  0.49066  1.0000
  C   C1707     1.0  0.60014  0.34014  0.50413  1.0000
  C   C1708     1.0  0.60248  0.35400  0.51377  1.0000
  C   C1709     1.0  0.59914  0.37738  0.50986  1.0000
  C   C1710     1.0  0.59311  0.38676  0.49635  1.0000
  C   C1711     1.0  0.59028  0.37295  0.48685  1.0000
  H   H1711     1.0  0.88609  0.41226  0.48708  1.0000
  H   H1712     1.0  0.60714  0.34661  0.52415  1.0000
  H   H1713     1.0  0.59039  0.40486  0.49329  1.0000
  N   N141      1.0  0.90673  0.62554  0.70462  1.0000
  C   C1712     1.0  0.79246  0.32998  0.65802  1.0000
  C   C1713     1.0  0.52381  0.62645  0.56388  1.0000
  C   C1714     1.0  0.84639  0.34528  0.65467  1.0000
  C   C1715     1.0  0.73559  0.64088  0.66419  1.0000
  H   H1714     1.0  0.84235  0.64343  0.71424  1.0000
  C   C1716     1.0  0.52333  0.48793  0.55280  1.0000
  C   C1717     1.0  0.54083  0.47211  0.54726  1.0000
  C   C1718     1.0  0.54948  0.45291  0.55625  1.0000
  C   C1719     1.0  0.54088  0.44961  0.57090  1.0000
  C   C1720     1.0  0.52319  0.46529  0.57641  1.0000
  C   C1721     1.0  0.51433  0.48434  0.56737  1.0000
  H   H1715     1.0  0.54786  0.47481  0.53599  1.0000
  H   H1716     1.0  0.56309  0.44092  0.55190  1.0000
  N   N142      1.0  0.76920  0.63199  0.64744  1.0000
  H   H1717     1.0  0.72590  0.61358  0.68053  1.0000
  H   H1718     1.0  0.83261  0.39434  0.63291  1.0000
  H   H1719     1.0  0.74036  0.33901  0.65960  1.0000
  C   C1722     1.0  0.79243  0.54206  0.70644  1.0000
  C   C1723     1.0  0.86319  0.53120  0.70713  1.0000
  H   H1720     1.0  0.89644  0.46382  0.58377  1.0000
  H   H1721     1.0  0.55933  0.32957  0.57084  1.0000
  C   C1724     1.0  0.84232  0.33896  0.63132  1.0000
  H   H1722     1.0  0.79627  0.65031  0.63842  1.0000
  H   H1723     1.0  0.54905  0.34713  0.51812  1.0000
  C   C1725     1.0  0.79465  0.52225  0.63357  1.0000
  C   C1726     1.0  0.80458  0.54209  0.63040  1.0000
  C   C1727     1.0  0.80818  0.55281  0.64143  1.0000
  C   C1728     1.0  0.80163  0.54392  0.65581  1.0000
  C   C1729     1.0  0.79176  0.52405  0.65897  1.0000
  C   C1730     1.0  0.78839  0.51322  0.64795  1.0000
  H   H1724     1.0  0.80952  0.54924  0.61933  1.0000
  H   H1725     1.0  0.81597  0.56793  0.63877  1.0000
  H   H1726     1.0  0.78655  0.51699  0.67002  1.0000
  H   H1727     1.0  0.78068  0.49804  0.65059  1.0000
  C   C1731     1.0  0.69587  0.43309  0.60075  1.0000
  C   C1732     1.0  0.67282  0.43053  0.60334  1.0000
  C   C1733     1.0  0.66387  0.41947  0.59448  1.0000
  C   C1734     1.0  0.67775  0.41125  0.58268  1.0000
  C   C1735     1.0  0.70086  0.41354  0.58023  1.0000
  C   C1736     1.0  0.70992  0.42420  0.58925  1.0000
  H   H1728     1.0  0.66181  0.43716  0.61227  1.0000
  H   H1729     1.0  0.64625  0.41737  0.59676  1.0000
  H   H1730     1.0  0.71183  0.40720  0.57118  1.0000
  H   H1731     1.0  0.72767  0.42599  0.58708  1.0000
  C   C1737     1.0  0.94314  0.40113  0.49645  1.0000
  C   C1738     1.0  0.94866  0.37774  0.49936  1.0000
  C   C1739     1.0  0.94922  0.36465  0.48870  1.0000
  H   H1732     1.0  0.89845  0.37127  0.48942  1.0000
  S   S604      1.0  0.98101  0.32431  0.55308  1.0000
  H   H1733     1.0  0.75827  0.58582  0.67153  1.0000
  H   H1734     1.0  0.95234  0.36971  0.50987  1.0000
  H   H1735     1.0  0.95337  0.34653  0.49106  1.0000
  C   C1740     1.0  0.53587  0.62893  0.57436  1.0000
  C   C1741     1.0  0.49663  0.60083  0.59854  1.0000
  C   C1742     1.0  0.89391  0.41181  0.58391  1.0000
  C   C1743     1.0  0.88462  0.40984  0.57204  1.0000
  C   C1744     1.0  0.86101  0.41256  0.57280  1.0000
  C   C1745     1.0  0.84661  0.41758  0.58534  1.0000
  C   C1746     1.0  0.85590  0.41936  0.59726  1.0000
  C   C1747     1.0  0.87950  0.41629  0.59658  1.0000
  H   H1736     1.0  0.89560  0.40642  0.56223  1.0000
  H   H1737     1.0  0.85391  0.41107  0.56356  1.0000
  H   H1738     1.0  0.84499  0.42322  0.60696  1.0000
  H   H1739     1.0  0.88665  0.41787  0.60578  1.0000
  C   C1748     1.0  0.78741  0.36251  0.66996  1.0000
  C   C1749     1.0  0.78373  0.37680  0.65714  1.0000
  C   C1750     1.0  0.78428  0.36761  0.64482  1.0000
  H   H1740     1.0  0.78693  0.36955  0.67956  1.0000
  H   H1741     1.0  0.78150  0.37838  0.63491  1.0000
  H   H1742     1.0  0.84776  0.37218  0.60492  1.0000
  S   S605      1.0  0.83048  0.59803  0.72136  1.0000
  H   H1743     1.0  0.55200  0.40480  0.52033  1.0000
  H   H1744     1.0  0.50016  0.64309  0.54976  1.0000
  C   C1751     1.0  0.91130  0.63777  0.65764  1.0000
  H   H1745     1.0  0.87157  0.46193  0.56657  1.0000
  C   C1752     1.0  0.84336  0.63728  0.72543  1.0000
  S   S606      1.0  0.59082  0.33151  0.47901  1.0000
  H   H1746     1.0  0.71336  0.42838  0.64075  1.0000
  H   H1747     1.0  0.69958  0.41683  0.65810  1.0000
  C   C1753     1.0  0.87844  0.47003  0.58595  1.0000
  H   H1748     1.0  0.90812  0.59186  0.70158  1.0000
  C   C1754     1.0  0.89683  0.60823  0.70024  1.0000
  H   H1749     1.0  0.90512  0.33772  0.47979  1.0000
  C   C1755     1.0  0.79191  0.33909  0.67039  1.0000
  H   H1750     1.0  0.83353  0.46041  0.56294  1.0000
  C   C1756     1.0  0.51046  0.64514  0.55740  1.0000
  N   N143      1.0  0.81681  0.53763  0.70686  1.0000
  C   C1757     1.0  0.84831  0.54283  0.71709  1.0000
  C   C1758     1.0  0.93441  0.63601  0.65180  1.0000
  C   C1759     1.0  0.85465  0.52284  0.69700  1.0000
  H   H1751     1.0  0.78269  0.53861  0.71738  1.0000
  C   C1760     1.0  0.49504  0.62252  0.60185  1.0000
  H   H1752     1.0  0.78760  0.55995  0.70179  1.0000
  C   C1761     1.0  0.83186  0.37021  0.61257  1.0000
  H   H1753     1.0  0.80961  0.47201  0.57434  1.0000
  C   C1762     1.0  0.84144  0.36841  0.65017  1.0000
  H   H1754     1.0  0.81423  0.49042  0.59371  1.0000
  C   C1763     1.0  0.95433  0.33726  0.59025  1.0000
  H   H1755     1.0  0.72961  0.41840  0.65497  1.0000
  C   C1764     1.0  0.77167  0.61015  0.65424  1.0000
  H   H1756     1.0  0.82569  0.49073  0.56111  1.0000
  S   S607      1.0  0.51385  0.51244  0.54139  1.0000
  H   H1757     1.0  0.86605  0.51419  0.68899  1.0000
  H   H1758     1.0  0.70745  0.40305  0.62645  1.0000
  H   H1759     1.0  0.82485  0.52005  0.68892  1.0000
  H   H1760     1.0  0.93872  0.34636  0.59583  1.0000
  C   C1765     1.0  0.86915  0.47848  0.59862  1.0000
  C   C1766     1.0  0.54380  0.38935  0.52341  1.0000
  C   C1767     1.0  0.52882  0.36824  0.48700  1.0000
  C   C1768     1.0  0.98076  0.46452  0.50271  1.0000
  H   H1761     1.0  0.73314  0.37757  0.66556  1.0000
  C   C1769     1.0  0.84593  0.48589  0.60140  1.0000
  H   H1762     1.0  0.87992  0.47923  0.60629  1.0000
  H   H1763     1.0  0.51908  0.40338  0.47952  1.0000
  H   H1764     1.0  0.96959  0.47960  0.48258  1.0000
  S   S608      1.0  0.51140  0.62675  0.61421  1.0000
  H   H1765     1.0  0.78879  0.33720  0.63571  1.0000
  H   H1766     1.0  0.73153  0.33257  0.63659  1.0000
  H   H1767     1.0  0.92732  0.63267  0.68428  1.0000
  C   C1770     1.0  0.83225  0.48452  0.59148  1.0000
  H   H1768     1.0  0.52394  0.60993  0.56125  1.0000
  H   H1769     1.0  0.95441  0.34181  0.57849  1.0000
  C   C1771     1.0  0.92212  0.63677  0.69502  1.0000
  N   N144      1.0  0.83699  0.36165  0.62708  1.0000
  C   C1772     1.0  0.82689  0.47482  0.56884  1.0000
  C   C1773     1.0  0.71887  0.36754  0.63001  1.0000
  N   N145      1.0  0.60232  0.45736  0.57914  1.0000
  C   C1774     1.0  0.62246  0.45519  0.57002  1.0000
  C   C1775     1.0  0.58424  0.47236  0.57504  1.0000
  C   C1776     1.0  0.62464  0.46769  0.55622  1.0000
  C   C1777     1.0  0.58582  0.48515  0.56132  1.0000
  C   C1778     1.0  0.60611  0.48265  0.55183  1.0000
  C   C1779     1.0  0.60039  0.44362  0.59340  1.0000
  H   H1770     1.0  0.63680  0.44324  0.57323  1.0000
  H   H1771     1.0  0.56822  0.47403  0.58222  1.0000
  H   H1772     1.0  0.64047  0.46536  0.54892  1.0000
  H   H1773     1.0  0.57116  0.49648  0.55798  1.0000
  H   H1774     1.0  0.60739  0.49211  0.54106  1.0000
  H   H1775     1.0  0.58250  0.44448  0.59884  1.0000
  H   H1776     1.0  0.60653  0.42566  0.59248  1.0000
  H   H1777     1.0  0.61051  0.44929  0.60017  1.0000
  C   C1780     1.0  0.86425  0.46891  0.57627  1.0000
  N   N146      1.0  0.72006  0.39254  0.64631  1.0000
  C   C1781     1.0  0.72883  0.37481  0.65562  1.0000
  C   C1782     1.0  0.71477  0.38910  0.63374  1.0000
  C   C1783     1.0  0.71539  0.41513  0.65024  1.0000
  H   H1778     1.0  0.78752  0.53145  0.69964  1.0000
  C   C1784     1.0  0.90121  0.62981  0.71841  1.0000
  C   C1785     1.0  0.53085  0.39768  0.50006  1.0000
  N   N147      1.0  0.53914  0.38201  0.51071  1.0000
  H   H1779     1.0  0.51647  0.46283  0.58773  1.0000
  H   H1780     1.0  0.82263  0.35868  0.60898  1.0000
  H   H1781     1.0  0.87982  0.60638  0.70662  1.0000
  H   H1782     1.0  0.93428  0.42948  0.48042  1.0000
  H   H1783     1.0  0.71492  0.36502  0.61992  1.0000
  C   C1786     1.0  0.53726  0.35238  0.49789  1.0000
  H   H1784     1.0  0.52837  0.41544  0.50080  1.0000
  N   N148      1.0  0.84143  0.47579  0.57921  1.0000
  H   H1785     1.0  0.50083  0.49645  0.57174  1.0000
  C   C1787     1.0  0.73795  0.61866  0.67117  1.0000
  C   C1788     1.0  0.98081  0.48001  0.49007  1.0000
  H   H1786     1.0  0.60300  0.32204  0.50717  1.0000
  Fe  Fe304     1.0  0.97541  0.36232  0.55014  1.0000
  H   H1787     1.0  0.78585  0.59801  0.65057  1.0000
  H   H1788     1.0  0.81367  0.55563  0.72429  1.0000
  C   C1789     1.0  0.53435  0.65015  0.57824  1.0000
  S   S609      1.0  0.59894  0.31810  0.58538  1.0000
  H   H1789     1.0  0.96944  0.45200  0.50520  1.0000
  H   H1790     1.0  0.85468  0.54999  0.72480  1.0000
  C   C1790     1.0  0.82505  0.54599  0.71676  1.0000
  H   H1791     1.0  0.54543  0.61435  0.57997  1.0000
  C   C1791     1.0  0.75152  0.64731  0.65230  1.0000
  S   S610      1.0  0.99025  0.38434  0.53046  1.0000
  H   H1792     1.0  0.79752  0.62502  0.63108  1.0000
  C   C1792     1.0  0.90989  0.64683  0.72260  1.0000
  H   H1793     1.0  0.77730  0.64922  0.62624  1.0000
  C   C1793     1.0  0.88896  0.37958  0.48091  1.0000
  S   S611      1.0  0.98156  0.38330  0.56546  1.0000
  C   C1794     1.0  0.88194  0.40282  0.47966  1.0000
  C   C1795     1.0  0.78591  0.63943  0.63517  1.0000
  H   H1794     1.0  0.84920  0.33880  0.66560  1.0000
  C   C1796     1.0  0.84699  0.33044  0.64518  1.0000
  H   H1795     1.0  0.52483  0.36294  0.47772  1.0000
  H   H1796     1.0  0.88975  0.62028  0.72622  1.0000
  Fe  Fe305     1.0  0.60026  0.54591  0.93599  1.0000
  S   S612      1.0  0.56478  0.54611  0.93262  1.0000
  S   S613      1.0  0.60636  0.55976  0.95487  1.0000
  Fe  Fe306     1.0  0.62126  0.52051  0.91126  1.0000
  S   S614      1.0  0.58707  0.51800  0.90639  1.0000
  S   S615      1.0  0.65091  0.50429  0.89668  1.0000
  Fe  Fe307     1.0  0.57816  0.55429  0.90929  1.0000
  S   S616      1.0  0.55801  0.57676  0.89314  1.0000
  Fe  Fe308     1.0  0.57668  0.51003  0.93012  1.0000
  S   S617      1.0  0.55611  0.48379  0.94322  1.0000
  S   S618      1.0  0.61301  0.55747  0.91263  1.0000
  S   S619      1.0  0.61158  0.50927  0.93488  1.0000
  C   C1797     1.0  0.87608  0.43933  0.91139  1.0000
  C   C1798     1.0  0.99119  0.61697  0.91840  1.0000
  H   H1797     1.0  0.51114  0.58348  0.91127  1.0000
  H   H1798     1.0  0.86840  0.57015  0.81470  1.0000
  N   N149      1.0  0.90810  0.45044  0.92504  1.0000
  S   S620      1.0  0.81817  0.36221  0.81368  1.0000
  H   H1799     1.0  0.83764  0.37115  0.88720  1.0000
  C   C1799     1.0  0.86108  0.57560  0.84919  1.0000
  H   H1800     1.0  0.98540  0.49685  0.96646  1.0000
  S   S621      1.0  0.82164  0.62160  0.83121  1.0000
  H   H1801     1.0  0.62215  0.50415  0.96536  1.0000
  Fe  Fe309     1.0  0.93708  0.56130  0.93903  1.0000
  S   S622      1.0  0.91130  0.54451  0.95541  1.0000
  S   S623      1.0  0.92886  0.59882  0.93247  1.0000
  Fe  Fe310     1.0  0.96681  0.51712  0.93465  1.0000
  S   S624      1.0  0.94324  0.49688  0.95045  1.0000
  Fe  Fe311     1.0  0.91558  0.51980  0.94020  1.0000
  S   S625      1.0  0.88397  0.50726  0.93768  1.0000
  Fe  Fe312     1.0  0.94113  0.52324  0.96417  1.0000
  S   S626      1.0  0.93927  0.53807  0.92311  1.0000
  S   S627      1.0  0.96674  0.54208  0.94912  1.0000
  Fe  Fe313     1.0  0.78148  0.48826  0.88357  1.0000
  S   S628      1.0  0.80770  0.45827  0.88873  1.0000
  S   S629      1.0  0.75422  0.50270  0.90028  1.0000
  Fe  Fe314     1.0  0.80440  0.49857  0.85273  1.0000
  S   S630      1.0  0.83187  0.46892  0.85520  1.0000
  S   S631      1.0  0.80530  0.52206  0.83152  1.0000
  Fe  Fe315     1.0  0.80421  0.44981  0.86743  1.0000
  S   S632      1.0  0.80235  0.41296  0.86761  1.0000
  Fe  Fe316     1.0  0.83316  0.47971  0.87608  1.0000
  S   S633      1.0  0.86817  0.48214  0.87998  1.0000
  S   S634      1.0  0.77624  0.47859  0.86312  1.0000
  S   S635      1.0  0.80747  0.51045  0.87281  1.0000
  N   N150      1.0  0.86575  0.56480  0.83750  1.0000
  C   C1800     1.0  0.87886  0.50441  0.92071  1.0000
  C   C1801     1.0  0.85732  0.50064  0.91932  1.0000
  C   C1802     1.0  0.85347  0.49507  0.90652  1.0000
  C   C1803     1.0  0.87129  0.49287  0.89516  1.0000
  C   C1804     1.0  0.89259  0.49759  0.89631  1.0000
  C   C1805     1.0  0.89634  0.50351  0.90903  1.0000
  H   H1802     1.0  0.84372  0.50137  0.92832  1.0000
  H   H1803     1.0  0.83698  0.49151  0.90572  1.0000
  H   H1804     1.0  0.90640  0.49599  0.88750  1.0000
  H   H1805     1.0  0.91297  0.50648  0.90998  1.0000
  C   C1806     1.0  0.95117  0.61442  0.92543  1.0000
  C   C1807     1.0  0.83613  0.34634  0.77811  1.0000
  H   H1806     1.0  0.97444  0.58045  0.88470  1.0000
  C   C1808     1.0  0.88637  0.44991  0.93200  1.0000
  H   H1807     1.0  0.96511  0.58106  0.90363  1.0000
  C   C1809     1.0  0.81579  0.59467  0.83061  1.0000
  C   C1810     1.0  0.82009  0.58555  0.81790  1.0000
  C   C1811     1.0  0.81654  0.56332  0.81822  1.0000
  C   C1812     1.0  0.80886  0.55014  0.83122  1.0000
  C   C1813     1.0  0.80419  0.55952  0.84382  1.0000
  C   C1814     1.0  0.80753  0.58170  0.84350  1.0000
  H   H1808     1.0  0.82628  0.59554  0.80788  1.0000
  H   H1809     1.0  0.81994  0.55625  0.80839  1.0000
  H   H1810     1.0  0.79782  0.54982  0.85381  1.0000
  H   H1811     1.0  0.80401  0.58874  0.85334  1.0000
  C   C1815     1.0  0.51053  0.53499  0.93435  1.0000
  H   H1812     1.0  0.86777  0.53382  0.82981  1.0000
  C   C1816     1.0  0.97378  0.60450  0.92519  1.0000
  Fe  Fe317     1.0  0.83970  0.64362  0.81264  1.0000
  C   C1817     1.0  0.84620  0.62167  0.75451  1.0000
  C   C1818     1.0  0.83892  0.60842  0.74624  1.0000
  C   C1819     1.0  0.83998  0.33185  0.75640  1.0000
  H   H1813     1.0  0.83453  0.59205  0.75115  1.0000
  C   C1820     1.0  0.81310  0.37642  0.82868  1.0000
  C   C1821     1.0  0.81594  0.39916  0.82668  1.0000
  C   C1822     1.0  0.81233  0.41079  0.83845  1.0000
  C   C1823     1.0  0.80559  0.39977  0.85230  1.0000
  C   C1824     1.0  0.80253  0.37711  0.85425  1.0000
  C   C1825     1.0  0.80639  0.36544  0.84253  1.0000
  H   H1814     1.0  0.82103  0.40782  0.81600  1.0000
  H   H1815     1.0  0.81478  0.42822  0.83682  1.0000
  H   H1816     1.0  0.79726  0.36849  0.86493  1.0000
  H   H1817     1.0  0.80389  0.34803  0.84422  1.0000
  C   C1826     1.0  0.53721  0.47399  0.93487  1.0000
  C   C1827     1.0  0.52316  0.45874  0.94291  1.0000
  C   C1828     1.0  0.51714  0.38774  0.89175  1.0000
  H   H1818     1.0  0.50987  0.42277  0.88275  1.0000
  C   C1829     1.0  0.81666  0.33736  0.75630  1.0000
  C   C1830     1.0  0.53533  0.48190  0.92047  1.0000
  H   H1819     1.0  0.52454  0.45259  0.95407  1.0000
  C   C1831     1.0  0.50807  0.56601  0.94710  1.0000
  H   H1820     1.0  0.78483  0.35147  0.76761  1.0000
  H   H1821     1.0  0.54625  0.49348  0.91417  1.0000
  H   H1822     1.0  0.92713  0.59839  0.90129  1.0000
  H   H1823     1.0  0.86336  0.43604  0.90579  1.0000
  H   H1824     1.0  0.98862  0.59464  0.89459  1.0000
  C   C1832     1.0  0.67934  0.50202  0.89908  1.0000
  C   C1833     1.0  0.68557  0.51310  0.90888  1.0000
  C   C1834     1.0  0.70863  0.51254  0.90950  1.0000
  C   C1835     1.0  0.72554  0.50105  0.90027  1.0000
  C   C1836     1.0  0.71926  0.48958  0.89071  1.0000
  C   C1837     1.0  0.69625  0.48998  0.89017  1.0000
  H   H1825     1.0  0.67267  0.52240  0.91580  1.0000
  H   H1826     1.0  0.71340  0.52139  0.91696  1.0000
  H   H1827     1.0  0.73211  0.48047  0.88368  1.0000
  H   H1828     1.0  0.69152  0.48110  0.88271  1.0000
  C   C1838     1.0  0.54657  0.60477  0.89502  1.0000
  C   C1839     1.0  0.54648  0.61327  0.90756  1.0000
  C   C1840     1.0  0.97193  0.59094  0.89328  1.0000
  H   H1829     1.0  0.50904  0.53133  0.95726  1.0000
  H   H1830     1.0  0.97321  0.46693  0.93507  1.0000
  C   C1841     1.0  0.53665  0.61860  0.88379  1.0000
  H   H1831     1.0  0.55398  0.60264  0.91632  1.0000
  N   N151      1.0  0.84935  0.33599  0.76736  1.0000
  C   C1842     1.0  0.84400  0.36426  0.87736  1.0000
  H   H1832     1.0  0.53647  0.61203  0.87412  1.0000
  C   C1843     1.0  0.98606  0.63923  0.91166  1.0000
  H   H1833     1.0  0.55188  0.42831  0.91757  1.0000
  H   H1834     1.0  0.50583  0.52569  0.90939  1.0000
  C   C1844     1.0  0.85379  0.54092  0.86463  1.0000
  H   H1835     1.0  0.93292  0.47089  0.92493  1.0000
  C   C1845     1.0  0.99049  0.45926  0.93252  1.0000
  H   H1836     1.0  0.52941  0.43569  0.89928  1.0000
  C   C1846     1.0  0.85254  0.64258  0.74818  1.0000
  C   C1847     1.0  0.85034  0.33361  0.86385  1.0000
  H   H1837     1.0  0.56493  0.40004  0.92290  1.0000
  C   C1848     1.0  0.87006  0.44431  0.92530  1.0000
  H   H1838     1.0  0.97785  0.58717  0.93005  1.0000
  C   C1849     1.0  0.50864  0.58067  0.93408  1.0000
  H   H1839     1.0  0.86502  0.38056  0.84252  1.0000
  C   C1850     1.0  0.54856  0.41066  0.92110  1.0000
  C   C1851     1.0  0.91424  0.44520  0.91150  1.0000
  C   C1852     1.0  0.86482  0.33866  0.83817  1.0000
  N   N152      1.0  0.85789  0.34753  0.85169  1.0000
  H   H1840     1.0  0.84921  0.53152  0.87523  1.0000
  H   H1841     1.0  0.85732  0.51232  0.85385  1.0000
  C   C1853     1.0  0.87379  0.33009  0.76738  1.0000
  H   H1842     1.0  0.86168  0.59351  0.84788  1.0000
  C   C1854     1.0  0.85494  0.56385  0.86292  1.0000
  N   N153      1.0  0.70667  0.53544  0.86492  1.0000
  C   C1855     1.0  0.72640  0.53030  0.85590  1.0000
  C   C1856     1.0  0.70663  0.54553  0.87649  1.0000
  C   C1857     1.0  0.74685  0.53503  0.85844  1.0000
  C   C1858     1.0  0.72681  0.55027  0.87943  1.0000
  C   C1859     1.0  0.74703  0.54487  0.87038  1.0000
  C   C1860     1.0  0.68551  0.53024  0.86198  1.0000
  H   H1843     1.0  0.72650  0.52222  0.84676  1.0000
  H   H1844     1.0  0.69110  0.54921  0.88383  1.0000
  H   H1845     1.0  0.72694  0.55717  0.88901  1.0000
  H   H1846     1.0  0.76285  0.54784  0.87283  1.0000
  H   H1847     1.0  0.68068  0.54114  0.85210  1.0000
  H   H1848     1.0  0.68751  0.51228  0.86069  1.0000
  H   H1849     1.0  0.67133  0.53274  0.87096  1.0000
  H   H1850     1.0  0.89216  0.57613  0.82157  1.0000
  H   H1851     1.0  0.87730  0.32285  0.77839  1.0000
  H   H1852     1.0  0.84356  0.34990  0.78673  1.0000
  H   H1853     1.0  0.57996  0.64249  0.86099  1.0000
  C   C1861     1.0  0.51025  0.57205  0.92138  1.0000
  H   H1854     1.0  0.86568  0.59503  0.82238  1.0000
  H   H1855     1.0  0.53670  0.41006  0.93142  1.0000
  H   H1856     1.0  0.93841  0.44225  0.93412  1.0000
  C   C1862     1.0  0.52701  0.37241  0.90233  1.0000
  H   H1857     1.0  0.56849  0.53483  0.96150  1.0000
  C   C1863     1.0  0.83777  0.61603  0.73164  1.0000
  H   H1858     1.0  0.90291  0.43660  0.89345  1.0000
  H   H1859     1.0  0.76251  0.53072  0.85134  1.0000
  H   H1860     1.0  0.85265  0.44478  0.93062  1.0000
  H   H1861     1.0  0.91735  0.46289  0.94223  1.0000
  S   S636      1.0  0.87331  0.63319  0.79938  1.0000
  C   C1864     1.0  0.92504  0.45683  0.93195  1.0000
  H   H1862     1.0  0.51749  0.48145  0.90316  1.0000
  H   H1863     1.0  0.88128  0.45475  0.94256  1.0000
  N   N154      1.0  0.51119  0.54947  0.92163  1.0000
  C   C1865     1.0  0.85934  0.36942  0.85218  1.0000
  H   H1864     1.0  0.49237  0.32573  0.88162  1.0000
  C   C1866     1.0  0.96496  0.62995  0.88118  1.0000
  C   C1867     1.0  0.86442  0.54236  0.83907  1.0000
  H   H1865     1.0  0.93139  0.44591  0.90593  1.0000
  H   H1866     1.0  0.85100  0.57248  0.87216  1.0000
  C   C1868     1.0  0.89831  0.43969  0.90444  1.0000
  C   C1869     1.0  0.50706  0.45166  0.93665  1.0000
  C   C1870     1.0  0.80299  0.34745  0.76741  1.0000
  C   C1871     1.0  0.85842  0.53010  0.85264  1.0000
  C   C1872     1.0  0.51812  0.41060  0.89063  1.0000
  C   C1873     1.0  0.87348  0.57706  0.82333  1.0000
  C   C1874     1.0  0.81277  0.35217  0.77833  1.0000
  C   C1875     1.0  0.94608  0.63694  0.91917  1.0000
  H   H1867     1.0  0.84762  0.61540  0.76565  1.0000
  H   H1868     1.0  0.52566  0.35467  0.90352  1.0000
  C   C1876     1.0  0.85249  0.37809  0.86502  1.0000
  C   C1877     1.0  0.51460  0.54056  0.90814  1.0000
  C   C1878     1.0  0.50485  0.46000  0.92235  1.0000
  H   H1869     1.0  0.90090  0.63316  0.89493  1.0000
  H   H1870     1.0  0.85258  0.39575  0.86524  1.0000
  N   N155      1.0  0.53862  0.40273  0.91053  1.0000
  C   C1879     1.0  0.52913  0.41783  0.90010  1.0000
  C   C1880     1.0  0.53768  0.38025  0.91173  1.0000
  H   H1871     1.0  0.53632  0.64205  0.91854  1.0000
  C   C1881     1.0  0.53646  0.63554  0.90881  1.0000
  C   C1882     1.0  0.57105  0.53964  0.97122  1.0000
  H   H1872     1.0  0.50833  0.59856  0.93374  1.0000
  H   H1873     1.0  0.98302  0.62936  0.87754  1.0000
  H   H1874     1.0  0.54462  0.36833  0.92025  1.0000
  C   C1883     1.0  0.51906  0.47507  0.91427  1.0000
  C   C1884     1.0  0.50894  0.54301  0.94726  1.0000
  N   N156      1.0  0.95656  0.61179  0.88970  1.0000
  H   H1875     1.0  0.92861  0.64471  0.91940  1.0000
  H   H1876     1.0  0.80923  0.33328  0.74784  1.0000
  H   H1877     1.0  0.58577  0.49296  0.96373  1.0000
  C   C1885     1.0  0.52703  0.64094  0.88493  1.0000
  H   H1878     1.0  0.58032  0.63725  0.88703  1.0000
  C   C1886     1.0  0.84311  0.34180  0.87685  1.0000
  H   H1879     1.0  0.88224  0.34521  0.76338  1.0000
  H   H1880     1.0  0.80233  0.35998  0.78707  1.0000
  C   C1887     1.0  0.91884  0.63232  0.89085  1.0000
  H   H1881     1.0  0.98309  0.42559  0.94029  1.0000
  C   C1888     1.0  0.96346  0.64924  0.91216  1.0000
  C   C1889     1.0  0.93379  0.61268  0.89438  1.0000
  H   H1882     1.0  0.86459  0.35229  0.82874  1.0000
  Fe  Fe318     1.0  0.82267  0.32410  0.81682  1.0000
  H   H1883     1.0  0.50825  0.38194  0.88466  1.0000
  H   H1884     1.0  0.59667  0.46476  0.97133  1.0000
  C   C1890     1.0  0.52699  0.64955  0.89741  1.0000
  C   C1891     1.0  0.58736  0.48120  0.97392  1.0000
  H   H1885     1.0  0.53302  0.53565  0.90459  1.0000
  H   H1886     1.0  0.50795  0.55337  0.89950  1.0000
  H   H1887     1.0  0.51168  0.51706  0.93457  1.0000
  H   H1888     1.0  0.50738  0.57238  0.95700  1.0000
  H   H1889     1.0  0.85041  0.32356  0.74789  1.0000
  H   H1890     1.0  0.85283  0.32758  0.83714  1.0000
  C   C1892     1.0  0.58812  0.55235  0.97095  1.0000
  H   H1891     1.0  0.83651  0.33089  0.88637  1.0000
  C   C1893     1.0  0.95045  0.64975  0.87732  1.0000
  H   H1892     1.0  0.49615  0.44002  0.94294  1.0000
  C   C1894     1.0  0.98696  0.46138  0.97440  1.0000
  H   H1893     1.0  0.88198  0.32860  0.83790  1.0000
  H   H1894     1.0  0.90482  0.65063  0.73346  1.0000
  C   C1895     1.0  0.85077  0.65045  0.73367  1.0000
  C   C1896     1.0  0.90696  0.69405  0.13966  1.0000
  H   H1895     1.0  0.51285  0.69334  0.06273  1.0000
  S   S637      1.0  0.61385  0.66317  0.18509  1.0000
  C   C1897     1.0  0.89366  0.96029  0.10423  1.0000
  Fe  Fe319     1.0  0.69127  0.68813  0.17975  1.0000
  S   S638      1.0  0.70082  0.72301  0.17445  1.0000
  H   H1896     1.0  0.73495  0.94451  0.13515  1.0000
  H   H1897     1.0  0.52032  0.96248  0.10082  1.0000
  S   S639      1.0  0.53129  0.69191  0.10508  1.0000
  C   C1898     1.0  0.57162  0.71703  0.18239  1.0000
  C   C1899     1.0  0.90472  0.74035  0.10812  1.0000
  H   H1898     1.0  0.89221  0.75209  0.11426  1.0000
  H   H1899     1.0  0.83783  0.94689  0.08816  1.0000
  Fe  Fe320     1.0  0.53810  0.69954  0.12578  1.0000
  H   H1900     1.0  0.81359  0.80813  0.22559  1.0000
  H   H1901     1.0  0.93611  0.73477  0.19655  1.0000
  C   C1900     1.0  0.54882  0.73217  0.15916  1.0000
  S   S640      1.0  0.76268  0.98203  0.13790  1.0000
  H   H1902     1.0  0.51091  0.76623  0.10330  1.0000
  Fe  Fe321     1.0  0.80444  0.76958  0.18776  1.0000
  S   S641      1.0  0.80028  0.79766  0.20045  1.0000
  S   S642      1.0  0.78665  0.73957  0.19761  1.0000
  Fe  Fe322     1.0  0.84438  0.78678  0.16684  1.0000
  S   S643      1.0  0.84355  0.81597  0.17817  1.0000
  S   S644      1.0  0.87080  0.78296  0.14714  1.0000
  Fe  Fe323     1.0  0.83803  0.79123  0.19846  1.0000
  S   S645      1.0  0.85829  0.78457  0.21665  1.0000
  Fe  Fe324     1.0  0.80594  0.82000  0.17903  1.0000
  S   S646      1.0  0.78390  0.85397  0.17563  1.0000
  S   S647      1.0  0.84208  0.76180  0.18700  1.0000
  S   S648      1.0  0.80685  0.79228  0.16635  1.0000
  C   C1901     1.0  0.94372  0.75555  0.17609  1.0000
  C   C1902     1.0  0.93625  0.77492  0.16690  1.0000
  H   H1903     1.0  0.51057  0.95078  0.03515  1.0000
  Fe  Fe325     1.0  0.50055  0.71818  0.10783  1.0000
  C   C1903     1.0  0.50577  0.98027  0.06593  1.0000
  H   H1904     1.0  0.78842  0.86484  0.12604  1.0000
  S   S649      1.0  0.81465  0.93263  0.12679  1.0000
  C   C1904     1.0  0.81950  0.74154  0.22653  1.0000
  S   S650      1.0  0.57288  0.70486  0.12829  1.0000
  S   S651      1.0  0.95852  0.71016  0.15127  1.0000
  H   H1905     1.0  0.72332  0.91187  0.15028  1.0000
  H   H1906     1.0  0.88584  0.72568  0.13499  1.0000
  H   H1907     1.0  0.76122  0.94215  0.12329  1.0000
  C   C1905     1.0  0.50534  0.95347  0.10308  1.0000
  H   H1908     1.0  0.51821  0.92477  0.06299  1.0000
  Fe  Fe326     1.0  0.50948  0.66815  0.11938  1.0000
  H   H1909     1.0  0.49306  0.96338  0.09618  1.0000
  H   H1910     1.0  0.70474  0.67532  0.21989  1.0000
  S   S652      1.0  0.66725  0.67705  0.19955  1.0000
  H   H1911     1.0  0.73263  0.87158  0.16034  1.0000
  C   C1906     1.0  0.79436  0.87622  0.16310  1.0000
  C   C1907     1.0  0.81338  0.87223  0.15272  1.0000
  C   C1908     1.0  0.81981  0.88986  0.14188  1.0000
  C   C1909     1.0  0.80735  0.91158  0.14138  1.0000
  C   C1910     1.0  0.78872  0.91572  0.15200  1.0000
  C   C1911     1.0  0.78225  0.89808  0.16280  1.0000
  H   H1912     1.0  0.82276  0.85544  0.15281  1.0000
  H   H1913     1.0  0.83424  0.88653  0.13370  1.0000
  H   H1914     1.0  0.77910  0.93241  0.15178  1.0000
  H   H1915     1.0  0.76756  0.90128  0.17083  1.0000
  C   C1912     1.0  0.89502  0.76262  0.14852  1.0000
  C   C1913     1.0  0.91374  0.76389  0.13758  1.0000
  C   C1914     1.0  0.93334  0.74791  0.13832  1.0000
  C   C1915     1.0  0.93422  0.73040  0.14994  1.0000
  C   C1916     1.0  0.91547  0.72911  0.16087  1.0000
  C   C1917     1.0  0.89594  0.74521  0.16019  1.0000
  H   H1916     1.0  0.91318  0.77742  0.12856  1.0000
  H   H1917     1.0  0.94783  0.74936  0.13000  1.0000
  H   H1918     1.0  0.91607  0.71563  0.16992  1.0000
  H   H1919     1.0  0.88156  0.74397  0.16861  1.0000
  H   H1920     1.0  0.55802  0.67210  0.15296  1.0000
  C   C1918     1.0  0.52038  0.94115  0.06473  1.0000
  C   C1919     1.0  0.54076  0.94419  0.06851  1.0000
  C   C1920     1.0  0.54342  0.96510  0.07146  1.0000
  H   H1921     1.0  0.91492  0.80652  0.14973  1.0000
  C   C1921     1.0  0.71833  0.67665  0.22586  1.0000
  H   H1922     1.0  0.92507  0.96950  0.09190  1.0000
  H   H1923     1.0  0.55422  0.93012  0.06964  1.0000
  H   H1924     1.0  0.57560  0.75209  0.15044  1.0000
  H   H1925     1.0  0.59613  0.73831  0.17127  1.0000
  C   C1922     1.0  0.57358  0.67688  0.15441  1.0000
  H   H1926     1.0  0.54040  0.73774  0.14982  1.0000
  C   C1923     1.0  0.49569  0.91972  0.09679  1.0000
  C   C1924     1.0  0.51414  0.95641  0.02371  1.0000
  C   C1925     1.0  0.50131  0.89763  0.09394  1.0000
  C   C1926     1.0  0.50332  0.80116  0.09417  1.0000
  C   C1927     1.0  0.72505  0.72728  0.18063  1.0000
  C   C1928     1.0  0.73603  0.71053  0.19008  1.0000
  C   C1929     1.0  0.75495  0.71450  0.19516  1.0000
  C   C1930     1.0  0.76321  0.73511  0.19068  1.0000
  C   C1931     1.0  0.75240  0.75179  0.18112  1.0000
  C   C1932     1.0  0.73327  0.74792  0.17618  1.0000
  H   H1927     1.0  0.72986  0.69458  0.19349  1.0000
  H   H1928     1.0  0.76335  0.70152  0.20250  1.0000
  H   H1929     1.0  0.75861  0.76774  0.17765  1.0000
  H   H1930     1.0  0.72484  0.76093  0.16887  1.0000
  C   C1933     1.0  0.51990  0.70788  0.16970  1.0000
  C   C1934     1.0  0.61410  0.68889  0.15832  1.0000
  C   C1935     1.0  0.60464  0.69819  0.14589  1.0000
  C   C1936     1.0  0.58428  0.69238  0.14394  1.0000
  C   C1937     1.0  0.74535  0.93473  0.12695  1.0000
  S   S653      1.0  0.71642  0.65669  0.18169  1.0000
  H   H1931     1.0  0.62928  0.69423  0.15992  1.0000
  H   H1932     1.0  0.61298  0.71021  0.13785  1.0000
  H   H1933     1.0  0.76524  0.84794  0.14820  1.0000
  S   S654      1.0  0.49477  0.84550  0.08234  1.0000
  H   H1934     1.0  0.73235  0.66292  0.22333  1.0000
  C   C1938     1.0  0.50260  0.95907  0.06383  1.0000
  S   S655      1.0  0.56692  0.96724  0.07920  1.0000
  N   N157      1.0  0.86277  0.96511  0.09103  1.0000
  H   H1935     1.0  0.86982  0.97718  0.06862  1.0000
  C   C1939     1.0  0.92933  0.70423  0.11194  1.0000
  H   H1936     1.0  0.90003  0.95614  0.11435  1.0000
  H   H1937     1.0  0.54605  0.92820  0.10276  1.0000
  N   N158      1.0  0.54067  0.71657  0.17016  1.0000
  C   C1940     1.0  0.93669  0.68417  0.12054  1.0000
  C   C1941     1.0  0.60327  0.67367  0.16890  1.0000
  H   H1938     1.0  0.57456  0.65584  0.17505  1.0000
  S   S656      1.0  0.51831  0.67402  0.13997  1.0000
  S   S657      1.0  0.67342  0.67621  0.16476  1.0000
  H   H1939     1.0  0.51606  0.71052  0.15861  1.0000
  Fe  Fe327     1.0  0.79434  0.96765  0.12464  1.0000
  H   H1940     1.0  0.93153  0.66395  0.14142  1.0000
  H   H1941     1.0  0.77903  0.90526  0.11648  1.0000
  H   H1942     1.0  0.55679  0.88920  0.09765  1.0000
  H   H1943     1.0  0.73600  0.93704  0.11777  1.0000
  H   H1944     1.0  0.81434  0.72821  0.22194  1.0000
  C   C1942     1.0  0.53949  0.89754  0.09757  1.0000
  H   H1945     1.0  0.91504  0.82323  0.16345  1.0000
  H   H1946     1.0  0.54533  0.69664  0.19041  1.0000
  C   C1943     1.0  0.58304  0.66761  0.16688  1.0000
  N   N159      1.0  0.91151  0.71906  0.11722  1.0000
  C   C1944     1.0  0.90003  0.71400  0.13079  1.0000
  H   H1947     1.0  0.89708  0.73711  0.09921  1.0000
  C   C1945     1.0  0.90777  0.96748  0.09163  1.0000
  H   H1948     1.0  0.66056  0.67704  0.11856  1.0000
  H   H1949     1.0  0.89833  0.69047  0.15058  1.0000
  H   H1950     1.0  0.91970  0.74899  0.10361  1.0000
  C   C1946     1.0  0.87108  0.95899  0.10371  1.0000
  S   S658      1.0  0.50934  0.72808  0.12713  1.0000
  H   H1951     1.0  0.94625  0.77888  0.15642  1.0000
  C   C1947     1.0  0.61326  0.65196  0.12867  1.0000
  H   H1952     1.0  0.95913  0.74458  0.17266  1.0000
  H   H1953     1.0  0.50012  0.94824  0.99260  1.0000
  N   N160      1.0  0.51167  0.93044  0.09992  1.0000
  H   H1954     1.0  0.93825  0.70800  0.10110  1.0000
  N   N161      1.0  0.75048  0.91079  0.13271  1.0000
  C   C1948     1.0  0.73734  0.90152  0.14475  1.0000
  C   C1949     1.0  0.76831  0.89777  0.12583  1.0000
  C   C1950     1.0  0.74232  0.87872  0.15040  1.0000
  C   C1951     1.0  0.77368  0.87490  0.13115  1.0000
  C   C1952     1.0  0.76062  0.86538  0.14354  1.0000
  C   C1953     1.0  0.93071  0.74995  0.18943  1.0000
  C   C1954     1.0  0.87656  0.97188  0.07861  1.0000
  C   C1955     1.0  0.58023  0.73270  0.17113  1.0000
  C   C1956     1.0  0.52246  0.97091  0.99441  1.0000
  C   C1957     1.0  0.53255  0.97932  0.00384  1.0000
  C   C1958     1.0  0.55161  0.70922  0.18177  1.0000
  H   H1955     1.0  0.90995  0.97946  0.06897  1.0000
  H   H1956     1.0  0.90036  0.75979  0.20388  1.0000
  N   N162      1.0  0.91626  0.78820  0.17084  1.0000
  C   C1959     1.0  0.90368  0.78312  0.18406  1.0000
  C   C1960     1.0  0.91062  0.76386  0.19350  1.0000
  H   H1957     1.0  0.88807  0.79385  0.18737  1.0000
  H   H1958     1.0  0.51382  0.80677  0.10033  1.0000
  H   H1959     1.0  0.82857  0.96563  0.10116  1.0000
  H   H1960     1.0  0.62283  0.67828  0.11153  1.0000
  C   C1961     1.0  0.90881  0.80853  0.16112  1.0000
  Fe  Fe328     1.0  0.65130  0.66257  0.18460  1.0000
  C   C1962     1.0  0.56873  0.74042  0.15945  1.0000
  C   C1963     1.0  0.89929  0.97304  0.07870  1.0000
  H   H1961     1.0  0.58089  0.71028  0.19126  1.0000
  H   H1962     1.0  0.53936  0.65144  0.09178  1.0000
  H   H1963     1.0  0.52788  0.86954  0.09178  1.0000
  H   H1964     1.0  0.83200  0.97713  0.08259  1.0000
  H   H1965     1.0  0.50526  0.71652  0.17640  1.0000
  C   C1964     1.0  0.53327  0.91955  0.10054  1.0000
  S   S659      1.0  0.97897  0.72574  0.10974  1.0000
  C   C1965     1.0  0.92558  0.67919  0.13454  1.0000
  S   S660      1.0  0.97984  0.67887  0.08715  1.0000
  H   H1966     1.0  0.95112  0.67272  0.11642  1.0000
  H   H1967     1.0  0.52157  0.68946  0.17355  1.0000
  H   H1968     1.0  0.86011  0.95343  0.11355  1.0000
  C   C1966     1.0  0.52610  0.98328  0.06974  1.0000
  C   C1967     1.0  0.64904  0.66577  0.12463  1.0000
  H   H1969     1.0  0.72423  0.69320  0.22186  1.0000
  C   C1968     1.0  0.83916  0.96354  0.09066  1.0000
  H   H1970     1.0  0.82203  0.75609  0.21791  1.0000
  C   C1969     1.0  0.62801  0.66632  0.12061  1.0000
  C   C1970     1.0  0.50443  0.67912  0.06810  1.0000
  N   N163      1.0  0.52846  0.97194  0.01829  1.0000
  S   S661      1.0  0.78083  0.97970  0.10390  1.0000
  H   H1971     1.0  0.54361  0.96838  0.03708  1.0000
  H   H1972     1.0  0.89004  0.81191  0.16226  1.0000
  C   C1971     1.0  0.52336  0.88656  0.09424  1.0000
  C   C1972     1.0  0.53850  0.98150  0.02811  1.0000
  C   C1973     1.0  0.50750  0.65966  0.06192  1.0000
  C   C1974     1.0  0.50161  0.77817  0.09591  1.0000
  H   H1973     1.0  0.49771  0.95319  0.11451  1.0000
  H   H1974     1.0  0.67020  0.98404  0.11325  1.0000
  C   C1975     1.0  0.50388  0.94753  0.01457  1.0000
  H   H1975     1.0  0.51855  0.65844  0.05176  1.0000
  H   H1976     1.0  0.77828  0.76310  0.22391  1.0000
  H   H1977     1.0  0.52571  0.97687  0.98297  1.0000
  H   H1978     1.0  0.95789  0.65697  0.07083  1.0000
  C   C1976     1.0  0.50807  0.95488  0.99983  1.0000
  Fe  Fe329     1.0  0.98538  0.70881  0.13161  1.0000
  H   H1979     1.0  0.59658  0.65284  0.12588  1.0000
  S   S662      1.0  0.49636  0.89494  0.05014  1.0000
  H   H1980     1.0  0.49272  0.93505  0.01891  1.0000
  H   H1981     1.0  0.49297  0.83784  0.98473  1.0000
  C   C1977     1.0  0.97181  0.65167  0.09046  1.0000
  H   H1982     1.0  0.92417  0.86569  0.40915  1.0000
  C   C1978     1.0  0.68773  0.67817  0.24647  1.0000
  C   C1979     1.0  0.99003  0.78151  0.40525  1.0000
  S   S663      1.0  0.96910  0.72028  0.39775  1.0000
  C   C1980     1.0  0.85609  0.68926  0.33195  1.0000
  C   C1981     1.0  0.90713  0.86413  0.40798  1.0000
  Fe  Fe330     1.0  0.96443  0.71827  0.37545  1.0000
  S   S664      1.0  0.92794  0.72905  0.37231  1.0000
  H   H1983     1.0  0.74212  0.71558  0.29504  1.0000
  N   N164      1.0  0.98584  0.71320  0.43567  1.0000
  C   C1982     1.0  0.98180  0.81231  0.41929  1.0000
  Fe  Fe331     1.0  0.80804  0.73595  0.32097  1.0000
  S   S665      1.0  0.83334  0.74176  0.30095  1.0000
  S   S666      1.0  0.79540  0.70272  0.32945  1.0000
  Fe  Fe332     1.0  0.81005  0.78146  0.32943  1.0000
  S   S667      1.0  0.83519  0.79111  0.30997  1.0000
  S   S668      1.0  0.79891  0.80015  0.34834  1.0000
  Fe  Fe333     1.0  0.81380  0.77668  0.29821  1.0000
  S   S669      1.0  0.80079  0.79429  0.27790  1.0000
  Fe  Fe334     1.0  0.85244  0.75545  0.31453  1.0000
  S   S670      1.0  0.89050  0.74687  0.31340  1.0000
  S   S671      1.0  0.78703  0.76990  0.31746  1.0000
  S   S672      1.0  0.82875  0.74670  0.33474  1.0000
  Fe  Fe335     1.0  0.94567  0.85389  0.44250  1.0000
  S   S673      1.0  0.95890  0.87966  0.42462  1.0000
  C   C1983     1.0  0.67016  0.90708  0.44064  1.0000
  Fe  Fe336     1.0  0.92844  0.88850  0.46288  1.0000
  S   S674      1.0  0.93996  0.91686  0.44625  1.0000
  H   H1984     1.0  0.90687  0.68753  0.35114  1.0000
  Fe  Fe337     1.0  0.92604  0.90151  0.43095  1.0000
  S   S675      1.0  0.90747  0.92291  0.41367  1.0000
  H   H1985     1.0  0.65840  0.91678  0.43334  1.0000
  S   S676      1.0  0.91198  0.87506  0.44787  1.0000
  Fe  Fe338     1.0  0.78883  0.92232  0.36119  1.0000
  S   S677      1.0  0.77168  0.90545  0.38211  1.0000
  S   S678      1.0  0.79992  0.90494  0.34171  1.0000
  H   H1986     1.0  0.54290  0.92086  0.47424  1.0000
  S   S679      1.0  0.76680  0.95380  0.39331  1.0000
  Fe  Fe339     1.0  0.79305  0.92326  0.39179  1.0000
  S   S680      1.0  0.80897  0.90520  0.41103  1.0000
  Fe  Fe340     1.0  0.74705  0.93733  0.38174  1.0000
  S   S681      1.0  0.70875  0.93930  0.38633  1.0000
  S   S682      1.0  0.81234  0.93761  0.37084  1.0000
  S   S683      1.0  0.76273  0.95347  0.36006  1.0000
  Fe  Fe341     1.0  0.61565  0.86342  0.42701  1.0000
  S   S684      1.0  0.60316  0.83671  0.44486  1.0000
  S   S685      1.0  0.65399  0.86263  0.42272  1.0000
  Fe  Fe342     1.0  0.56798  0.88170  0.42086  1.0000
  S   S686      1.0  0.55238  0.85598  0.43774  1.0000
  S   S687      1.0  0.54243  0.90648  0.40933  1.0000
  Fe  Fe343     1.0  0.57525  0.86383  0.45136  1.0000
  H   H1987     1.0  0.62365  0.66817  0.33113  1.0000
  Fe  Fe344     1.0  0.58125  0.83095  0.42975  1.0000
  S   S688      1.0  0.57900  0.79421  0.42931  1.0000
  S   S689      1.0  0.58927  0.89111  0.43494  1.0000
  S   S690      1.0  0.59541  0.85596  0.41147  1.0000
  H   H1988     1.0  0.66772  0.88917  0.44187  1.0000
  H   H1989     1.0  0.72429  0.94907  0.41464  1.0000
  H   H1990     1.0  0.79153  0.81175  0.24962  1.0000
  Fe  Fe345     1.0  0.51990  0.69967  0.37057  1.0000
  S   S691      1.0  0.54692  0.69959  0.35090  1.0000
  S   S692      1.0  0.52829  0.69422  0.39285  1.0000
  C   C1984     1.0  0.53247  0.93224  0.41575  1.0000
  C   C1985     1.0  0.54581  0.94144  0.42286  1.0000
  C   C1986     1.0  0.53725  0.96144  0.42845  1.0000
  H   H1991     1.0  0.50427  0.95833  0.46546  1.0000
  H   H1992     1.0  0.54789  0.73895  0.36447  1.0000
  S   S693      1.0  0.50584  0.75910  0.40246  1.0000
  H   H1993     1.0  0.56281  0.93329  0.42392  1.0000
  H   H1994     1.0  0.91250  0.69168  0.32455  1.0000
  H   H1995     1.0  0.96561  0.73981  0.44591  1.0000
  C   C1987     1.0  0.55838  0.78464  0.42198  1.0000
  C   C1988     1.0  0.54085  0.79952  0.41625  1.0000
  C   C1989     1.0  0.52478  0.79127  0.41056  1.0000
  C   C1990     1.0  0.52618  0.76814  0.41033  1.0000
  C   C1991     1.0  0.54374  0.75322  0.41603  1.0000
  C   C1992     1.0  0.55970  0.76146  0.42187  1.0000
  H   H1996     1.0  0.53957  0.81737  0.41630  1.0000
  H   H1997     1.0  0.94574  0.97216  0.40934  1.0000
  H   H1998     1.0  0.54497  0.73537  0.41599  1.0000
  H   H1999     1.0  0.57315  0.74980  0.42634  1.0000
  C   C1993     1.0  0.57616  0.72458  0.37532  1.0000
  H   H2000     1.0  0.87151  0.90554  0.37985  1.0000
  Fe  Fe346     1.0  0.78468  0.96744  0.37158  1.0000
  H   H2001     1.0  0.54464  0.78932  0.36053  1.0000
  H   H2002     1.0  0.50141  0.89564  0.44039  1.0000
  C   C1994     1.0  0.69386  0.91733  0.39584  1.0000
  C   C1995     1.0  0.70511  0.89642  0.40134  1.0000
  C   C1996     1.0  0.69260  0.87963  0.40924  1.0000
  C   C1997     1.0  0.66880  0.88352  0.41161  1.0000
  C   C1998     1.0  0.65758  0.90425  0.40582  1.0000
  C   C1999     1.0  0.67009  0.92108  0.39800  1.0000
  H   H2003     1.0  0.72340  0.89328  0.39969  1.0000
  H   H2004     1.0  0.70139  0.86361  0.41368  1.0000
  H   H2005     1.0  0.63926  0.90744  0.40757  1.0000
  H   H2006     1.0  0.66125  0.93718  0.39369  1.0000
  C   C2000     1.0  0.87882  0.92023  0.41424  1.0000
  C   C2001     1.0  0.86800  0.90495  0.42481  1.0000
  C   C2002     1.0  0.84609  0.90129  0.42413  1.0000
  C   C2003     1.0  0.83479  0.91290  0.41288  1.0000
  C   C2004     1.0  0.84507  0.92909  0.40273  1.0000
  C   C2005     1.0  0.86708  0.93261  0.40335  1.0000
  H   H2007     1.0  0.87661  0.89558  0.43336  1.0000
  H   H2008     1.0  0.83816  0.88895  0.43213  1.0000
  H   H2009     1.0  0.83633  0.93855  0.39419  1.0000
  H   H2010     1.0  0.87516  0.94471  0.39523  1.0000
  C   C2006     1.0  0.80048  0.82904  0.34625  1.0000
  C   C2007     1.0  0.79700  0.83931  0.35850  1.0000
  C   C2008     1.0  0.79742  0.86247  0.35725  1.0000
  C   C2009     1.0  0.80126  0.87553  0.34371  1.0000
  C   C2010     1.0  0.80516  0.86517  0.33145  1.0000
  C   C2011     1.0  0.80471  0.84198  0.33270  1.0000
  H   H2011     1.0  0.79374  0.82935  0.36902  1.0000
  H   H2012     1.0  0.79463  0.87018  0.36676  1.0000
  H   H2013     1.0  0.80808  0.87521  0.32093  1.0000
  H   H2014     1.0  0.80725  0.83423  0.32318  1.0000
  C   C2012     1.0  0.80838  0.80221  0.24867  1.0000
  C   C2013     1.0  0.81760  0.79216  0.26106  1.0000
  C   C2014     1.0  0.83944  0.77993  0.25976  1.0000
  H   H2015     1.0  0.97457  0.91387  0.46443  1.0000
  H   H2016     1.0  0.84668  0.77213  0.26928  1.0000
  H   H2017     1.0  0.56898  0.78217  0.38780  1.0000
  C   C2015     1.0  0.87748  0.69096  0.32383  1.0000
  C   C2016     1.0  0.59069  0.72818  0.38404  1.0000
  C   C2017     1.0  0.96092  0.80560  0.42561  1.0000
  C   C2018     1.0  0.95445  0.78717  0.42147  1.0000
  C   C2019     1.0  0.96880  0.77535  0.41123  1.0000
  N   N165      1.0  0.87532  0.87574  0.39534  1.0000
  H   H2018     1.0  0.57796  0.70843  0.37177  1.0000
  H   H2019     1.0  0.77116  0.66500  0.33633  1.0000
  H   H2020     1.0  0.95570  0.70301  0.44883  1.0000
  C   C2020     1.0  0.91833  0.73289  0.35578  1.0000
  C   C2021     1.0  0.93300  0.73017  0.34297  1.0000
  C   C2022     1.0  0.92436  0.73444  0.32996  1.0000
  C   C2023     1.0  0.90111  0.74144  0.32975  1.0000
  C   C2024     1.0  0.88660  0.74401  0.34260  1.0000
  C   C2025     1.0  0.89514  0.73961  0.35555  1.0000
  H   H2021     1.0  0.95094  0.72500  0.34310  1.0000
  H   H2022     1.0  0.93570  0.73244  0.32003  1.0000
  H   H2023     1.0  0.86884  0.74971  0.34260  1.0000
  H   H2024     1.0  0.88375  0.74182  0.36544  1.0000
  S   S694      1.0  0.96092  0.86476  0.45931  1.0000
  H   H2025     1.0  0.93830  0.78190  0.42628  1.0000
  H   H2026     1.0  0.59920  0.75207  0.39537  1.0000
  C   C2026     1.0  0.73946  0.68451  0.30966  1.0000
  C   C2027     1.0  0.74769  0.67029  0.32132  1.0000
  C   C2028     1.0  0.76486  0.67606  0.32731  1.0000
  C   C2029     1.0  0.77380  0.69609  0.32172  1.0000
  C   C2030     1.0  0.76558  0.71033  0.31006  1.0000
  C   C2031     1.0  0.74848  0.70450  0.30403  1.0000
  H   H2027     1.0  0.70712  0.87700  0.44402  1.0000
  S   S695      1.0  0.98322  0.68321  0.37612  1.0000
  H   H2028     1.0  0.77234  0.72582  0.30572  1.0000
  H   H2029     1.0  0.50033  0.93651  0.40843  1.0000
  C   C2032     1.0  0.53870  0.78023  0.37130  1.0000
  C   C2033     1.0  0.86526  0.88903  0.38310  1.0000
  H   H2030     1.0  0.74863  0.77676  0.24304  1.0000
  C   C2034     1.0  0.89275  0.68753  0.34569  1.0000
  N   N166      1.0  0.85313  0.68669  0.34659  1.0000
  H   H2031     1.0  0.56667  0.80795  0.45967  1.0000
  C   C2035     1.0  0.57236  0.68072  0.35174  1.0000
  C   C2036     1.0  0.59023  0.68255  0.34023  1.0000
  H   H2032     1.0  0.97680  0.94331  0.44140  1.0000
  H   H2033     1.0  0.58855  0.69600  0.33125  1.0000
  Fe  Fe347     1.0  0.50369  0.72600  0.39543  1.0000
  C   C2037     1.0  0.89593  0.68983  0.33077  1.0000
  C   C2038     1.0  0.72586  0.66932  0.25059  1.0000
  C   C2039     1.0  0.55911  0.74192  0.37125  1.0000
  N   N167      1.0  0.73006  0.89551  0.35309  1.0000
  C   C2040     1.0  0.74361  0.87795  0.34739  1.0000
  C   C2041     1.0  0.71331  0.89159  0.36449  1.0000
  C   C2042     1.0  0.74110  0.85571  0.35344  1.0000
  C   C2043     1.0  0.71038  0.86958  0.37087  1.0000
  C   C2044     1.0  0.72448  0.85155  0.36533  1.0000
  C   C2045     1.0  0.73272  0.91865  0.34642  1.0000
  H   H2034     1.0  0.75656  0.88110  0.33814  1.0000
  H   H2035     1.0  0.70214  0.90553  0.36873  1.0000
  H   H2036     1.0  0.75206  0.84181  0.34898  1.0000
  H   H2037     1.0  0.69722  0.86658  0.38003  1.0000
  H   H2038     1.0  0.72248  0.83437  0.37017  1.0000
  H   H2039     1.0  0.72609  0.93061  0.35417  1.0000
  H   H2040     1.0  0.75092  0.92020  0.34268  1.0000
  H   H2041     1.0  0.72351  0.92371  0.33711  1.0000
  H   H2042     1.0  0.56307  0.66727  0.31748  1.0000
  H   H2043     1.0  0.82017  0.70250  0.35399  1.0000
  H   H2044     1.0  0.90646  0.88907  0.38909  1.0000
  C   C2046     1.0  0.89703  0.87724  0.39662  1.0000
  C   C2047     1.0  0.61013  0.66678  0.34013  1.0000
  C   C2048     1.0  0.96324  0.96409  0.40800  1.0000
  Fe  Fe348     1.0  0.97150  0.89250  0.44171  1.0000
  C   C2049     1.0  0.50351  0.94413  0.46039  1.0000
  C   C2050     1.0  0.60079  0.65869  0.29847  1.0000
  H   H2045     1.0  0.51120  0.80296  0.40625  1.0000
  N   N168      1.0  0.55650  0.76222  0.37585  1.0000
  C   C2051     1.0  0.78927  0.75105  0.26307  1.0000
  N   N169      1.0  0.88104  0.80042  0.33854  1.0000
  C   C2052     1.0  0.89146  0.79564  0.35043  1.0000
  C   C2053     1.0  0.89334  0.79844  0.32528  1.0000
  C   C2054     1.0  0.91493  0.78922  0.34917  1.0000
  C   C2055     1.0  0.91684  0.79218  0.32362  1.0000
  C   C2056     1.0  0.92766  0.78756  0.33566  1.0000
  C   C2057     1.0  0.85636  0.80598  0.34012  1.0000
  H   H2046     1.0  0.88158  0.79612  0.36101  1.0000
  H   H2047     1.0  0.88494  0.80102  0.31595  1.0000
  H   H2048     1.0  0.92306  0.78460  0.35867  1.0000
  H   H2049     1.0  0.92640  0.78999  0.31314  1.0000
  H   H2050     1.0  0.94575  0.78186  0.33462  1.0000
  H   H2051     1.0  0.84925  0.81433  0.34964  1.0000
  H   H2052     1.0  0.85101  0.81775  0.33064  1.0000
  H   H2053     1.0  0.84870  0.79042  0.34131  1.0000
  N   N170      1.0  0.80194  0.74862  0.23813  1.0000
  S   S696      1.0  0.66392  0.65208  0.31162  1.0000
  C   C2058     1.0  0.50191  0.96330  0.41985  1.0000
  N   N171      1.0  0.71040  0.67435  0.24135  1.0000
  H   H2054     1.0  0.84183  0.69025  0.32645  1.0000
  H   H2055     1.0  0.74707  0.88198  0.43456  1.0000
  C   C2059     1.0  0.69839  0.93008  0.42676  1.0000
  C   C2060     1.0  0.89494  0.84938  0.41802  1.0000
  C   C2061     1.0  0.51518  0.97223  0.42717  1.0000
  H   H2056     1.0  0.73092  0.66362  0.27279  1.0000
  C   C2062     1.0  0.58819  0.74908  0.38845  1.0000
  C   C2063     1.0  0.52129  0.91075  0.45131  1.0000
  H   H2057     1.0  0.53612  0.89836  0.44933  1.0000
  C   C2064     1.0  0.87286  0.84788  0.41660  1.0000
  C   C2065     1.0  0.51065  0.94345  0.41403  1.0000
  H   H2058     1.0  0.97595  0.68067  0.44229  1.0000
  Fe  Fe349     1.0  0.49764  0.67597  0.39863  1.0000
  H   H2059     1.0  0.79273  0.74815  0.27401  1.0000
  H   H2060     1.0  0.56110  0.66192  0.37232  1.0000
  C   C2066     1.0  0.86328  0.86118  0.40508  1.0000
  N   N172      1.0  0.69368  0.90999  0.43472  1.0000
  C   C2067     1.0  0.84261  0.78785  0.23369  1.0000
  C   C2068     1.0  0.71086  0.89292  0.43769  1.0000
  C   C2069     1.0  0.76862  0.76306  0.25985  1.0000
  S   S697      1.0  0.98414  0.65916  0.41635  1.0000
  C   C2070     1.0  0.73838  0.91594  0.42413  1.0000
  S   S698      1.0  0.55662  0.87083  0.47309  1.0000
  C   C2071     1.0  0.80592  0.74405  0.25201  1.0000
  S   S699      1.0  0.71812  0.67780  0.30174  1.0000
  C   C2072     1.0  0.78147  0.75976  0.23492  1.0000
  C   C2073     1.0  0.68003  0.67658  0.26121  1.0000
  C   C2074     1.0  0.83041  0.68547  0.35483  1.0000
  C   C2075     1.0  0.57476  0.66347  0.36338  1.0000
  H   H2061     1.0  0.53364  0.79234  0.37904  1.0000
  H   H2062     1.0  0.86864  0.68506  0.36503  1.0000
  C   C2076     1.0  0.76459  0.76735  0.24569  1.0000
  H   H2063     1.0  0.52313  0.77324  0.37103  1.0000
  H   H2064     1.0  0.58875  0.67439  0.29634  1.0000
  H   H2065     1.0  0.54510  0.94773  0.46259  1.0000
  H   H2066     1.0  0.87962  0.69373  0.31220  1.0000
  H   H2067     1.0  0.75600  0.76936  0.26830  1.0000
  H   H2068     1.0  0.86942  0.87972  0.37387  1.0000
  C   C2077     1.0  0.98176  0.73398  0.43980  1.0000
  H   H2069     1.0  0.67545  0.68201  0.23917  1.0000
  H   H2070     1.0  0.84652  0.89286  0.38588  1.0000
  C   C2078     1.0  0.72076  0.93332  0.42131  1.0000
  H   H2071     1.0  0.82158  0.67437  0.35052  1.0000
  C   C2079     1.0  0.82079  0.80000  0.23504  1.0000
  H   H2072     1.0  0.90255  0.83934  0.42696  1.0000
  H   H2073     1.0  0.60383  0.71478  0.38738  1.0000
  S   S700      1.0  0.94310  0.81867  0.43939  1.0000
  H   H2074     1.0  0.86312  0.83674  0.42448  1.0000
  H   H2075     1.0  0.98702  0.82642  0.42246  1.0000
  H   H2076     1.0  0.74382  0.66649  0.24654  1.0000
  C   C2080     1.0  0.87105  0.68624  0.35347  1.0000
  H   H2077     1.0  0.68993  0.66992  0.28216  1.0000
  C   C2081     1.0  0.85196  0.77789  0.24608  1.0000
  H   H2078     1.0  0.86889  0.76854  0.24511  1.0000
  N   N173      1.0  0.52219  0.92833  0.45802  1.0000
  H   H2079     1.0  0.66535  0.91275  0.45125  1.0000
  C   C2082     1.0  0.99070  0.93048  0.40715  1.0000
  H   H2080     1.0  0.68481  0.94354  0.42422  1.0000
  H   H2081     1.0  0.54768  0.96846  0.43392  1.0000
  H   H2082     1.0  0.96359  0.76119  0.40823  1.0000
  C   C2083     1.0  0.73345  0.89560  0.43239  1.0000
  C   C2084     1.0  0.57102  0.76608  0.38412  1.0000
  H   H2083     1.0  0.84592  0.86031  0.40423  1.0000
  H   H2084     1.0  0.54464  0.82799  0.46719  1.0000
  C   C2085     1.0  0.69566  0.67130  0.27070  1.0000
  C   C2086     1.0  0.97630  0.91070  0.47565  1.0000
  C   C2087     1.0  0.54308  0.92989  0.46307  1.0000
  H   H2085     1.0  0.55817  0.92212  0.45624  1.0000
  H   H2086     1.0  0.82224  0.73558  0.25457  1.0000
  H   H2087     1.0  0.83088  0.67861  0.36632  1.0000
  H   H2088     1.0  0.66205  0.67888  0.26530  1.0000
  C   C2088     1.0  0.71872  0.66767  0.26540  1.0000
  S   S701      1.0  0.49684  0.73236  0.37273  1.0000
  H   H2089     1.0  0.95940  0.69975  0.43019  1.0000
  C   C2089     1.0  0.50158  0.90904  0.44633  1.0000
  C   C2090     1.0  0.96831  0.69853  0.43948  1.0000
  H   H2090     1.0  0.74084  0.65485  0.32571  1.0000
  C   C2091     1.0  0.96819  0.94079  0.40877  1.0000
  H   H2091     1.0  0.95456  0.93077  0.41072  1.0000
  C   C2092     1.0  0.55431  0.81086  0.46948  1.0000
  H   H2092     1.0  0.75584  0.91815  0.41986  1.0000
  Fe  Fe350     1.0  0.99055  0.68659  0.39749  1.0000
  H   H2093     1.0  0.54256  0.79826  0.47145  1.0000
  H   H2094     1.0  0.61771  0.66345  0.29818  1.0000
  C   C2093     1.0  0.98099  0.97681  0.40557  1.0000
  H   H2095     1.0  0.98477  0.98214  0.43952  1.0000
  C   C2094     1.0  0.57389  0.65178  0.32081  1.0000
  H   H2096     1.0  0.83613  0.73534  0.23017  1.0000
  H   H2097     1.0  0.59747  0.79409  0.47200  1.0000
  Fe  Fe351     1.0  0.92648  0.87721  0.56258  1.0000
  S   S702      1.0  0.94636  0.88217  0.57901  1.0000
  S   S703      1.0  0.94500  0.86328  0.54271  1.0000
  Fe  Fe352     1.0  0.88089  0.89053  0.58061  1.0000
  S   S704      1.0  0.89700  0.89658  0.59841  1.0000
  S   S705      1.0  0.84340  0.89381  0.57977  1.0000
  Fe  Fe353     1.0  0.92119  0.91352  0.58091  1.0000
  S   S706      1.0  0.92974  0.94657  0.58389  1.0000
  Fe  Fe354     1.0  0.92070  0.86472  0.59501  1.0000
  S   S707      1.0  0.92870  0.84009  0.61473  1.0000
  S   S708      1.0  0.90324  0.91002  0.56320  1.0000
  S   S709      1.0  0.90274  0.85715  0.57850  1.0000
  Fe  Fe355     1.0  0.56024  0.90194  0.56251  1.0000
  S   S710      1.0  0.59715  0.89274  0.55382  1.0000
  S   S711      1.0  0.54438  0.93789  0.55566  1.0000
  Fe  Fe356     1.0  0.55644  0.85452  0.57853  1.0000
  S   S712      1.0  0.59253  0.84171  0.57071  1.0000
  S   S713      1.0  0.53652  0.83329  0.59657  1.0000
  Fe  Fe357     1.0  0.60013  0.87356  0.57585  1.0000
  S   S714      1.0  0.62672  0.86902  0.59021  1.0000
  Fe  Fe358     1.0  0.58625  0.86186  0.54933  1.0000
  S   S715      1.0  0.60243  0.84772  0.52899  1.0000
  S   S716      1.0  0.56428  0.88546  0.58493  1.0000
  S   S717      1.0  0.54906  0.87207  0.55671  1.0000
  Fe  Fe359     1.0  0.64781  0.77213  0.70324  1.0000
  S   S718      1.0  0.68385  0.76297  0.69309  1.0000
  Fe  Fe360     1.0  0.62863  0.75665  0.67960  1.0000
  S   S719      1.0  0.66323  0.74558  0.66805  1.0000
  S   S720      1.0  0.59646  0.75915  0.67021  1.0000
  Fe  Fe361     1.0  0.67231  0.73161  0.68992  1.0000
  S   S721      1.0  0.69141  0.69748  0.69734  1.0000
  Fe  Fe362     1.0  0.67145  0.77792  0.67218  1.0000
  S   S722      1.0  0.68888  0.79951  0.65321  1.0000
  S   S723      1.0  0.63674  0.73983  0.70127  1.0000
  S   S724      1.0  0.63636  0.78990  0.68253  1.0000
  Fe  Fe363     1.0  0.51368  0.71097  0.61160  1.0000
  S   S725      1.0  0.54084  0.68077  0.61211  1.0000
  S   S726      1.0  0.51787  0.73649  0.59137  1.0000
  H   H2098     1.0  0.50557  0.75082  0.67951  1.0000
  Fe  Fe364     1.0  0.53954  0.68485  0.63499  1.0000
  S   S727      1.0  0.57074  0.67938  0.64569  1.0000
  S   S728      1.0  0.51417  0.71627  0.63405  1.0000
  H   H2099     1.0  0.72628  0.66058  0.70352  1.0000
  Fe  Fe365     1.0  0.69135  0.92613  0.64127  1.0000
  S   S729      1.0  0.66801  0.95370  0.63046  1.0000
  S   S730      1.0  0.67660  0.90178  0.65958  1.0000
  Fe  Fe366     1.0  0.73340  0.94543  0.62523  1.0000
  H   H2100     1.0  0.97912  0.77346  0.63282  1.0000
  S   S731      1.0  0.77095  0.94127  0.62581  1.0000
  Fe  Fe367     1.0  0.69016  0.97709  0.63406  1.0000
  H   H2101     1.0  0.95201  0.98360  0.58499  1.0000
  Fe  Fe368     1.0  0.69288  0.94891  0.61060  1.0000
  S   S732      1.0  0.67884  0.94967  0.59040  1.0000
  S   S733      1.0  0.71171  0.94966  0.64646  1.0000
  S   S734      1.0  0.71485  0.91919  0.62114  1.0000
  H   H2102     1.0  0.89885  0.91545  0.51033  1.0000
  S   S735      1.0  0.95245  0.69235  0.66073  1.0000
  H   H2103     1.0  0.90556  0.68809  0.66929  1.0000
  C   C2095     1.0  0.71914  0.69073  0.68843  1.0000
  C   C2096     1.0  0.74955  0.69813  0.66874  1.0000
  C   C2097     1.0  0.72763  0.70434  0.67594  1.0000
  H   H2104     1.0  0.75593  0.70856  0.65896  1.0000
  H   H2105     1.0  0.71722  0.71949  0.67171  1.0000
  C   C2098     1.0  0.59103  0.73722  0.66235  1.0000
  C   C2099     1.0  0.57269  0.74121  0.65479  1.0000
  C   C2100     1.0  0.56682  0.72381  0.64918  1.0000
  C   C2101     1.0  0.57910  0.70216  0.65125  1.0000
  C   C2102     1.0  0.59767  0.69825  0.65863  1.0000
  C   C2103     1.0  0.60369  0.71574  0.66413  1.0000
  H   H2106     1.0  0.56273  0.75776  0.65341  1.0000
  H   H2107     1.0  0.55259  0.72707  0.64348  1.0000
  H   H2108     1.0  0.60726  0.68155  0.66025  1.0000
  H   H2109     1.0  0.61784  0.71249  0.66997  1.0000
  C   C2104     1.0  0.68375  0.82818  0.65459  1.0000
  C   C2105     1.0  0.67394  0.83525  0.66763  1.0000
  C   C2106     1.0  0.67117  0.85806  0.66888  1.0000
  C   C2107     1.0  0.67835  0.87384  0.65713  1.0000
  C   C2108     1.0  0.68760  0.86691  0.64394  1.0000
  C   C2109     1.0  0.69032  0.84405  0.64268  1.0000
  H   H2110     1.0  0.66901  0.82309  0.67689  1.0000
  H   H2111     1.0  0.66397  0.86339  0.67910  1.0000
  H   H2112     1.0  0.69297  0.87904  0.63480  1.0000
  H   H2113     1.0  0.69784  0.83860  0.63255  1.0000
  C   C2110     1.0  0.58767  0.79964  0.48169  1.0000
  C   C2111     1.0  0.57055  0.86693  0.48807  1.0000
  C   C2112     1.0  0.52031  0.95051  0.56615  1.0000
  H   H2114     1.0  0.61011  0.93854  0.59902  1.0000
  C   C2113     1.0  0.76955  0.87529  0.62642  1.0000
  H   H2115     1.0  0.56148  0.69914  0.68587  1.0000
  H   H2116     1.0  0.89629  0.84233  0.54648  1.0000
  H   H2117     1.0  0.51580  0.92107  0.58199  1.0000
  C   C2114     1.0  0.93116  0.65390  0.69881  1.0000
  C   C2115     1.0  0.59047  0.85711  0.51317  1.0000
  C   C2116     1.0  0.56796  0.86740  0.51363  1.0000
  C   C2117     1.0  0.60322  0.85249  0.50001  1.0000
  H   H2118     1.0  0.55802  0.87098  0.52372  1.0000
  H   H2119     1.0  0.62066  0.84455  0.49961  1.0000
  C   C2118     1.0  0.64270  0.89072  0.58922  1.0000
  C   C2119     1.0  0.65664  0.88910  0.59959  1.0000
  C   C2120     1.0  0.66792  0.90705  0.59996  1.0000
  C   C2121     1.0  0.66569  0.92655  0.58978  1.0000
  C   C2122     1.0  0.65231  0.92788  0.57915  1.0000
  C   C2123     1.0  0.64071  0.91006  0.57891  1.0000
  H   H2120     1.0  0.65830  0.87415  0.60757  1.0000
  H   H2121     1.0  0.67827  0.90583  0.60815  1.0000
  H   H2122     1.0  0.65065  0.94288  0.57119  1.0000
  H   H2123     1.0  0.63008  0.91139  0.57083  1.0000
  C   C2124     1.0  0.53238  0.80616  0.59487  1.0000
  C   C2125     1.0  0.53739  0.79848  0.58166  1.0000
  C   C2126     1.0  0.53298  0.77703  0.58069  1.0000
  C   C2127     1.0  0.52399  0.76301  0.59295  1.0000
  C   C2128     1.0  0.51949  0.77057  0.60618  1.0000
  C   C2129     1.0  0.52353  0.79211  0.60712  1.0000
  H   H2124     1.0  0.54420  0.80922  0.57217  1.0000
  H   H2125     1.0  0.53646  0.77131  0.57041  1.0000
  H   H2126     1.0  0.53522  0.69269  0.57957  1.0000
  H   H2127     1.0  0.53570  0.82414  0.49435  1.0000
  H   H2128     1.0  0.92980  0.92407  0.61774  1.0000
  C   C2130     1.0  0.95613  0.95386  0.57520  1.0000
  H   H2129     1.0  0.54595  0.75772  0.68177  1.0000
  H   H2130     1.0  0.59606  0.91638  0.59701  1.0000
  H   H2131     1.0  0.96060  0.75420  0.59572  1.0000
  C   C2131     1.0  0.82344  0.90756  0.59242  1.0000
  C   C2132     1.0  0.80031  0.91072  0.59134  1.0000
  C   C2133     1.0  0.78404  0.92145  0.60132  1.0000
  C   C2134     1.0  0.79081  0.92889  0.61255  1.0000
  C   C2135     1.0  0.81390  0.92571  0.61363  1.0000
  C   C2136     1.0  0.83015  0.91516  0.60359  1.0000
  H   H2132     1.0  0.79496  0.90495  0.58270  1.0000
  H   H2133     1.0  0.76630  0.92392  0.60034  1.0000
  H   H2134     1.0  0.81927  0.93138  0.62229  1.0000
  H   H2135     1.0  0.84786  0.91287  0.60454  1.0000
  C   C2137     1.0  0.95147  0.81816  0.61264  1.0000
  C   C2138     1.0  0.96276  0.81450  0.59905  1.0000
  H   H2136     1.0  0.68502  0.78298  0.72168  1.0000
  C   C2139     1.0  0.93685  0.67168  0.65868  1.0000
  H   H2137     1.0  0.54039  0.87956  0.50165  1.0000
  C   C2140     1.0  0.95773  0.80355  0.62482  1.0000
  H   H2138     1.0  0.95807  0.82572  0.58960  1.0000
  C   C2141     1.0  0.55802  0.87221  0.50112  1.0000
  H   H2139     1.0  0.94908  0.80638  0.63536  1.0000
  C   C2142     1.0  0.92045  0.88957  0.49969  1.0000
  C   C2143     1.0  0.93721  0.87080  0.50110  1.0000
  C   C2144     1.0  0.94474  0.86296  0.51436  1.0000
  C   C2145     1.0  0.93558  0.87387  0.52620  1.0000
  C   C2146     1.0  0.91930  0.89302  0.52465  1.0000
  C   C2147     1.0  0.91172  0.90081  0.51143  1.0000
  C   C2148     1.0  0.51140  0.97291  0.56151  1.0000
  H   H2140     1.0  0.97048  0.86016  0.61271  1.0000
  H   H2141     1.0  0.91233  0.90168  0.53365  1.0000
  H   H2142     1.0  0.82930  0.89983  0.55091  1.0000
  H   H2143     1.0  0.51523  0.70451  0.56779  1.0000
  H   H2144     1.0  0.62707  0.93657  0.62017  1.0000
  N   N174      1.0  0.53438  0.72638  0.68350  1.0000
  C   C2149     1.0  0.51407  0.69738  0.67260  1.0000
  H   H2145     1.0  0.90361  0.77412  0.64897  1.0000
  C   C2150     1.0  0.91417  0.77955  0.62609  1.0000
  C   C2151     1.0  0.51388  0.73371  0.67897  1.0000
  C   C2152     1.0  0.51923  0.69027  0.57641  1.0000
  H   H2146     1.0  0.95016  0.72087  0.63169  1.0000
  S   S736      1.0  0.90929  0.89898  0.48367  1.0000
  C   C2153     1.0  0.91367  0.67363  0.66431  1.0000
  C   C2154     1.0  0.92680  0.74595  0.64185  1.0000
  C   C2155     1.0  0.58578  0.80462  0.50624  1.0000
  C   C2156     1.0  0.87340  0.86825  0.51687  1.0000
  C   C2157     1.0  0.95474  0.74060  0.60427  1.0000
  C   C2158     1.0  0.98475  0.97850  0.57181  1.0000
  H   H2147     1.0  0.90455  0.79633  0.62442  1.0000
  H   H2148     1.0  0.75008  0.66482  0.64728  1.0000
  N   N175      1.0  0.94082  0.74988  0.61658  1.0000
  H   H2149     1.0  0.96522  0.92556  0.56388  1.0000
  C   C2159     1.0  0.94817  0.89079  0.61636  1.0000
  C   C2160     1.0  0.75479  0.66507  0.68672  1.0000
  C   C2161     1.0  0.87102  0.87203  0.54541  1.0000
  C   C2162     1.0  0.59331  0.85742  0.48746  1.0000
  H   H2150     1.0  0.92664  0.73611  0.65250  1.0000
  C   C2163     1.0  0.96448  0.92487  0.60759  1.0000
  C   C2164     1.0  0.84348  0.90633  0.54308  1.0000
  H   H2151     1.0  0.59388  0.80372  0.51556  1.0000
  C   C2165     1.0  0.96077  0.92211  0.48542  1.0000
  N   N176      1.0  0.85829  0.88774  0.53689  1.0000
  H   H2152     1.0  0.59327  0.88376  0.61539  1.0000
  H   H2153     1.0  0.61006  0.85883  0.63534  1.0000
  C   C2166     1.0  0.76315  0.67845  0.67407  1.0000
  H   H2154     1.0  0.61597  0.79049  0.49339  1.0000
  C   C2167     1.0  0.97994  0.79599  0.59765  1.0000
  H   H2155     1.0  0.94498  0.73050  0.59991  1.0000
  N   N177      1.0  0.98064  0.90217  0.50450  1.0000
  C   C2168     1.0  0.50908  0.93838  0.57837  1.0000
  C   C2169     1.0  0.63264  0.90590  0.63494  1.0000
  C   C2170     1.0  0.92778  0.77053  0.61449  1.0000
  C   C2171     1.0  0.59881  0.92630  0.60498  1.0000
  N   N178      1.0  0.98455  0.91260  0.60262  1.0000
  H   H2156     1.0  0.98853  0.79309  0.58710  1.0000
  H   H2157     1.0  0.75895  0.88489  0.61841  1.0000
  C   C2172     1.0  0.98575  0.78098  0.60980  1.0000
  H   H2158     1.0  0.51224  0.76011  0.61564  1.0000
  H   H2159     1.0  0.97035  0.72982  0.60738  1.0000
  C   C2173     1.0  0.90091  0.65682  0.66375  1.0000
  C   C2174     1.0  0.60415  0.89016  0.62095  1.0000
  Fe  Fe369     1.0  0.98822  0.69592  0.64925  1.0000
  H   H2160     1.0  0.50622  0.68615  0.66823  1.0000
  H   H2161     1.0  0.94399  0.86203  0.49210  1.0000
  H   H2162     1.0  0.98648  0.87945  0.52355  1.0000
  N   N179      1.0  0.75535  0.87051  0.64039  1.0000
  C   C2175     1.0  0.74762  0.88740  0.64840  1.0000
  C   C2176     1.0  0.74907  0.84963  0.64508  1.0000
  C   C2177     1.0  0.73367  0.88346  0.66163  1.0000
  C   C2178     1.0  0.73536  0.84504  0.65835  1.0000
  C   C2179     1.0  0.72769  0.86208  0.66667  1.0000
  C   C2180     1.0  0.92480  0.65908  0.71268  1.0000
  H   H2163     1.0  0.75203  0.90413  0.64448  1.0000
  S   S737      1.0  0.63593  0.78485  0.72458  1.0000
  H   H2164     1.0  0.72690  0.89706  0.66775  1.0000
  H   H2165     1.0  0.73000  0.82861  0.66193  1.0000
  H   H2166     1.0  0.71634  0.85900  0.67674  1.0000
  C   C2181     1.0  0.88674  0.85238  0.52544  1.0000
  C   C2182     1.0  0.88554  0.85422  0.53981  1.0000
  S   S738      1.0  0.78976  0.67028  0.66410  1.0000
  H   H2167     1.0  0.74920  0.97560  0.64294  1.0000
  H   H2168     1.0  0.83629  0.91944  0.53481  1.0000
  C   C2183     1.0  0.54494  0.70484  0.68268  1.0000
  H   H2169     1.0  0.77865  0.85967  0.62245  1.0000
  C   C2184     1.0  0.85919  0.88594  0.52281  1.0000
  S   S739      1.0  0.71333  0.97494  0.61309  1.0000
  C   C2185     1.0  0.55315  0.81617  0.49421  1.0000
  H   H2170     1.0  0.71044  0.72805  0.71314  1.0000
  H   H2171     1.0  0.95745  0.84819  0.51549  1.0000
  H   H2172     1.0  0.56229  0.73463  0.69128  1.0000
  H   H2173     1.0  0.78260  0.88548  0.62716  1.0000
  H   H2174     1.0  0.55358  0.82042  0.51600  1.0000
  C   C2186     1.0  0.96333  0.91778  0.49989  1.0000
  C   C2187     1.0  0.62296  0.91963  0.62361  1.0000
  C   C2188     1.0  0.53499  0.69006  0.67717  1.0000
  C   C2189     1.0  0.94596  0.91418  0.61441  1.0000
  C   C2190     1.0  0.59821  0.79740  0.49376  1.0000
  H   H2175     1.0  0.53454  0.74553  0.69976  1.0000
  H   H2176     1.0  0.95104  0.92659  0.50742  1.0000
  H   H2177     1.0  0.50976  0.94986  0.53176  1.0000
  C   C2191     1.0  0.94018  0.73744  0.63001  1.0000
  H   H2178     1.0  0.92838  0.78050  0.60388  1.0000
  C   C2192     1.0  0.97058  0.94031  0.56610  1.0000
  C   C2193     1.0  0.97469  0.78487  0.62340  1.0000
  H   H2179     1.0  0.75441  0.83644  0.63851  1.0000
  N   N180      1.0  0.60152  0.80130  0.61901  1.0000
  C   C2194     1.0  0.60611  0.78970  0.63202  1.0000
  C   C2195     1.0  0.61552  0.81584  0.61107  1.0000
  C   C2196     1.0  0.62544  0.79207  0.63723  1.0000
  C   C2197     1.0  0.63502  0.81860  0.61596  1.0000
  C   C2198     1.0  0.64001  0.80656  0.62911  1.0000
  C   C2199     1.0  0.58085  0.79902  0.61392  1.0000
  H   H2180     1.0  0.59485  0.77847  0.63846  1.0000
  H   H2181     1.0  0.61172  0.82536  0.60086  1.0000
  H   H2182     1.0  0.62907  0.78269  0.64752  1.0000
  H   H2183     1.0  0.64616  0.83000  0.60952  1.0000
  H   H2184     1.0  0.65514  0.80841  0.63302  1.0000
  H   H2185     1.0  0.57692  0.78153  0.61698  1.0000
  H   H2186     1.0  0.56628  0.81069  0.61850  1.0000
  H   H2187     1.0  0.58250  0.80310  0.60203  1.0000
  H   H2188     1.0  0.88314  0.65847  0.66822  1.0000
  C   C2200     1.0  0.50341  0.71933  0.67347  1.0000
  H   H2189     1.0  0.85307  0.91459  0.54889  1.0000
  C   C2201     1.0  0.54473  0.74177  0.68942  1.0000
  N   N181      1.0  0.56543  0.80902  0.48203  1.0000
  H   H2190     1.0  0.64383  0.91220  0.64031  1.0000
  H   H2191     1.0  0.93383  0.88232  0.62151  1.0000
  S   S740      1.0  0.51347  0.66185  0.64301  1.0000
  H   H2192     1.0  0.49836  0.68041  0.55677  1.0000
  H   H2193     1.0  0.72190  0.65327  0.66819  1.0000
  H   H2194     1.0  0.71254  0.69982  0.72282  1.0000
  N   N182      1.0  0.60911  0.91160  0.61668  1.0000
  H   H2195     1.0  0.84928  0.89845  0.51596  1.0000
  H   H2196     1.0  0.87024  0.87344  0.55657  1.0000
  H   H2197     1.0  0.96783  0.90461  0.52660  1.0000
  H   H2198     1.0  0.54380  0.67327  0.67600  1.0000
  C   C2202     1.0  0.50938  0.66613  0.56151  1.0000
  H   H2199     1.0  0.87476  0.86740  0.50555  1.0000
  H   H2200     1.0  0.89847  0.83909  0.52083  1.0000
  H   H2201     1.0  0.52003  0.98233  0.55205  1.0000
  C   C2203     1.0  0.91381  0.76719  0.63986  1.0000
  C   C2204     1.0  0.96319  0.97304  0.57797  1.0000
  C   C2205     1.0  0.61366  0.87594  0.63218  1.0000
  C   C2206     1.0  0.62800  0.88391  0.63920  1.0000
  H   H2202     1.0  0.96237  0.94311  0.60590  1.0000
  C   C2207     1.0  0.56311  0.81404  0.50650  1.0000
  H   H2203     1.0  0.63557  0.87308  0.64791  1.0000
  H   H2204     1.0  0.58232  0.93557  0.60930  1.0000
  C   C2208     1.0  0.73278  0.67114  0.69383  1.0000
  C   C2209     1.0  0.96875  0.87838  0.61140  1.0000
  Fe  Fe370     1.0  0.51209  0.66084  0.62001  1.0000
  H   H2205     1.0  0.94655  0.93386  0.48184  1.0000
  C   C2210     1.0  0.98336  0.89786  0.51966  1.0000
  H   H2206     1.0  0.51948  0.79802  0.61735  1.0000
  H   H2207     1.0  0.93148  0.67248  0.71574  1.0000
  C   C2211     1.0  0.98685  0.88963  0.60445  1.0000
  H   H2208     1.0  0.66887  0.71758  0.72134  1.0000
  C   C2212     1.0  0.71145  0.71778  0.72390  1.0000
  H   H2209     1.0  0.94285  0.66321  0.69098  1.0000
  N   N183      1.0  0.52145  0.66844  0.57169  1.0000
  C   C2213     1.0  0.99202  0.94590  0.55982  1.0000
  H   H2210     1.0  0.50554  0.69150  0.58576  1.0000
  H   H2211     1.0  0.49455  0.92174  0.55133  1.0000
  H   H2212     1.0  0.60309  0.85330  0.47744  1.0000
  C   C2214     1.0  0.94714  0.65291  0.65227  1.0000
  C   C2215     1.0  0.49286  0.95400  0.53756  1.0000
  H   H2213     1.0  0.54295  0.65171  0.58687  1.0000
  H   H2214     1.0  0.96499  0.65116  0.64794  1.0000
  C   C2216     1.0  0.99063  0.94644  0.91298  1.0000
  H   H2215     1.0  0.53892  0.96755  0.89284  1.0000
  H   H2216     1.0  0.98395  0.80653  0.90954  1.0000
  Fe  Fe371     1.0  0.50589  0.70195  0.87934  1.0000
  S   S741      1.0  0.70566  0.96527  0.86559  1.0000
  H   H2217     1.0  0.56008  0.67682  0.90830  1.0000
  Fe  Fe372     1.0  0.73930  0.94347  0.86176  1.0000
  S   S742      1.0  0.74158  0.90744  0.85736  1.0000
  S   S743      1.0  0.75031  0.94929  0.88193  1.0000
  Fe  Fe373     1.0  0.68852  0.83243  0.81356  1.0000
  S   S744      1.0  0.67743  0.80593  0.83179  1.0000
  S   S745      1.0  0.69090  0.86842  0.81644  1.0000
  Fe  Fe374     1.0  0.68776  0.80218  0.79095  1.0000
  S   S746      1.0  0.67651  0.77393  0.80779  1.0000
  S   S747      1.0  0.69940  0.79598  0.76787  1.0000
  Fe  Fe375     1.0  0.65283  0.80071  0.81832  1.0000
  S   S748      1.0  0.61631  0.80041  0.82904  1.0000
  Fe  Fe376     1.0  0.70213  0.78147  0.81964  1.0000
  S   S749      1.0  0.72363  0.75124  0.83024  1.0000
  S   S750      1.0  0.66218  0.82882  0.80061  1.0000
  S   S751      1.0  0.71503  0.80816  0.80223  1.0000
  C   C2217     1.0  0.90784  0.74023  0.82757  1.0000
  H   H2218     1.0  0.86915  0.72060  0.80633  1.0000
  S   S752      1.0  0.85129  0.67169  0.82026  1.0000
  H   H2219     1.0  0.91599  0.66641  0.87944  1.0000
  C   C2218     1.0  0.98664  0.72124  0.92691  1.0000
  S   S753      1.0  0.49768  0.98204  0.96061  1.0000
  H   H2220     1.0  0.91867  0.74505  0.83392  1.0000
  Fe  Fe377     1.0  0.83942  0.69312  0.80080  1.0000
  S   S754      1.0  0.82442  0.72968  0.79954  1.0000
  H   H2221     1.0  0.57754  0.68110  0.84679  1.0000
  S   S755      1.0  0.87290  0.68644  0.78691  1.0000
  N   N184      1.0  0.57767  0.67237  0.88764  1.0000
  H   H2222     1.0  0.63743  0.74336  0.75990  1.0000
  S   S756      1.0  0.96650  0.71021  0.89199  1.0000
  C   C2219     1.0  0.92399  0.98166  0.88327  1.0000
  Fe  Fe378     1.0  0.96578  0.71227  0.86845  1.0000
  S   S757      1.0  0.93182  0.71007  0.86244  1.0000
  C   C2220     1.0  0.67041  0.72330  0.73108  1.0000
  H   H2223     1.0  0.95707  0.66418  0.87064  1.0000
  C   C2221     1.0  0.52057  0.92063  0.92570  1.0000
  C   C2222     1.0  0.92308  0.93465  0.91439  1.0000
  H   H2224     1.0  0.51890  0.91177  0.94861  1.0000
  C   C2223     1.0  0.65258  0.73740  0.75288  1.0000
  N   N185      1.0  0.97769  0.97512  0.95425  1.0000
  H   H2225     1.0  0.56624  0.96385  0.89864  1.0000
  Fe  Fe379     1.0  0.52444  0.72376  0.84963  1.0000
  S   S758      1.0  0.55627  0.72351  0.83303  1.0000
  S   S759      1.0  0.52475  0.73150  0.87144  1.0000
  C   C2224     1.0  0.90332  0.72320  0.80778  1.0000
  H   H2226     1.0  0.72054  0.76136  0.78927  1.0000
  H   H2227     1.0  0.73500  0.70735  0.81111  1.0000
  H   H2228     1.0  0.83954  0.72266  0.82855  1.0000
  C   C2225     1.0  0.66694  0.98338  0.90733  1.0000
  C   C2226     1.0  0.52807  0.93552  0.91354  1.0000
  S   S760      1.0  0.91842  0.66236  0.81188  1.0000
  C   C2227     1.0  0.98683  0.75482  0.93728  1.0000
  H   H2229     1.0  0.95928  0.66636  0.90706  1.0000
  C   C2228     1.0  0.88436  0.74283  0.83186  1.0000
  C   C2229     1.0  0.92208  0.67371  0.82681  1.0000
  C   C2230     1.0  0.94395  0.67635  0.82837  1.0000
  C   C2231     1.0  0.94733  0.68685  0.83950  1.0000
  C   C2232     1.0  0.92881  0.69473  0.84920  1.0000
  C   C2233     1.0  0.90704  0.69137  0.84796  1.0000
  C   C2234     1.0  0.90366  0.68097  0.83680  1.0000
  H   H2230     1.0  0.97795  0.75057  0.94838  1.0000
  H   H2231     1.0  0.96419  0.68933  0.84033  1.0000
  H   H2232     1.0  0.89264  0.69732  0.85546  1.0000
  H   H2233     1.0  0.88678  0.67890  0.83581  1.0000
  H   H2234     1.0  0.77007  0.70279  0.79351  1.0000
  C   C2235     1.0  0.97049  0.95982  0.91792  1.0000
  C   C2236     1.0  0.95726  0.95208  0.93079  1.0000
  C   C2237     1.0  0.96417  0.93110  0.93871  1.0000
  C   C2238     1.0  0.89459  0.97209  0.90366  1.0000
  C   C2239     1.0  0.54589  0.95313  0.92751  1.0000
  C   C2240     1.0  0.54765  0.96775  0.90198  1.0000
  H   H2235     1.0  0.95391  0.92518  0.94869  1.0000
  C   C2241     1.0  0.69321  0.73188  0.74629  1.0000
  H   H2236     1.0  0.83781  0.75220  0.82145  1.0000
  C   C2242     1.0  0.75232  0.74592  0.82268  1.0000
  C   C2243     1.0  0.76299  0.76270  0.81342  1.0000
  C   C2244     1.0  0.78545  0.75771  0.80678  1.0000
  C   C2245     1.0  0.79719  0.73582  0.80916  1.0000
  C   C2246     1.0  0.78674  0.71908  0.81866  1.0000
  C   C2247     1.0  0.76440  0.72422  0.82554  1.0000
  H   H2237     1.0  0.75402  0.77957  0.81141  1.0000
  H   H2238     1.0  0.79354  0.77075  0.79950  1.0000
  H   H2239     1.0  0.79577  0.70217  0.82061  1.0000
  H   H2240     1.0  0.75628  0.71123  0.83283  1.0000
  C   C2248     1.0  0.68137  0.79412  0.75574  1.0000
  C   C2249     1.0  0.69104  0.78935  0.74197  1.0000
  H   H2241     1.0  0.94199  0.98289  0.95554  1.0000
  C   C2250     1.0  0.65384  0.78915  0.73611  1.0000
  C   C2251     1.0  0.64417  0.79421  0.74982  1.0000
  C   C2252     1.0  0.65784  0.79656  0.75963  1.0000
  H   H2242     1.0  0.70922  0.78755  0.73885  1.0000
  H   H2243     1.0  0.62597  0.79610  0.75292  1.0000
  H   H2244     1.0  0.65018  0.80024  0.77018  1.0000
  C   C2253     1.0  0.60036  0.77844  0.83013  1.0000
  C   C2254     1.0  0.57883  0.77957  0.83858  1.0000
  C   C2255     1.0  0.56529  0.76278  0.83958  1.0000
  C   C2256     1.0  0.57306  0.74479  0.83199  1.0000
  C   C2257     1.0  0.59462  0.74358  0.82355  1.0000
  C   C2258     1.0  0.60829  0.76030  0.82266  1.0000
  H   H2245     1.0  0.57252  0.79353  0.84438  1.0000
  H   H2246     1.0  0.54868  0.76398  0.84606  1.0000
  H   H2247     1.0  0.60074  0.72970  0.81766  1.0000
  H   H2248     1.0  0.62481  0.75930  0.81609  1.0000
  C   C2259     1.0  0.67737  0.78678  0.73221  1.0000
  C   C2260     1.0  0.72690  0.89695  0.84611  1.0000
  C   C2261     1.0  0.71259  0.91113  0.83729  1.0000
  C   C2262     1.0  0.70171  0.90206  0.82837  1.0000
  C   C2263     1.0  0.70478  0.87872  0.82820  1.0000
  C   C2264     1.0  0.71876  0.86451  0.83722  1.0000
  C   C2265     1.0  0.72978  0.87359  0.84606  1.0000
  H   H2249     1.0  0.71023  0.92911  0.83714  1.0000
  H   H2250     1.0  0.69104  0.91327  0.82142  1.0000
  H   H2251     1.0  0.72138  0.84655  0.83723  1.0000
  H   H2252     1.0  0.74082  0.86242  0.85280  1.0000
  C   C2266     1.0  0.73752  0.75275  0.78644  1.0000
  H   H2253     1.0  0.94750  0.94513  0.89629  1.0000
  H   H2254     1.0  0.54200  0.94063  0.95023  1.0000
  H   H2255     1.0  0.74822  0.78202  0.77233  1.0000
  S   S761      1.0  0.50758  0.69275  0.85754  1.0000
  H   H2256     1.0  0.91056  0.71474  0.79864  1.0000
  C   C2267     1.0  0.53844  0.93871  0.93992  1.0000
  H   H2257     1.0  0.70965  0.73341  0.74851  1.0000
  H   H2258     1.0  0.93558  0.72718  0.81241  1.0000
  C   C2268     1.0  0.65624  0.98303  0.89571  1.0000
  H   H2259     1.0  0.79839  0.72290  0.77654  1.0000
  H   H2260     1.0  0.78869  0.98202  0.90019  1.0000
  H   H2261     1.0  0.71337  0.73043  0.80778  1.0000
  C   C2269     1.0  0.88688  0.95851  0.91640  1.0000
  Fe  Fe380     1.0  0.71771  0.97336  0.88441  1.0000
  Fe  Fe381     1.0  0.88382  0.66281  0.80597  1.0000
  N   N186      1.0  0.54027  0.95174  0.91462  1.0000
  S   S762      1.0  0.75707  0.97121  0.84786  1.0000
  C   C2270     1.0  0.75317  0.76454  0.77679  1.0000
  C   C2271     1.0  0.77517  0.75374  0.77314  1.0000
  H   H2262     1.0  0.57516  0.71389  0.85906  1.0000
  C   C2272     1.0  0.72698  0.71868  0.80239  1.0000
  H   H2263     1.0  0.95831  0.67070  0.82073  1.0000
  H   H2264     1.0  0.97386  0.94805  0.97164  1.0000
  C   C2273     1.0  0.91734  0.73021  0.81550  1.0000
  Fe  Fe382     1.0  0.76537  0.97886  0.86838  1.0000
  C   C2274     1.0  0.99036  0.98273  0.94152  1.0000
  H   H2265     1.0  0.93464  0.92038  0.91866  1.0000
  H   H2266     1.0  0.84120  0.74215  0.83996  1.0000
  H   H2267     1.0  0.71927  0.70869  0.79661  1.0000
  S   S763      1.0  0.98458  0.74208  0.86240  1.0000
  N   N187      1.0  0.74366  0.73089  0.79240  1.0000
  H   H2268     1.0  0.78766  0.76282  0.76594  1.0000
  H   H2269     1.0  0.67542  0.74497  0.76536  1.0000
  C   C2275     1.0  0.76508  0.72004  0.78868  1.0000
  H   H2270     1.0  0.50988  0.90859  0.92492  1.0000
  S   S764      1.0  0.86540  0.65811  0.75734  1.0000
  N   N188      1.0  0.87076  0.73561  0.82433  1.0000
  N   N189      1.0  0.61781  0.85953  0.82684  1.0000
  C   C2276     1.0  0.63389  0.87337  0.82206  1.0000
  C   C2277     1.0  0.60478  0.85560  0.81764  1.0000
  C   C2278     1.0  0.63724  0.88379  0.80774  1.0000
  C   C2279     1.0  0.60772  0.86569  0.80324  1.0000
  C   C2280     1.0  0.62409  0.87986  0.79828  1.0000
  C   C2281     1.0  0.61556  0.84802  0.84172  1.0000
  H   H2271     1.0  0.64471  0.87595  0.82923  1.0000
  H   H2272     1.0  0.59244  0.84412  0.82130  1.0000
  H   H2273     1.0  0.65060  0.89413  0.80395  1.0000
  H   H2274     1.0  0.59777  0.86201  0.79593  1.0000
  H   H2275     1.0  0.62699  0.88732  0.78707  1.0000
  H   H2276     1.0  0.59997  0.83996  0.84483  1.0000
  H   H2277     1.0  0.63022  0.83446  0.84300  1.0000
  H   H2278     1.0  0.61497  0.86000  0.84919  1.0000
  N   N190      1.0  0.68498  0.91868  0.89492  1.0000
  C   C2282     1.0  0.68714  0.92538  0.90734  1.0000
  C   C2283     1.0  0.70257  0.90561  0.88789  1.0000
  C   C2284     1.0  0.70739  0.91916  0.91296  1.0000
  C   C2285     1.0  0.72296  0.89882  0.89332  1.0000
  C   C2286     1.0  0.72540  0.90578  0.90588  1.0000
  C   C2287     1.0  0.66415  0.92629  0.88867  1.0000
  H   H2279     1.0  0.67343  0.93615  0.91280  1.0000
  H   H2280     1.0  0.70112  0.90071  0.87785  1.0000
  H   H2281     1.0  0.70926  0.92535  0.92248  1.0000
  H   H2282     1.0  0.73703  0.88884  0.88751  1.0000
  H   H2283     1.0  0.74139  0.90125  0.90992  1.0000
  H   H2284     1.0  0.66735  0.93909  0.87897  1.0000
  H   H2285     1.0  0.65834  0.91192  0.88559  1.0000
  H   H2286     1.0  0.65023  0.93408  0.89629  1.0000
  N   N191      1.0  0.91593  0.96693  0.89640  1.0000
  C   C2288     1.0  0.93023  0.94864  0.90169  1.0000
  C   C2289     1.0  0.90126  0.93969  0.92179  1.0000
  C   C2290     1.0  0.65077  0.72987  0.74038  1.0000
  H   H2287     1.0  0.55574  0.96587  0.92825  1.0000
  C   C2291     1.0  0.98459  0.91797  0.93396  1.0000
  S   S765      1.0  0.51627  0.67793  0.89885  1.0000
  H   H2288     1.0  0.52320  0.93457  0.90341  1.0000
  C   C2292     1.0  0.87992  0.72620  0.81232  1.0000
  H   H2289     1.0  0.87722  0.75018  0.84144  1.0000
  C   C2293     1.0  0.78116  0.73130  0.77902  1.0000
  H   H2290     1.0  0.57413  0.70813  0.88528  1.0000
  S   S766      1.0  0.69670  0.97765  0.90602  1.0000
  C   C2294     1.0  0.52555  0.92247  0.93899  1.0000
  H   H2291     1.0  0.59015  0.67802  0.90568  1.0000
  H   H2292     1.0  0.89562  0.92924  0.93179  1.0000
  H   H2293     1.0  0.97430  0.76396  0.93032  1.0000
  C   C2295     1.0  0.84617  0.73836  0.82885  1.0000
  N   N192      1.0  0.69127  0.72447  0.73404  1.0000
  C   C2296     1.0  0.67392  0.73832  0.75593  1.0000
  H   H2294     1.0  0.66621  0.98030  0.88550  1.0000
  C   C2297     1.0  0.57641  0.69700  0.86513  1.0000
  H   H2295     1.0  0.63424  0.72993  0.73763  1.0000
  C   C2298     1.0  0.57602  0.69362  0.87995  1.0000
  H   H2296     1.0  0.96878  0.72657  0.92634  1.0000
  H   H2297     1.0  0.98775  0.69058  0.91851  1.0000
  H   H2298     1.0  0.86997  0.96291  0.92215  1.0000
  C   C2299     1.0  0.98437  0.95454  0.96188  1.0000
  H   H2299     1.0  0.51960  0.65144  0.87616  1.0000
  H   H2300     1.0  0.58015  0.65144  0.90801  1.0000
  H   H2301     1.0  0.93457  0.97163  0.87528  1.0000
  C   C2300     1.0  0.57705  0.66947  0.90318  1.0000
  H   H2302     1.0  0.85561  0.66664  0.72870  1.0000
  H   H2303     1.0  0.94164  0.96216  0.93461  1.0000
  Fe  Fe383     1.0  0.98847  0.73749  0.88562  1.0000
  S   S767      1.0  0.98287  0.76773  0.89709  1.0000
  S   S768      1.0  0.82461  0.66623  0.79432  1.0000
  C   C2301     1.0  0.57783  0.67855  0.85824  1.0000
  Fe  Fe384     1.0  0.85913  0.65789  0.78147  1.0000
  C   C2302     1.0  0.57927  0.65694  0.86618  1.0000
  C   C2303     1.0  0.57939  0.65412  0.88094  1.0000
  H   H2304     1.0  0.72731  0.72001  0.72726  1.0000
  C   C2304     1.0  0.92728  0.65096  0.88224  1.0000
