data_image0
_chemical_formula_structural       CH2SHFeS2FeCFeSHS2C2HS2C6SCH2C2SC2HCH2SC6H4C6H5NC2HCSH2FeH3CHCHCH2C2HCHFe2H4NHC3H2FeHCHCH5C2HNCHCSCHC3SHFeHCFeS2HCFeSNSHS2CSC7H4CSCH2FeCH3C6H4CSHC3HCH3CFeSHCSHCH3CH2CH2CHNC3HC2FeCHC2H3SC2HCH2NH2SFeCNHSFeSCFeS2FeSFeS3FeS2H3CHFeS3CH2FeS2C6H5C4SFeH3C6H4C6H4C5HC2H3CH7CNC2H3NSH4CNCNC2HC3H3C2HFeSCFeS2FeSFeS3FeS2FeSCFeHFeS4NSCHSC6H5C5H2CHC6H3C7H5SCHSCH2C2NH2FeHCNH2SCSHC5H4CH2CSHCHC2H4S2H3CHCFe2HCHCHNCHCH6CH2NFeS3HNFeSCSH2SHSNFeSCFeSHC4H9SCFeSC2HC6H4C6H6C2HC2H2CHCSH2CH2FeHCHCNC3H2C2H4NC6FeHC2HNH2CHS2HNHFeS2HC2FeSNSFeS2FeS2C2S2H2FeHC4H3CHCFeCSHC2HC7H4C6H4NH5C3H3CHCFeHCHCHSC2HC2HNHC2HCHSC2HNSHC5H5CHCHC2H3CH2C3FeS2FeSCSFe2SHFeS2CHCS2HC6H4C6H4FeCHCH5C7H2C2HCHC2NCSFeH2NC2H4NH2SH2C2SCH3C3NH2CH2SC2H3CSH2Fe2H2SNC3HCH2C2H2SH2FeS2FeSHSHCHSCSH3SFeSHC6H4C6H5SC3HCH4C3FeCHCSCHCHCSFeC5HCHSH4CH3SCHSC2FeC3NHC2NHCSHCSC2HFeCSC2HFeS2NFeHFeHFeSHSFeS2FeSHFeSFeS3CHCFeHSC6H4C2NC3H4C6H3C7HC2H3SHNCSHCHSH2C2H4CNC6H4CHCSNC4SHCSH4CHCHCH2CNH6C3H3C2HC2HFeS2NS2FeHFeSCSFeS2FeSHFeSFeS3HS2HS2C6H4CHC4SH3C6HCH2C6H4FeCSHCHNC6H8C4H2C3HCHC3HFeH7NH4C2H2CNHFeHCHCHCFeS2FeNSFeSHS2CFeSCFeS2HC3H2C2HC7H4C6H3SHC5H4CHFeHCNC6H9SCSH4FeH3SCH2C3HNCSH2CFeC2HCH3CSC2HSH3CHFeS2CH2FeSHS2CFeSC2SCHSFeC5H2C6H4C5SH2C8H5FeCH2CH2FeH2CNCHCH3NCH6C3H3SH2SCH4
_chemical_formula_sum              "C576 H576 S192 Fe96 N48"
_cell_length_a       40.6637
_cell_length_b       40.5419
_cell_length_c       33.4935
_cell_angle_alpha    90.0018
_cell_angle_beta     90.0589
_cell_angle_gamma    90.0042

_space_group_name_H-M_alt    "P 1"
_space_group_IT_number       1

loop_
  _space_group_symop_operation_xyz
  'x, y, z'

loop_
  _atom_site_type_symbol
  _atom_site_label
  _atom_site_symmetry_multiplicity
  _atom_site_fract_x
  _atom_site_fract_y
  _atom_site_fract_z
  _atom_site_occupancy
  C   C1        1.0  0.05396  0.36490  0.40639  1.0000
  H   H1        1.0  0.10504  0.05511  0.24730  1.0000
  H   H2        1.0  0.03508  0.33586  0.45525  1.0000
  S   S1        1.0  0.19392  0.28500  0.06701  1.0000
  H   H3        1.0  0.03295  0.38138  0.40537  1.0000
  Fe  Fe1       1.0  0.12539  0.21970  0.08995  1.0000
  S   S2        1.0  0.12246  0.27220  0.11181  1.0000
  S   S3        1.0  0.08490  0.18104  0.09593  1.0000
  Fe  Fe2       1.0  0.14030  0.28747  0.05065  1.0000
  C   C2        1.0  0.29737  0.30582  0.48665  1.0000
  Fe  Fe3       1.0  0.17641  0.26490  0.12578  1.0000
  S   S4        1.0  0.19823  0.27736  0.18587  1.0000
  H   H4        1.0  0.22598  0.50973  0.28100  1.0000
  S   S5        1.0  0.17819  0.21172  0.10704  1.0000
  S   S6        1.0  0.34932  0.21310  0.39783  1.0000
  C   C3        1.0  0.32317  0.19601  0.14842  1.0000
  C   C4        1.0  0.27574  0.25788  0.01274  1.0000
  H   H5        1.0  0.30145  0.19946  0.05039  1.0000
  S   S7        1.0  0.09938  0.46919  0.41041  1.0000
  S   S8        1.0  0.06032  0.50216  0.31886  1.0000
  C   C5        1.0  0.07693  0.15797  0.14006  1.0000
  C   C6        1.0  0.05624  0.13015  0.13808  1.0000
  C   C7        1.0  0.04837  0.11194  0.17272  1.0000
  C   C8        1.0  0.06067  0.12177  0.20990  1.0000
  C   C9        1.0  0.08143  0.14949  0.21186  1.0000
  C   C10       1.0  0.08976  0.16733  0.17715  1.0000
  S   S9        1.0  0.02599  0.03029  0.32245  1.0000
  C   C11       1.0  0.28913  0.18971  0.20848  1.0000
  H   H6        1.0  0.09091  0.15751  0.24043  1.0000
  H   H7        1.0  0.10553  0.18877  0.17920  1.0000
  C   C12       1.0  0.32682  0.19879  0.10701  1.0000
  C   C13       1.0  0.10833  0.34975  0.38424  1.0000
  S   S10       1.0  0.19981  0.24778  0.43040  1.0000
  C   C14       1.0  0.09992  0.43566  0.44449  1.0000
  C   C15       1.0  0.07261  0.42737  0.46775  1.0000
  H   H8        1.0  0.12114  0.10720  0.27841  1.0000
  C   C16       1.0  0.08079  0.37031  0.38132  1.0000
  H   H9        1.0  0.08439  0.30060  0.45957  1.0000
  H   H10       1.0  0.05029  0.44178  0.46543  1.0000
  S   S11       1.0  0.13886  0.23554  0.02769  1.0000
  C   C17       1.0  0.31034  0.27067  0.19520  1.0000
  C   C18       1.0  0.29110  0.27168  0.22978  1.0000
  C   C19       1.0  0.25669  0.27438  0.22669  1.0000
  C   C20       1.0  0.24141  0.27549  0.18911  1.0000
  C   C21       1.0  0.26072  0.27463  0.15462  1.0000
  C   C22       1.0  0.29509  0.27270  0.15770  1.0000
  H   H11       1.0  0.30267  0.27017  0.25883  1.0000
  H   H12       1.0  0.24183  0.27513  0.25346  1.0000
  H   H13       1.0  0.24922  0.27566  0.12557  1.0000
  H   H14       1.0  0.30987  0.27210  0.13086  1.0000
  C   C23       1.0  0.30750  0.22210  0.40558  1.0000
  C   C24       1.0  0.29464  0.21902  0.44421  1.0000
  C   C25       1.0  0.26172  0.22708  0.45201  1.0000
  C   C26       1.0  0.24122  0.23767  0.42105  1.0000
  C   C27       1.0  0.25397  0.24047  0.38223  1.0000
  C   C28       1.0  0.28720  0.23306  0.37455  1.0000
  H   H15       1.0  0.31029  0.21063  0.46829  1.0000
  H   H16       1.0  0.15050  0.29982  0.38572  1.0000
  H   H17       1.0  0.23820  0.24861  0.35813  1.0000
  H   H18       1.0  0.29696  0.23551  0.34466  1.0000
  H   H19       1.0  0.12943  0.35456  0.36534  1.0000
  N   N1        1.0  0.10902  0.32444  0.41127  1.0000
  C   C29       1.0  0.32991  0.29754  0.42723  1.0000
  C   C30       1.0  0.12887  0.41688  0.44830  1.0000
  H   H20       1.0  0.15021  0.42325  0.43068  1.0000
  C   C31       1.0  0.26523  0.19142  0.14131  1.0000
  S   S12       1.0  0.05013  0.10089  0.25481  1.0000
  H   H21       1.0  0.13318  0.27961  0.42804  1.0000
  H   H22       1.0  0.08103  0.34995  0.06233  1.0000
  Fe  Fe4       1.0  0.05580  0.49837  0.38563  1.0000
  H   H23       1.0  0.03993  0.39539  0.05872  1.0000
  H   H24       1.0  0.28822  0.16329  0.21702  1.0000
  H   H25       1.0  0.35097  0.20245  0.09402  1.0000
  C   C32       1.0  0.26808  0.19357  0.09976  1.0000
  H   H26       1.0  0.15667  0.31682  0.43502  1.0000
  C   C33       1.0  0.08305  0.31934  0.43646  1.0000
  H   H27       1.0  0.08064  0.39100  0.36073  1.0000
  C   C34       1.0  0.05504  0.33927  0.43419  1.0000
  H   H28       1.0  0.26639  0.20228  0.21896  1.0000
  H   H29       1.0  0.31541  0.29266  0.02088  1.0000
  C   C35       1.0  0.10311  0.38146  0.49788  1.0000
  C   C36       1.0  0.13874  0.30428  0.41518  1.0000
  H   H30       1.0  0.27370  0.30902  0.50118  1.0000
  C   C37       1.0  0.29905  0.19740  0.08259  1.0000
  H   H31       1.0  0.34485  0.19746  0.16726  1.0000
  Fe  Fe5       1.0  0.19144  0.23254  0.04694  1.0000
  Fe  Fe6       1.0  0.18762  0.26037  0.49437  1.0000
  H   H32       1.0  0.25213  0.22460  0.48188  1.0000
  H   H33       1.0  0.14148  0.10748  0.32585  1.0000
  H   H34       1.0  0.09860  0.09551  0.32241  1.0000
  H   H35       1.0  0.31001  0.20171  0.22435  1.0000
  N   N2        1.0  0.29259  0.19287  0.16507  1.0000
  H   H36       1.0  0.33100  0.29363  0.39521  1.0000
  C   C38       1.0  0.12298  0.09410  0.30754  1.0000
  C   C39       1.0  0.13042  0.38979  0.47462  1.0000
  C   C40       1.0  0.07906  0.36481  0.03562  1.0000
  H   H37       1.0  0.17742  0.47562  0.30001  1.0000
  H   H38       1.0  0.27695  0.30249  0.42739  1.0000
  Fe  Fe7       1.0  0.02433  0.05120  0.26005  1.0000
  H   H39       1.0  0.24096  0.18913  0.15447  1.0000
  C   C41       1.0  0.29924  0.30242  0.44527  1.0000
  H   H40       1.0  0.24639  0.19251  0.08095  1.0000
  C   C42       1.0  0.07434  0.40056  0.49453  1.0000
  H   H41       1.0  0.04619  0.12275  0.10955  1.0000
  H   H42       1.0  0.26384  0.26414  0.04059  1.0000
  H   H43       1.0  0.03234  0.09073  0.17074  1.0000
  H   H44       1.0  0.15276  0.37547  0.47706  1.0000
  H   H45       1.0  0.13685  0.49764  0.34802  1.0000
  C   C43       1.0  0.05579  0.39058  0.03348  1.0000
  C   C44       1.0  0.15065  0.04354  0.32990  1.0000
  H   H46       1.0  0.07438  0.28215  0.04396  1.0000
  N   N3        1.0  0.13216  0.05948  0.30167  1.0000
  C   C45       1.0  0.12063  0.04278  0.26901  1.0000
  H   H47       1.0  0.15880  0.05635  0.35656  1.0000
  C   C46       1.0  0.18116  0.49973  0.31332  1.0000
  S   S13       1.0  0.35314  0.26438  0.19746  1.0000
  C   C47       1.0  0.15828  0.51232  0.34053  1.0000
  H   H48       1.0  0.03752  0.25788  0.05070  1.0000
  C   C48       1.0  0.05306  0.27087  0.02836  1.0000
  C   C49       1.0  0.20845  0.51874  0.30287  1.0000
  C   C50       1.0  0.32605  0.30450  0.50944  1.0000
  S   S14       1.0  0.29073  0.28886  0.77673  1.0000
  H   H49       1.0  0.13190  0.06481  0.66143  1.0000
  Fe  Fe8       1.0  0.14511  0.30974  0.53834  1.0000
  H   H50       1.0  0.33359  0.31036  0.71185  1.0000
  C   C51       1.0  0.05257  0.40975  0.99866  1.0000
  Fe  Fe9       1.0  0.16027  0.24205  0.57676  1.0000
  S   S15       1.0  0.16531  0.29454  0.59840  1.0000
  S   S16       1.0  0.14791  0.20500  0.62594  1.0000
  H   H51       1.0  0.03672  0.33995  0.92084  1.0000
  C   C52       1.0  0.13801  0.04132  0.64783  1.0000
  Fe  Fe10      1.0  0.21465  0.29357  0.56849  1.0000
  S   S17       1.0  0.26416  0.31032  0.59199  1.0000
  N   N4        1.0  0.29598  0.21973  0.70160  1.0000
  S   S18       1.0  0.21104  0.24059  0.55006  1.0000
  H   H52       1.0  0.15904  0.27567  0.94719  1.0000
  S   S19       1.0  0.06107  0.07363  0.62736  1.0000
  S   S20       1.0  0.10316  0.34654  0.52988  1.0000
  C   C53       1.0  0.16623  0.51743  0.71479  1.0000
  S   S21       1.0  0.22711  0.21098  0.00228  1.0000
  C   C54       1.0  0.22886  0.27670  0.89409  1.0000
  C   C55       1.0  0.12244  0.16939  0.62531  1.0000
  C   C56       1.0  0.11569  0.15335  0.66162  1.0000
  C   C57       1.0  0.09632  0.12455  0.66278  1.0000
  C   C58       1.0  0.08376  0.11113  0.62746  1.0000
  C   C59       1.0  0.09048  0.12712  0.59107  1.0000
  C   C60       1.0  0.10961  0.15619  0.58995  1.0000
  H   H53       1.0  0.12540  0.16339  0.68915  1.0000
  H   H54       1.0  0.09125  0.11272  0.69104  1.0000
  H   H55       1.0  0.08086  0.11698  0.56357  1.0000
  H   H56       1.0  0.11464  0.16823  0.56179  1.0000
  C   C61       1.0  0.29785  0.22581  0.66148  1.0000
  S   S22       1.0  0.07347  0.05207  0.74345  1.0000
  C   C62       1.0  0.07325  0.40337  0.96628  1.0000
  H   H57       1.0  0.13649  0.46205  0.76402  1.0000
  H   H58       1.0  0.11184  0.37254  0.94281  1.0000
  Fe  Fe11      1.0  0.04906  0.04474  0.68407  1.0000
  C   C63       1.0  0.26970  0.22414  0.63748  1.0000
  H   H59       1.0  0.35171  0.06611  0.57477  1.0000
  H   H60       1.0  0.29074  0.32876  0.92017  1.0000
  H   H61       1.0  0.20328  0.48040  0.79246  1.0000
  C   C64       1.0  0.28346  0.29785  0.72596  1.0000
  C   C65       1.0  0.30898  0.30706  0.70028  1.0000
  C   C66       1.0  0.30265  0.31167  0.65933  1.0000
  C   C67       1.0  0.27088  0.30697  0.64387  1.0000
  C   C68       1.0  0.24532  0.29836  0.66972  1.0000
  C   C69       1.0  0.25161  0.29389  0.71061  1.0000
  H   H62       1.0  0.25300  0.49928  0.75600  1.0000
  H   H63       1.0  0.32250  0.31851  0.63952  1.0000
  H   H64       1.0  0.22076  0.29474  0.65817  1.0000
  H   H65       1.0  0.23174  0.28681  0.73029  1.0000
  C   C70       1.0  0.32080  0.26597  0.96558  1.0000
  S   S23       1.0  0.34808  0.33000  0.85372  1.0000
  H   H66       1.0  0.32750  0.02851  0.52381  1.0000
  C   C71       1.0  0.26651  0.21159  0.71875  1.0000
  C   C72       1.0  0.27862  0.22491  0.95265  1.0000
  C   C73       1.0  0.30738  0.24154  0.94102  1.0000
  H   H67       1.0  0.20034  0.30699  0.98082  1.0000
  C   C74       1.0  0.14070  0.48844  0.77128  1.0000
  H   H68       1.0  0.26874  0.20558  0.93387  1.0000
  H   H69       1.0  0.31947  0.23505  0.91338  1.0000
  H   H70       1.0  0.32465  0.30695  0.54169  1.0000
  C   C75       1.0  0.09921  0.35802  0.00279  1.0000
  Fe  Fe12      1.0  0.34166  0.29441  0.80319  1.0000
  S   S24       1.0  0.12624  0.32376  0.00164  1.0000
  H   H71       1.0  0.21740  0.21521  0.63665  1.0000
  C   C76       1.0  0.02836  0.33190  0.95001  1.0000
  S   S25       1.0  0.13614  0.25725  0.51891  1.0000
  H   H72       1.0  0.12644  0.05756  0.58856  1.0000
  C   C77       1.0  0.22862  0.50445  0.74430  1.0000
  H   H73       1.0  0.21434  0.20383  0.70914  1.0000
  H   H74       1.0  0.26489  0.20727  0.75063  1.0000
  H   H75       1.0  0.27501  0.28979  0.86620  1.0000
  C   C78       1.0  0.13493  0.03698  0.60657  1.0000
  H   H76       1.0  0.25300  0.33741  0.97774  1.0000
  H   H77       1.0  0.34104  0.19851  0.72101  1.0000
  C   C79       1.0  0.17773  0.26255  0.92887  1.0000
  H   H78       1.0  0.16669  0.25817  0.89900  1.0000
  H   H79       1.0  0.32104  0.23283  0.64799  1.0000
  C   C80       1.0  0.20047  0.49393  0.76472  1.0000
  H   H80       1.0  0.07112  0.41794  0.93936  1.0000
  N   N5        1.0  0.20814  0.28179  0.92570  1.0000
  C   C81       1.0  0.21649  0.30341  0.95540  1.0000
  C   C82       1.0  0.25852  0.29403  0.89119  1.0000
  C   C83       1.0  0.26723  0.31611  0.92134  1.0000
  H   H81       1.0  0.27104  0.23017  0.60595  1.0000
  C   C84       1.0  0.09637  0.37760  0.96835  1.0000
  C   C85       1.0  0.23788  0.20964  0.69558  1.0000
  Fe  Fe13      1.0  0.02239  0.04512  0.76921  1.0000
  C   C86       1.0  0.23956  0.21599  0.65472  1.0000
  H   H82       1.0  0.06242  0.25182  0.00736  1.0000
  C   C87       1.0  0.24613  0.32089  0.95367  1.0000
  C   C88       1.0  0.26258  0.23315  0.98834  1.0000
  H   H83       1.0  0.35345  0.50106  0.62545  1.0000
  H   H84       1.0  0.18306  0.23840  0.94321  1.0000
  H   H85       1.0  0.22270  0.25893  0.87108  1.0000
  S   S26       1.0  0.03764  0.46603  0.88017  1.0000
  C   C89       1.0  0.32603  0.22105  0.72586  1.0000
  C   C90       1.0  0.04426  0.30595  0.96973  1.0000
  H   H86       1.0  0.14375  0.49114  0.80416  1.0000
  C   C91       1.0  0.30505  0.27390  0.00162  1.0000
  H   H87       1.0  0.11827  0.50265  0.76320  1.0000
  H   H88       1.0  0.06516  0.29419  0.95552  1.0000
  N   N6        1.0  0.16978  0.50067  0.75002  1.0000
  H   H89       1.0  0.32034  0.22324  0.75823  1.0000
  H   H90       1.0  0.34089  0.24314  0.71804  1.0000
  S   S27       1.0  0.02111  0.43993  0.99564  1.0000
  Fe  Fe14      1.0  0.04953  0.52037  0.88180  1.0000
  C   C92       1.0  0.22520  0.52179  0.70856  1.0000
  N   N7        1.0  0.03466  0.29662  0.00721  1.0000
  H   H91       1.0  0.05313  0.39438  0.51253  1.0000
  S   S28       1.0  0.19507  0.31347  0.51049  1.0000
  Fe  Fe15      1.0  0.32170  0.66212  0.18354  1.0000
  S   S29       1.0  0.27342  0.65136  0.15378  1.0000
  C   C93       1.0  0.13128  0.68442  0.20435  1.0000
  Fe  Fe16      1.0  0.28809  0.69371  0.25626  1.0000
  S   S30       1.0  0.23717  0.68627  0.23148  1.0000
  S   S31       1.0  0.29932  0.71086  0.31932  1.0000
  Fe  Fe17      1.0  0.25507  0.63598  0.21448  1.0000
  S   S32       1.0  0.22285  0.59040  0.22078  1.0000
  Fe  Fe18      1.0  0.25899  0.70229  0.17288  1.0000
  S   S33       1.0  0.22938  0.73163  0.12821  1.0000
  S   S34       1.0  0.30503  0.64196  0.24277  1.0000
  S   S35       1.0  0.30822  0.71451  0.19922  1.0000
  Fe  Fe19      1.0  0.26688  0.87608  0.44010  1.0000
  S   S36       1.0  0.21420  0.86946  0.45862  1.0000
  S   S37       1.0  0.27999  0.85896  0.37758  1.0000
  H   H92       1.0  0.17715  0.63064  0.10365  1.0000
  H   H93       1.0  0.14934  0.57243  0.40736  1.0000
  H   H94       1.0  0.12526  0.53593  0.40114  1.0000
  C   C94       1.0  0.12843  0.00951  0.26335  1.0000
  H   H95       1.0  0.08075  0.99334  0.37845  1.0000
  Fe  Fe20      1.0  0.21560  0.92330  0.47327  1.0000
  S   S38       1.0  0.17357  0.95957  0.46341  1.0000
  S   S39       1.0  0.28850  0.86332  0.50050  1.0000
  S   S40       1.0  0.26712  0.93114  0.45120  1.0000
  C   C95       1.0  0.32686  0.72018  0.01441  1.0000
  H   H96       1.0  0.12958  0.70822  0.21898  1.0000
  H   H97       1.0  0.11872  0.99605  0.23794  1.0000
  Fe  Fe21      1.0  0.05155  0.55623  0.32720  1.0000
  S   S41       1.0  0.04986  0.55331  0.39423  1.0000
  S   S42       1.0  0.08189  0.59854  0.30181  1.0000
  C   C96       1.0  0.14717  0.95538  0.42162  1.0000
  C   C97       1.0  0.15154  0.93005  0.39380  1.0000
  C   C98       1.0  0.13033  0.92744  0.36071  1.0000
  C   C99       1.0  0.10468  0.95018  0.35492  1.0000
  C   C100      1.0  0.10032  0.97561  0.38267  1.0000
  C   C101      1.0  0.12148  0.97814  0.41592  1.0000
  H   H98       1.0  0.17134  0.91253  0.39769  1.0000
  H   H99       1.0  0.13399  0.90784  0.33925  1.0000
  H   H100      1.0  0.32765  0.70130  0.10274  1.0000
  H   H101      1.0  0.29308  0.69208  0.07088  1.0000
  H   H102      1.0  0.14367  0.80779  0.49045  1.0000
  C   C102      1.0  0.30364  0.78137  0.07412  1.0000
  C   C103      1.0  0.28552  0.76251  0.10147  1.0000
  C   C104      1.0  0.25200  0.75696  0.09526  1.0000
  C   C105      1.0  0.23656  0.77107  0.06182  1.0000
  S   S43       1.0  0.04156  0.00416  0.23170  1.0000
  Fe  Fe22      1.0  0.03950  0.98243  0.29347  1.0000
  H   H103      1.0  0.29756  0.75232  0.12738  1.0000
  H   H104      1.0  0.21058  0.76702  0.05690  1.0000
  H   H105      1.0  0.21762  0.78483  0.35604  1.0000
  C   C106      1.0  0.29329  0.75203  0.33514  1.0000
  C   C107      1.0  0.28578  0.77713  0.30802  1.0000
  C   C108      1.0  0.28203  0.80979  0.32153  1.0000
  C   C109      1.0  0.28505  0.81755  0.36226  1.0000
  C   C110      1.0  0.29205  0.79238  0.38950  1.0000
  C   C111      1.0  0.29649  0.75979  0.37588  1.0000
  H   H106      1.0  0.28341  0.77151  0.27657  1.0000
  H   H107      1.0  0.27675  0.82919  0.30026  1.0000
  H   H108      1.0  0.29477  0.79815  0.42087  1.0000
  H   H109      1.0  0.30257  0.74053  0.39698  1.0000
  C   C112      1.0  0.18423  0.59237  0.24495  1.0000
  C   C113      1.0  0.17479  0.62013  0.26688  1.0000
  C   C114      1.0  0.14386  0.62106  0.28557  1.0000
  C   C115      1.0  0.12217  0.59421  0.28285  1.0000
  C   C116      1.0  0.13192  0.56603  0.26190  1.0000
  C   C117      1.0  0.16275  0.56526  0.24275  1.0000
  H   H110      1.0  0.19121  0.64096  0.26937  1.0000
  H   H111      1.0  0.13643  0.64299  0.30164  1.0000
  H   H112      1.0  0.11527  0.54531  0.25926  1.0000
  H   H113      1.0  0.16991  0.54361  0.22597  1.0000
  C   C118      1.0  0.16329  0.79613  0.47365  1.0000
  C   C119      1.0  0.13796  0.55607  0.38464  1.0000
  C   C120      1.0  0.15906  0.01032  0.32505  1.0000
  C   C121      1.0  0.11112  0.62912  0.19401  1.0000
  C   C122      1.0  0.15693  0.67796  0.17760  1.0000
  H   H114      1.0  0.11795  0.99782  0.43729  1.0000
  C   C123      1.0  0.34986  0.94953  0.03604  1.0000
  C   C124      1.0  0.18671  0.64081  0.13218  1.0000
  H   H115      1.0  0.08865  0.66402  0.23396  1.0000
  H   H116      1.0  0.23541  0.75799  0.41500  1.0000
  H   H117      1.0  0.09385  0.60955  0.20117  1.0000
  C   C125      1.0  0.14796  0.99332  0.29143  1.0000
  H   H118      1.0  0.17323  0.99749  0.34778  1.0000
  H   H119      1.0  0.17483  0.69721  0.17153  1.0000
  H   H120      1.0  0.19167  0.58669  0.35818  1.0000
  H   H121      1.0  0.32322  0.66077  0.08131  1.0000
  H   H122      1.0  0.14002  0.59907  0.15464  1.0000
  H   H123      1.0  0.15334  0.96724  0.28795  1.0000
  H   H124      1.0  0.23293  0.56546  0.31034  1.0000
  C   C126      1.0  0.13728  0.62336  0.16783  1.0000
  N   N8        1.0  0.33951  0.69824  0.04143  1.0000
  C   C127      1.0  0.10822  0.65980  0.21248  1.0000
  C   C128      1.0  0.31978  0.68758  0.07565  1.0000
  H   H125      1.0  0.32970  0.78511  0.07893  1.0000
  H   H126      1.0  0.11931  0.57034  0.36765  1.0000
  H   H127      1.0  0.17851  0.80526  0.35504  1.0000
  N   N9        1.0  0.15954  0.64774  0.15964  1.0000
  S   S44       1.0  0.08003  0.94678  0.31148  1.0000
  H   H128      1.0  0.20370  0.62256  0.14592  1.0000
  H   H129      1.0  0.21443  0.82671  0.37345  1.0000
  H   H130      1.0  0.30187  0.72921  0.01740  1.0000
  H   H131      1.0  0.22597  0.74159  0.48523  1.0000
  C   C129      1.0  0.18902  0.56188  0.34650  1.0000
  N   N10       1.0  0.16267  0.54284  0.35716  1.0000
  C   C130      1.0  0.25474  0.79004  0.03433  1.0000
  N   N11       1.0  0.19473  0.79121  0.41319  1.0000
  C   C131      1.0  0.16917  0.80496  0.43389  1.0000
  C   C132      1.0  0.21492  0.76862  0.43115  1.0000
  H   H132      1.0  0.32964  0.88497  0.03584  1.0000
  C   C133      1.0  0.20964  0.75911  0.47080  1.0000
  C   C134      1.0  0.18364  0.77301  0.49209  1.0000
  C   C135      1.0  0.20160  0.80248  0.37243  1.0000
  H   H133      1.0  0.15381  0.82367  0.42010  1.0000
  H   H134      1.0  0.32671  0.94956  0.01981  1.0000
  H   H135      1.0  0.20101  0.66343  0.12491  1.0000
  C   C136      1.0  0.21249  0.54999  0.31957  1.0000
  C   C137      1.0  0.28844  0.79495  0.04030  1.0000
  H   H136      1.0  0.34805  0.00186  0.04778  1.0000
  Fe  Fe23      1.0  0.28743  0.59333  0.69030  1.0000
  S   S45       1.0  0.24562  0.60865  0.65066  1.0000
  C   C138      1.0  0.21320  0.70695  0.82474  1.0000
  Fe  Fe24      1.0  0.27544  0.65098  0.74682  1.0000
  S   S46       1.0  0.23394  0.67147  0.71031  1.0000
  S   S47       1.0  0.28782  0.67390  0.80618  1.0000
  Fe  Fe25      1.0  0.21737  0.61854  0.70720  1.0000
  S   S48       1.0  0.16312  0.60587  0.71376  1.0000
  Fe  Fe26      1.0  0.26607  0.65976  0.65765  1.0000
  S   S49       1.0  0.27948  0.68861  0.60223  1.0000
  S   S50       1.0  0.25728  0.59857  0.74644  1.0000
  S   S51       1.0  0.30934  0.64389  0.69468  1.0000
  Fe  Fe27      1.0  0.29544  0.85414  0.86343  1.0000
  S   S52       1.0  0.25566  0.83890  0.90603  1.0000
  S   S53       1.0  0.29993  0.82958  0.80310  1.0000
  Fe  Fe28      1.0  0.32027  0.90988  0.91747  1.0000
  S   S54       1.0  0.28110  0.89963  0.96296  1.0000
  C   C139      1.0  0.32112  0.91618  0.70073  1.0000
  Fe  Fe29      1.0  0.29408  0.84637  0.95374  1.0000
  H   H137      1.0  0.21398  0.65457  0.87006  1.0000
  Fe  Fe30      1.0  0.24643  0.89367  0.91076  1.0000
  S   S55       1.0  0.19496  0.91591  0.91135  1.0000
  S   S56       1.0  0.33488  0.85700  0.91024  1.0000
  S   S57       1.0  0.28453  0.90852  0.86591  1.0000
  S   S58       1.0  0.21276  0.82627  0.56465  1.0000
  N   N12       1.0  0.29248  0.86333  0.66074  1.0000
  S   S59       1.0  0.12436  0.96665  0.75277  1.0000
  C   C140      1.0  0.03469  0.89396  0.70635  1.0000
  H   H138      1.0  0.05117  0.87776  0.68865  1.0000
  S   S60       1.0  0.31331  0.81503  0.00477  1.0000
  C   C141      1.0  0.17642  0.93156  0.86726  1.0000
  C   C142      1.0  0.19032  0.92614  0.82965  1.0000
  C   C143      1.0  0.17441  0.93780  0.79505  1.0000
  C   C144      1.0  0.14462  0.95525  0.79760  1.0000
  C   C145      1.0  0.13081  0.96102  0.83520  1.0000
  C   C146      1.0  0.14657  0.94902  0.86983  1.0000
  H   H139      1.0  0.21317  0.91264  0.82722  1.0000
  H   H140      1.0  0.18521  0.93305  0.76612  1.0000
  H   H141      1.0  0.10785  0.97435  0.83760  1.0000
  H   H142      1.0  0.13570  0.95339  0.89882  1.0000
  H   H143      1.0  0.09613  0.88848  0.73413  1.0000
  C   C147      1.0  0.22028  0.76913  0.60699  1.0000
  C   C148      1.0  0.23493  0.73863  0.61595  1.0000
  C   C149      1.0  0.26144  0.72735  0.59319  1.0000
  C   C150      1.0  0.27349  0.74692  0.56187  1.0000
  C   C151      1.0  0.20794  0.73500  0.80128  1.0000
  H   H144      1.0  0.19947  0.77757  0.62432  1.0000
  H   H145      1.0  0.22542  0.72361  0.64000  1.0000
  C   C152      1.0  0.15252  0.98132  0.61232  1.0000
  H   H146      1.0  0.29752  0.72132  0.86871  1.0000
  C   C153      1.0  0.29283  0.71699  0.80482  1.0000
  C   C154      1.0  0.29152  0.73414  0.76863  1.0000
  C   C155      1.0  0.29406  0.76870  0.76831  1.0000
  C   C156      1.0  0.29743  0.78626  0.80418  1.0000
  C   C157      1.0  0.29853  0.76910  0.84039  1.0000
  C   C158      1.0  0.29649  0.73451  0.84065  1.0000
  H   H147      1.0  0.28877  0.72079  0.74087  1.0000
  H   H148      1.0  0.29335  0.78176  0.74022  1.0000
  H   H149      1.0  0.30129  0.78248  0.86813  1.0000
  C   C159      1.0  0.15558  0.98478  0.65378  1.0000
  C   C160      1.0  0.14626  0.58750  0.75719  1.0000
  C   C161      1.0  0.16614  0.57821  0.78935  1.0000
  C   C162      1.0  0.15205  0.56326  0.82320  1.0000
  C   C163      1.0  0.11802  0.55720  0.82524  1.0000
  C   C164      1.0  0.09812  0.56650  0.79306  1.0000
  C   C165      1.0  0.11223  0.58159  0.75921  1.0000
  H   H150      1.0  0.19238  0.58223  0.78804  1.0000
  H   H151      1.0  0.14196  0.52315  0.70321  1.0000
  H   H152      1.0  0.24921  0.83904  0.64127  1.0000
  H   H153      1.0  0.09665  0.58863  0.73441  1.0000
  H   H154      1.0  0.22368  0.63409  0.82390  1.0000
  S   S61       1.0  0.31447  0.94966  0.55601  1.0000
  C   C166      1.0  0.29687  0.86186  0.70123  1.0000
  H   H155      1.0  0.16188  0.65375  0.77966  1.0000
  S   S62       1.0  0.10217  0.53664  0.86775  1.0000
  C   C167      1.0  0.07810  0.89299  0.75732  1.0000
  H   H156      1.0  0.31497  0.88672  0.75392  1.0000
  H   H157      1.0  0.07192  0.56190  0.79419  1.0000
  C   C168      1.0  0.16842  0.70429  0.76241  1.0000
  C   C169      1.0  0.17452  0.67665  0.78632  1.0000
  N   N13       1.0  0.04553  0.89663  0.74799  1.0000
  H   H158      1.0  0.28917  0.84031  0.71799  1.0000
  H   H159      1.0  0.23138  0.70799  0.84842  1.0000
  Fe  Fe31      1.0  0.07721  0.99663  0.74611  1.0000
  H   H160      1.0  0.17975  0.76648  0.52317  1.0000
  C   C170      1.0  0.31139  0.88815  0.72179  1.0000
  N   N14       1.0  0.19666  0.67826  0.81704  1.0000
  H   H161      1.0  0.15859  0.95784  0.59861  1.0000
  H   H162      1.0  0.34718  0.67567  0.56550  1.0000
  S   S63       1.0  0.05590  0.98957  0.68460  1.0000
  C   C171      1.0  0.33767  0.56045  0.54316  1.0000
  S   S64       1.0  0.02850  0.99033  0.77704  1.0000
  H   H163      1.0  0.33244  0.93672  0.71634  1.0000
  C   C172      1.0  0.25911  0.77762  0.55326  1.0000
  C   C173      1.0  0.08884  0.89580  0.79686  1.0000
  C   C174      1.0  0.34607  0.73174  0.98275  1.0000
  C   C175      1.0  0.23229  0.78863  0.57563  1.0000
  C   C176      1.0  0.18543  0.73358  0.76986  1.0000
  H   H164      1.0  0.18223  0.63275  0.84389  1.0000
  H   H165      1.0  0.18160  0.75497  0.75096  1.0000
  H   H166      1.0  0.28301  0.81180  0.65354  1.0000
  H   H167      1.0  0.34954  0.66025  0.61582  1.0000
  C   C177      1.0  0.20443  0.64842  0.83987  1.0000
  H   H168      1.0  0.15131  0.70257  0.73760  1.0000
  H   H169      1.0  0.22192  0.75738  0.80691  1.0000
  C   C178      1.0  0.27634  0.83593  0.63996  1.0000
  S   S65       1.0  0.31481  0.54709  0.67139  1.0000
  H   H170      1.0  0.24283  0.80034  0.00824  1.0000
  C   C179      1.0  0.30143  0.89097  0.63993  1.0000
  H   H171      1.0  0.11471  0.89301  0.80415  1.0000
  C   C180      1.0  0.06632  0.90380  0.82668  1.0000
  C   C181      1.0  0.32230  0.60941  0.57956  1.0000
  H   H172      1.0  0.30476  0.62232  0.59820  1.0000
  H   H173      1.0  0.28374  0.83484  0.60802  1.0000
  H   H174      1.0  0.32322  0.93943  0.64283  1.0000
  H   H175      1.0  0.16332  0.96419  0.67226  1.0000
  S   S66       1.0  0.03113  0.52723  0.94510  1.0000
  S   S67       1.0  0.23262  0.91422  0.53597  1.0000
  H   H176      1.0  0.29403  0.73829  0.54421  1.0000
  H   H177      1.0  0.03417  0.91882  0.69246  1.0000
  H   H178      1.0  0.16764  0.55596  0.84787  1.0000
  C   C182      1.0  0.03325  0.90817  0.81680  1.0000
  H   H179      1.0  0.29227  0.56563  0.57586  1.0000
  C   C183      1.0  0.31494  0.57747  0.56656  1.0000
  Fe  Fe32      1.0  0.23556  0.86087  0.51959  1.0000
  Fe  Fe33      1.0  0.28442  0.91790  0.51310  1.0000
  H   H180      1.0  0.07471  0.90725  0.85719  1.0000
  C   C184      1.0  0.19384  0.52844  0.69373  1.0000
  H   H181      1.0  0.29734  0.89255  0.60793  1.0000
  C   C185      1.0  0.31603  0.91769  0.65956  1.0000
  H   H182      1.0  0.35174  0.89283  0.99015  1.0000
  N   N15       1.0  0.14181  0.00714  0.58939  1.0000
  C   C186      1.0  0.14825  0.01502  0.67153  1.0000
  H   H183      1.0  0.19084  0.54259  0.66646  1.0000
  C   C187      1.0  0.02321  0.90439  0.77707  1.0000
  H   H184      1.0  0.26850  0.79248  0.52900  1.0000
  H   H185      1.0  0.24685  0.53020  0.69253  1.0000
  H   H186      1.0  0.33283  0.53522  0.53412  1.0000
  H   H187      1.0  0.13284  0.97752  0.53759  1.0000
  H   H188      1.0  0.16321  0.00944  0.53168  1.0000
  H   H189      1.0  0.33608  0.74974  0.96196  1.0000
  C   C188      1.0  0.13931  0.00329  0.54595  1.0000
  H   H190      1.0  0.15029  0.01805  0.70365  1.0000
  H   H191      1.0  0.11985  0.01949  0.53333  1.0000
  N   N16       1.0  0.35174  0.62375  0.57017  1.0000
  Fe  Fe34      1.0  0.42741  0.27700  0.31775  1.0000
  S   S68       1.0  0.42962  0.22721  0.34644  1.0000
  S   S69       1.0  0.46338  0.31483  0.34259  1.0000
  S   S70       1.0  0.37544  0.20100  0.28135  1.0000
  H   H192      1.0  0.62275  0.09386  0.42954  1.0000
  N   N17       1.0  0.63861  0.43497  0.01703  1.0000
  Fe  Fe35      1.0  0.43051  0.20531  0.28484  1.0000
  S   S71       1.0  0.47035  0.16792  0.26885  1.0000
  C   C189      1.0  0.52663  0.41277  0.32807  1.0000
  S   S72       1.0  0.43267  0.25530  0.25627  1.0000
  H   H193      1.0  0.55196  0.12312  0.45047  1.0000
  H   H194      1.0  0.64448  0.12583  0.03550  1.0000
  S   S73       1.0  0.59433  0.07836  0.05345  1.0000
  H   H195      1.0  0.38988  0.29842  0.39905  1.0000
  S   S74       1.0  0.45947  0.04533  0.15022  1.0000
  N   N18       1.0  0.60164  0.13906  0.44999  1.0000
  Fe  Fe36      1.0  0.37744  0.25256  0.25638  1.0000
  S   S75       1.0  0.52567  0.46584  0.47264  1.0000
  C   C190      1.0  0.63734  0.40598  0.03792  1.0000
  Fe  Fe37      1.0  0.47106  0.47206  0.47700  1.0000
  S   S76       1.0  0.43326  0.44646  0.43780  1.0000
  H   H196      1.0  0.66472  0.37024  0.07268  1.0000
  C   C191      1.0  0.66915  0.44256  0.13559  1.0000
  C   C192      1.0  0.63509  0.44323  0.12824  1.0000
  C   C193      1.0  0.62057  0.46962  0.10730  1.0000
  C   C194      1.0  0.63998  0.49586  0.09397  1.0000
  H   H197      1.0  0.54932  0.39893  0.32501  1.0000
  H   H198      1.0  0.65127  0.04546  0.50710  1.0000
  H   H199      1.0  0.61991  0.42303  0.13854  1.0000
  H   H200      1.0  0.59435  0.46977  0.10180  1.0000
  H   H201      1.0  0.56799  0.13551  0.49871  1.0000
  H   H202      1.0  0.39509  0.26324  0.43118  1.0000
  H   H203      1.0  0.52060  0.49708  0.38928  1.0000
  H   H204      1.0  0.52868  0.09681  0.08215  1.0000
  H   H205      1.0  0.54925  0.45313  0.35930  1.0000
  S   S77       1.0  0.52957  0.49484  0.04377  1.0000
  C   C195      1.0  0.49729  0.39992  0.31301  1.0000
  Fe  Fe38      1.0  0.52814  0.52129  0.47527  1.0000
  S   S78       1.0  0.37219  0.27885  0.31537  1.0000
  C   C196      1.0  0.67394  0.49550  0.10194  1.0000
  C   C197      1.0  0.35633  0.29967  0.49042  1.0000
  H   H206      1.0  0.47542  0.43041  0.02612  1.0000
  C   C198      1.0  0.46639  0.13342  0.23669  1.0000
  C   C199      1.0  0.49465  0.11511  0.22701  1.0000
  C   C200      1.0  0.49290  0.08806  0.20070  1.0000
  C   C201      1.0  0.46271  0.07880  0.18410  1.0000
  C   C202      1.0  0.43440  0.09706  0.19385  1.0000
  C   C203      1.0  0.43623  0.12440  0.21980  1.0000
  H   H207      1.0  0.51808  0.12190  0.23998  1.0000
  H   H208      1.0  0.51486  0.07423  0.19355  1.0000
  H   H209      1.0  0.41093  0.09003  0.18120  1.0000
  H   H210      1.0  0.41430  0.13824  0.22709  1.0000
  C   C204      1.0  0.45293  0.34832  0.37387  1.0000
  C   C205      1.0  0.47778  0.36326  0.39678  1.0000
  C   C206      1.0  0.47166  0.39255  0.41806  1.0000
  C   C207      1.0  0.44062  0.40729  0.41633  1.0000
  C   C208      1.0  0.41545  0.39179  0.39445  1.0000
  C   C209      1.0  0.42150  0.36232  0.37341  1.0000
  H   H211      1.0  0.50217  0.35260  0.39719  1.0000
  H   H212      1.0  0.49122  0.40419  0.43480  1.0000
  H   H213      1.0  0.39140  0.40315  0.39285  1.0000
  H   H214      1.0  0.40231  0.35133  0.35540  1.0000
  H   H215      1.0  0.41000  0.30367  0.44588  1.0000
  H   H216      1.0  0.46871  0.19551  0.18642  1.0000
  C   C210      1.0  0.38979  0.29015  0.43065  1.0000
  C   C211      1.0  0.62413  0.12060  0.42940  1.0000
  H   H217      1.0  0.57160  0.13110  0.11404  1.0000
  C   C212      1.0  0.65298  0.17006  0.40996  1.0000
  C   C213      1.0  0.57396  0.12289  0.47010  1.0000
  H   H218      1.0  0.44577  0.46109  0.34223  1.0000
  H   H219      1.0  0.55530  0.17745  0.15839  1.0000
  C   C214      1.0  0.46872  0.44798  0.33756  1.0000
  H   H220      1.0  0.49828  0.22068  0.16021  1.0000
  C   C215      1.0  0.66391  0.09707  0.50947  1.0000
  S   S79       1.0  0.50930  0.02941  0.05657  1.0000
  H   H221      1.0  0.49456  0.51253  0.35005  1.0000
  H   H222      1.0  0.63191  0.21542  0.43128  1.0000
  C   C216      1.0  0.46817  0.41769  0.31754  1.0000
  H   H223      1.0  0.47685  0.49382  0.39415  1.0000
  H   H224      1.0  0.46965  0.10855  0.09502  1.0000
  Fe  Fe39      1.0  0.37469  0.22749  0.34057  1.0000
  H   H225      1.0  0.66863  0.12091  0.39431  1.0000
  C   C217      1.0  0.65018  0.13579  0.40927  1.0000
  H   H226      1.0  0.49687  0.37577  0.29891  1.0000
  C   C218      1.0  0.52636  0.44331  0.34763  1.0000
  N   N19       1.0  0.35798  0.29656  0.44977  1.0000
  C   C219      1.0  0.49745  0.49252  0.37241  1.0000
  C   C220      1.0  0.62854  0.07653  0.02090  1.0000
  C   C221      1.0  0.49476  0.19709  0.17645  1.0000
  H   H227      1.0  0.67325  0.18211  0.39476  1.0000
  H   H228      1.0  0.65119  0.06413  0.11870  1.0000
  C   C222      1.0  0.66587  0.39257  0.05484  1.0000
  C   C223      1.0  0.60400  0.17273  0.45049  1.0000
  H   H229      1.0  0.45422  0.15531  0.13865  1.0000
  H   H230      1.0  0.50987  0.19722  0.20417  1.0000
  H   H231      1.0  0.59912  0.46875  0.02165  1.0000
  H   H232      1.0  0.57993  0.09692  0.47799  1.0000
  N   N20       1.0  0.50387  0.16914  0.15094  1.0000
  C   C224      1.0  0.53642  0.16259  0.14425  1.0000
  C   C225      1.0  0.48002  0.15049  0.13295  1.0000
  C   C226      1.0  0.54581  0.13651  0.11934  1.0000
  C   C227      1.0  0.48856  0.12412  0.10806  1.0000
  C   C228      1.0  0.52166  0.11720  0.10125  1.0000
  C   C229      1.0  0.66369  0.04429  0.10315  1.0000
  Fe  Fe40      1.0  0.56347  0.03370  0.06986  1.0000
  H   H233      1.0  0.63610  0.43260  0.48636  1.0000
  C   C230      1.0  0.62977  0.18873  0.43063  1.0000
  C   C231      1.0  0.64966  0.10389  0.01821  1.0000
  H   H234      1.0  0.44512  0.40742  0.30691  1.0000
  N   N21       1.0  0.49756  0.46033  0.35243  1.0000
  H   H235      1.0  0.58600  0.18737  0.46651  1.0000
  H   H236      1.0  0.61409  0.39348  0.04248  1.0000
  C   C232      1.0  0.66769  0.45167  0.01328  1.0000
  H   H237      1.0  0.37849  0.29823  0.50837  1.0000
  S   S80       1.0  0.55753  0.02784  0.13616  1.0000
  S   S81       1.0  0.68646  0.40775  0.15973  1.0000
  H   H238      1.0  0.43355  0.02230  0.44313  1.0000
  N   N22       1.0  0.40772  0.02237  0.49810  1.0000
  H   H239      1.0  0.44526  0.48205  0.01063  1.0000
  Fe  Fe41      1.0  0.39868  0.33954  0.82971  1.0000
  S   S82       1.0  0.42201  0.29920  0.86552  1.0000
  S   S83       1.0  0.41566  0.39320  0.82929  1.0000
  H   H240      1.0  0.46289  0.45116  0.67030  1.0000
  C   C233      1.0  0.68426  0.07506  0.97046  1.0000
  C   C234      1.0  0.66304  0.04775  0.97302  1.0000
  Fe  Fe42      1.0  0.41020  0.26615  0.81291  1.0000
  S   S84       1.0  0.45051  0.23357  0.78675  1.0000
  N   N23       1.0  0.65874  0.42444  0.54265  1.0000
  S   S85       1.0  0.39014  0.30773  0.77527  1.0000
  Fe  Fe43      1.0  0.54069  0.06875  0.61754  1.0000
  S   S86       1.0  0.53430  0.07119  0.68426  1.0000
  S   S87       1.0  0.57202  0.10873  0.58820  1.0000
  Fe  Fe44      1.0  0.48036  0.06563  0.67271  1.0000
  S   S88       1.0  0.43896  0.09170  0.70595  1.0000
  S   S89       1.0  0.48601  0.06708  0.60597  1.0000
  C   C235      1.0  0.49054  0.12329  0.80949  1.0000
  C   C236      1.0  0.63970  0.44090  0.66030  1.0000
  S   S90       1.0  0.55406  0.42732  0.57215  1.0000
  S   S91       1.0  0.52537  0.44860  0.94763  1.0000
  H   H241      1.0  0.62641  0.49239  0.66044  1.0000
  H   H242      1.0  0.64635  0.38853  0.65390  1.0000
  Fe  Fe45      1.0  0.52537  0.46751  0.53983  1.0000
  H   H243      1.0  0.42609  0.41266  0.74241  1.0000
  C   C237      1.0  0.59430  0.46453  0.62163  1.0000
  C   C238      1.0  0.58658  0.43335  0.60647  1.0000
  C   C239      1.0  0.60530  0.40598  0.61860  1.0000
  C   C240      1.0  0.63191  0.40973  0.64513  1.0000
  H   H244      1.0  0.38158  0.42746  0.93233  1.0000
  H   H245      1.0  0.56277  0.42409  0.69558  1.0000
  H   H246      1.0  0.59936  0.38173  0.60715  1.0000
  C   C241      1.0  0.64494  0.06928  0.51951  1.0000
  H   H247      1.0  0.53366  0.15394  0.81332  1.0000
  C   C242      1.0  0.43762  0.45886  0.99718  1.0000
  Fe  Fe46      1.0  0.37069  0.28765  0.88637  1.0000
  C   C243      1.0  0.60864  0.10290  0.56044  1.0000
  S   S92       1.0  0.35704  0.28701  0.95184  1.0000
  H   H248      1.0  0.54636  0.40911  0.76491  1.0000
  C   C244      1.0  0.52818  0.41848  0.74404  1.0000
  C   C245      1.0  0.54552  0.10407  0.79578  1.0000
  H   H249      1.0  0.65640  0.47181  0.57046  1.0000
  C   C246      1.0  0.49533  0.42217  0.75579  1.0000
  C   C247      1.0  0.44558  0.19545  0.76144  1.0000
  C   C248      1.0  0.47237  0.18234  0.74016  1.0000
  C   C249      1.0  0.47035  0.15110  0.72183  1.0000
  C   C250      1.0  0.44155  0.13244  0.72504  1.0000
  C   C251      1.0  0.41458  0.14572  0.74587  1.0000
  C   C252      1.0  0.41649  0.17713  0.76385  1.0000
  H   H250      1.0  0.49498  0.19633  0.73815  1.0000
  H   H251      1.0  0.49131  0.14122  0.70595  1.0000
  H   H252      1.0  0.39226  0.13139  0.74866  1.0000
  H   H253      1.0  0.39582  0.18678  0.78046  1.0000
  C   C253      1.0  0.44604  0.40829  0.86252  1.0000
  C   C254      1.0  0.44767  0.44229  0.87060  1.0000
  C   C255      1.0  0.47157  0.45506  0.89693  1.0000
  C   C256      1.0  0.49453  0.43396  0.91469  1.0000
  C   C257      1.0  0.49318  0.40005  0.90608  1.0000
  C   C258      1.0  0.46893  0.38722  0.88038  1.0000
  H   H254      1.0  0.43017  0.45884  0.85674  1.0000
  H   H255      1.0  0.47248  0.48125  0.90312  1.0000
  H   H256      1.0  0.51101  0.38357  0.91942  1.0000
  H   H257      1.0  0.46830  0.36108  0.87394  1.0000
  N   N24       1.0  0.49951  0.06734  0.78845  1.0000
  H   H258      1.0  0.52055  0.44483  0.64812  1.0000
  H   H259      1.0  0.39727  0.37161  0.91462  1.0000
  H   H260      1.0  0.39831  0.48057  0.96305  1.0000
  H   H261      1.0  0.66804  0.02601  0.95530  1.0000
  H   H262      1.0  0.47369  0.14302  0.81745  1.0000
  C   C259      1.0  0.40765  0.36804  0.94507  1.0000
  C   C260      1.0  0.35375  0.03343  0.52407  1.0000
  C   C261      1.0  0.51370  0.43860  0.67854  1.0000
  H   H263      1.0  0.48821  0.41530  0.78596  1.0000
  H   H264      1.0  0.45216  0.08771  0.80044  1.0000
  H   H265      1.0  0.62093  0.15457  0.56225  1.0000
  C   C262      1.0  0.47852  0.09195  0.79986  1.0000
  H   H266      1.0  0.40658  0.50658  0.58914  1.0000
  C   C263      1.0  0.62780  0.13063  0.55070  1.0000
  Fe  Fe47      1.0  0.52676  0.49924  0.97697  1.0000
  H   H267      1.0  0.41223  0.07507  0.57633  1.0000
  C   C264      1.0  0.48111  0.44210  0.69132  1.0000
  H   H268      1.0  0.57176  0.10858  0.79355  1.0000
  C   C265      1.0  0.61757  0.07208  0.54511  1.0000
  H   H269      1.0  0.57998  0.48578  0.61269  1.0000
  S   S93       1.0  0.67364  0.44703  0.69254  1.0000
  C   C266      1.0  0.53738  0.42684  0.70517  1.0000
  C   C267      1.0  0.40187  0.42790  0.95338  1.0000
  H   H270      1.0  0.45764  0.37767  0.99558  1.0000
  C   C268      1.0  0.44431  0.40010  0.98861  1.0000
  C   C269      1.0  0.52422  0.12944  0.80700  1.0000
  H   H271      1.0  0.43673  0.44733  0.77344  1.0000
  N   N25       1.0  0.47241  0.43426  0.72967  1.0000
  H   H272      1.0  0.61940  0.02712  0.00023  1.0000
  C   C270      1.0  0.41120  0.45799  0.97058  1.0000
  C   C271      1.0  0.62058  0.46819  0.64872  1.0000
  H   H273      1.0  0.60291  0.05058  0.55212  1.0000
  C   C272      1.0  0.43809  0.43732  0.74255  1.0000
  H   H274      1.0  0.42385  0.45428  0.72301  1.0000
  S   S94       1.0  0.36099  0.25080  0.83753  1.0000
  C   C273      1.0  0.66984  0.44884  0.56751  1.0000
  C   C274      1.0  0.53270  0.07287  0.78690  1.0000
  H   H275      1.0  0.54943  0.05332  0.77797  1.0000
  N   N26       1.0  0.41851  0.39950  0.96232  1.0000
  S   S95       1.0  0.47002  0.46966  0.54413  1.0000
  H   H276      1.0  0.61287  0.46109  0.97130  1.0000
  C   C275      1.0  0.36736  0.05432  0.55278  1.0000
  C   C276      1.0  0.67549  0.39526  0.53964  1.0000
  C   C277      1.0  0.67763  0.10306  0.99345  1.0000
  C   C278      1.0  0.63547  0.04832  0.99843  1.0000
  C   C279      1.0  0.40131  0.05935  0.55366  1.0000
  H   H277      1.0  0.67981  0.20723  0.58561  1.0000
  H   H278      1.0  0.66835  0.47549  0.99854  1.0000
  H   H279      1.0  0.61524  0.45184  0.52775  1.0000
  H   H280      1.0  0.42850  0.35052  0.94182  1.0000
  H   H281      1.0  0.61214  0.40834  0.52139  1.0000
  C   C280      1.0  0.65539  0.12774  0.52557  1.0000
  H   H282      1.0  0.38861  0.35646  0.96432  1.0000
  C   C281      1.0  0.45437  0.42978  0.00620  1.0000
  H   H283      1.0  0.66678  0.37598  0.51983  1.0000
  C   C282      1.0  0.62924  0.42961  0.51822  1.0000
  C   C283      1.0  0.48617  0.03466  0.77911  1.0000
  H   H284      1.0  0.46443  0.03704  0.75909  1.0000
  H   H285      1.0  0.66952  0.14936  0.51787  1.0000
  H   H286      1.0  0.44770  0.04648  0.52730  1.0000
  C   C284      1.0  0.42123  0.04318  0.52580  1.0000
  H   H287      1.0  0.47864  0.02197  0.80700  1.0000
  H   H288      1.0  0.58872  0.43080  0.99650  1.0000
  C   C285      1.0  0.60837  0.44954  0.00090  1.0000
  C   C286      1.0  0.42464  0.65701  0.24301  1.0000
  C   C287      1.0  0.48029  0.66431  0.26651  1.0000
  Fe  Fe48      1.0  0.60652  0.78238  0.28890  1.0000
  S   S96       1.0  0.58741  0.73998  0.25283  1.0000
  S   S97       1.0  0.57651  0.82941  0.28227  1.0000
  Fe  Fe49      1.0  0.59332  0.70878  0.30794  1.0000
  S   S98       1.0  0.55105  0.67679  0.33081  1.0000
  C   C288      1.0  0.42310  0.62985  0.11434  1.0000
  S   S99       1.0  0.60821  0.75214  0.34543  1.0000
  Fe  Fe50      1.0  0.64068  0.72977  0.24068  1.0000
  Fe  Fe51      1.0  0.51792  0.97481  0.05200  1.0000
  S   S100      1.0  0.50900  0.96487  0.11704  1.0000
  H   H289      1.0  0.37024  0.86872  0.02896  1.0000
  Fe  Fe52      1.0  0.56330  0.97338  0.12471  1.0000
  S   S101      1.0  0.60280  0.94074  0.15205  1.0000
  S   S102      1.0  0.57276  0.97996  0.05909  1.0000
  C   C289      1.0  0.37931  0.69109  0.26799  1.0000
  H   H290      1.0  0.62002  0.83990  0.11234  1.0000
  C   C290      1.0  0.35427  0.89039  0.02302  1.0000
  S   S103      1.0  0.53848  0.57469  0.04733  1.0000
  S   S104      1.0  0.56623  0.54626  0.43556  1.0000
  H   H291      1.0  0.42776  0.71788  0.31104  1.0000
  C   C291      1.0  0.55533  0.63945  0.35797  1.0000
  C   C292      1.0  0.52763  0.62587  0.37705  1.0000
  C   C293      1.0  0.53035  0.59707  0.40048  1.0000
  C   C294      1.0  0.56081  0.58137  0.40462  1.0000
  C   C295      1.0  0.58826  0.59446  0.38462  1.0000
  C   C296      1.0  0.58562  0.62342  0.36157  1.0000
  H   H292      1.0  0.50405  0.63800  0.37427  1.0000
  H   H293      1.0  0.50901  0.58725  0.41564  1.0000
  H   H294      1.0  0.61186  0.58234  0.38735  1.0000
  H   H295      1.0  0.60699  0.63322  0.34647  1.0000
  C   C297      1.0  0.59577  0.91149  0.19040  1.0000
  C   C298      1.0  0.62083  0.88901  0.20023  1.0000
  C   C299      1.0  0.61556  0.86412  0.22885  1.0000
  C   C300      1.0  0.58519  0.86168  0.24820  1.0000
  C   C301      1.0  0.56049  0.88481  0.23928  1.0000
  C   C302      1.0  0.56562  0.90947  0.21028  1.0000
  H   H296      1.0  0.64437  0.89065  0.18533  1.0000
  H   H297      1.0  0.63502  0.84693  0.23606  1.0000
  H   H298      1.0  0.53705  0.88332  0.25444  1.0000
  H   H299      1.0  0.54624  0.92682  0.20331  1.0000
  Fe  Fe53      1.0  0.49607  0.53920  0.04475  1.0000
  C   C303      1.0  0.55581  0.82127  0.17126  1.0000
  H   H300      1.0  0.63506  0.71354  0.42082  1.0000
  C   C304      1.0  0.41031  0.95044  0.07444  1.0000
  H   H301      1.0  0.46596  0.62807  0.22258  1.0000
  H   H302      1.0  0.60065  0.76946  0.16142  1.0000
  H   H303      1.0  0.36804  0.68795  0.23801  1.0000
  H   H304      1.0  0.40728  0.64385  0.22422  1.0000
  H   H305      1.0  0.63208  0.68118  0.38399  1.0000
  C   C305      1.0  0.60959  0.79453  0.16927  1.0000
  C   C306      1.0  0.65208  0.01202  0.10625  1.0000
  C   C307      1.0  0.38023  0.59314  0.13716  1.0000
  C   C308      1.0  0.39788  0.56622  0.12127  1.0000
  C   C309      1.0  0.42810  0.57096  0.10162  1.0000
  C   C310      1.0  0.44057  0.60299  0.09810  1.0000
  C   C311      1.0  0.57789  0.68400  0.43803  1.0000
  H   H306      1.0  0.38807  0.54153  0.12421  1.0000
  H   H307      1.0  0.46382  0.60698  0.08317  1.0000
  C   C312      1.0  0.54226  0.86701  0.12813  1.0000
  C   C313      1.0  0.64493  0.65357  0.08793  1.0000
  H   H308      1.0  0.52546  0.88628  0.11867  1.0000
  C   C314      1.0  0.53322  0.84498  0.15821  1.0000
  H   H309      1.0  0.36598  0.67526  0.28972  1.0000
  C   C315      1.0  0.46940  0.68965  0.29140  1.0000
  C   C316      1.0  0.61458  0.64204  0.45964  1.0000
  N   N27       1.0  0.41426  0.68226  0.26704  1.0000
  C   C317      1.0  0.37121  0.68733  0.03792  1.0000
  S   S105      1.0  0.64497  0.69430  0.29203  1.0000
  Fe  Fe54      1.0  0.65992  0.73932  0.32723  1.0000
  H   H310      1.0  0.48676  0.70247  0.31057  1.0000
  H   H311      1.0  0.35702  0.58906  0.15213  1.0000
  N   N28       1.0  0.63110  0.63209  0.02314  1.0000
  C   C318      1.0  0.63520  0.68636  0.41633  1.0000
  C   C319      1.0  0.63951  0.69034  0.03163  1.0000
  H   H312      1.0  0.40218  0.00249  0.08296  1.0000
  H   H313      1.0  0.61200  0.79621  0.20225  1.0000
  H   H314      1.0  0.63466  0.79757  0.15661  1.0000
  H   H315      1.0  0.50613  0.65743  0.26631  1.0000
  N   N29       1.0  0.60877  0.67067  0.43915  1.0000
  H   H316      1.0  0.50938  0.84705  0.17247  1.0000
  H   H317      1.0  0.65995  0.67753  0.42555  1.0000
  S   S106      1.0  0.65590  0.72458  0.17616  1.0000
  H   H318      1.0  0.57304  0.70587  0.42024  1.0000
  H   H319      1.0  0.45303  0.99910  0.48291  1.0000
  C   C320      1.0  0.39285  0.62510  0.13383  1.0000
  C   C321      1.0  0.45781  0.64783  0.24211  1.0000
  S   S107      1.0  0.65985  0.77371  0.27430  1.0000
  C   C322      1.0  0.57356  0.86495  0.11133  1.0000
  H   H320      1.0  0.54916  0.80506  0.19579  1.0000
  H   H321      1.0  0.43319  0.65445  0.11177  1.0000
  H   H322      1.0  0.58120  0.88277  0.08902  1.0000
  C   C323      1.0  0.43606  0.69826  0.29144  1.0000
  C   C324      1.0  0.59549  0.84082  0.12493  1.0000
  C   C325      1.0  0.37440  0.01770  0.49664  1.0000
  N   N30       1.0  0.58649  0.81952  0.15469  1.0000
  H   H323      1.0  0.64991  0.64962  0.11946  1.0000
  H   H324      1.0  0.64027  0.71499  0.01900  1.0000
  C   C326      1.0  0.36190  0.97922  0.05162  1.0000
  H   H325      1.0  0.53768  0.62761  0.49524  1.0000
  H   H326      1.0  0.43437  0.95069  0.08848  1.0000
  S   S108      1.0  0.37210  0.65989  0.15379  1.0000
  C   C327      1.0  0.55773  0.64007  0.48006  1.0000
  C   C328      1.0  0.39228  0.97959  0.07111  1.0000
  H   H327      1.0  0.59354  0.60307  0.49558  1.0000
  H   H328      1.0  0.63568  0.60234  0.07552  1.0000
  H   H329      1.0  0.65254  0.70605  0.09121  1.0000
  C   C329      1.0  0.63701  0.62703  0.06293  1.0000
  S   S109      1.0  0.44961  0.53624  0.08259  1.0000
  H   H330      1.0  0.41212  0.89888  0.06030  1.0000
  H   H331      1.0  0.36365  0.00091  0.47504  1.0000
  Fe  Fe55      1.0  0.50396  0.02026  0.12247  1.0000
  Fe  Fe56      1.0  0.57155  0.53056  0.03996  1.0000
  H   H332      1.0  0.63102  0.00645  0.12498  1.0000
  H   H333      1.0  0.63874  0.63074  0.45921  1.0000
  S   S110      1.0  0.62309  0.52919  0.06655  1.0000
  N   N31       1.0  0.36754  0.92100  0.03987  1.0000
  C   C330      1.0  0.42906  0.00585  0.46904  1.0000
  C   C331      1.0  0.39755  0.92121  0.05844  1.0000
  C   C332      1.0  0.55197  0.66907  0.45870  1.0000
  H   H334      1.0  0.52741  0.67939  0.45713  1.0000
  C   C333      1.0  0.66758  0.98690  0.08496  1.0000
  H   H335      1.0  0.38135  0.67034  0.05980  1.0000
  H   H336      1.0  0.37555  0.71731  0.27668  1.0000
  C   C334      1.0  0.58919  0.62636  0.48046  1.0000
  C   C335      1.0  0.64634  0.68535  0.07206  1.0000
  H   H337      1.0  0.65856  0.96176  0.08738  1.0000
  H   H338      1.0  0.41792  0.98239  0.45841  1.0000
  S   S111      1.0  0.47337  0.52761  0.47465  1.0000
  H   H339      1.0  0.39872  0.99897  0.96781  1.0000
  H   H340      1.0  0.36295  0.60031  0.66859  1.0000
  Fe  Fe57      1.0  0.62432  0.81431  0.80164  1.0000
  S   S112      1.0  0.65046  0.77337  0.76892  1.0000
  S   S113      1.0  0.58057  0.83955  0.77202  1.0000
  Fe  Fe58      1.0  0.64953  0.74635  0.82809  1.0000
  S   S114      1.0  0.64301  0.69098  0.83636  1.0000
  H   H341      1.0  0.50449  0.01894  0.76341  1.0000
  S   S115      1.0  0.61960  0.78524  0.85881  1.0000
  H   H342      1.0  0.45399  0.99375  0.99887  1.0000
  C   C336      1.0  0.54535  0.90625  0.91747  1.0000
  H   H343      1.0  0.39956  0.89586  0.93862  1.0000
  S   S116      1.0  0.46814  0.97746  0.56463  1.0000
  C   C337      1.0  0.36725  0.57562  0.53275  1.0000
  S   S117      1.0  0.56838  0.99269  0.73154  1.0000
  H   H344      1.0  0.38566  0.56220  0.51581  1.0000
  H   H345      1.0  0.38603  0.66158  0.58621  1.0000
  H   H346      1.0  0.52238  0.91962  0.92108  1.0000
  S   S118      1.0  0.45064  0.56341  0.57928  1.0000
  Fe  Fe59      1.0  0.53559  0.57457  0.98020  1.0000
  S   S119      1.0  0.53784  0.62657  0.95443  1.0000
  H   H347      1.0  0.60542  0.91504  0.66820  1.0000
  C   C338      1.0  0.61437  0.67344  0.87030  1.0000
  C   C339      1.0  0.61372  0.63903  0.87581  1.0000
  C   C340      1.0  0.59072  0.62422  0.90175  1.0000
  C   C341      1.0  0.56802  0.64376  0.92236  1.0000
  C   C342      1.0  0.56894  0.67816  0.91722  1.0000
  C   C343      1.0  0.59205  0.69296  0.89153  1.0000
  H   H348      1.0  0.63075  0.62370  0.85934  1.0000
  H   H349      1.0  0.59005  0.59769  0.90502  1.0000
  H   H350      1.0  0.55139  0.69348  0.93288  1.0000
  H   H351      1.0  0.59212  0.71940  0.88753  1.0000
  C   C344      1.0  0.57162  0.94996  0.74189  1.0000
  C   C345      1.0  0.59749  0.93866  0.76623  1.0000
  C   C346      1.0  0.60079  0.90491  0.77546  1.0000
  C   C347      1.0  0.57780  0.88219  0.76100  1.0000
  C   C348      1.0  0.55166  0.89354  0.73718  1.0000
  C   C349      1.0  0.54874  0.92720  0.72729  1.0000
  H   H352      1.0  0.61523  0.95614  0.77778  1.0000
  H   H353      1.0  0.62103  0.89657  0.79383  1.0000
  H   H354      1.0  0.53367  0.87615  0.72598  1.0000
  H   H355      1.0  0.52860  0.93557  0.70871  1.0000
  H   H356      1.0  0.56230  0.91903  0.97663  1.0000
  S   S120      1.0  0.67059  0.83988  0.82067  1.0000
  C   C350      1.0  0.41095  0.97526  0.96818  1.0000
  C   C351      1.0  0.42594  0.96671  0.56558  1.0000
  C   C352      1.0  0.45831  0.94187  0.98631  1.0000
  H   H357      1.0  0.61537  0.88857  0.96907  1.0000
  C   C353      1.0  0.37939  0.93876  0.53368  1.0000
  H   H358      1.0  0.50323  0.89433  0.85975  1.0000
  H   H359      1.0  0.58702  0.85655  0.66730  1.0000
  H   H360      1.0  0.68216  0.82674  0.70931  1.0000
  H   H361      1.0  0.63266  0.60763  0.96684  1.0000
  C   C354      1.0  0.37226  0.57982  0.65139  1.0000
  C   C355      1.0  0.40251  0.58272  0.63137  1.0000
  C   C356      1.0  0.41490  0.55658  0.60835  1.0000
  Fe  Fe60      1.0  0.66857  0.80720  0.87475  1.0000
  C   C357      1.0  0.59758  0.88907  0.94490  1.0000
  H   H362      1.0  0.41608  0.60563  0.63307  1.0000
  C   C358      1.0  0.41342  0.94506  0.53647  1.0000
  S   S121      1.0  0.57110  0.53252  0.97293  1.0000
  C   C359      1.0  0.35912  0.65697  0.58496  1.0000
  H   H363      1.0  0.63259  0.58066  0.00908  1.0000
  C   C360      1.0  0.65427  0.90299  0.68917  1.0000
  H   H364      1.0  0.52975  0.86796  0.83142  1.0000
  C   C361      1.0  0.61207  0.86264  0.67575  1.0000
  S   S122      1.0  0.67906  0.82111  0.93867  1.0000
  Fe  Fe61      1.0  0.53651  0.01563  0.68279  1.0000
  C   C362      1.0  0.63367  0.83781  0.68775  1.0000
  C   C363      1.0  0.58134  0.87341  0.87828  1.0000
  C   C364      1.0  0.52896  0.89118  0.84920  1.0000
  C   C365      1.0  0.40428  0.98118  0.59279  1.0000
  C   C366      1.0  0.60439  0.87271  0.90925  1.0000
  H   H365      1.0  0.35371  0.98702  0.61051  1.0000
  C   C367      1.0  0.44224  0.97235  0.98588  1.0000
  H   H366      1.0  0.41604  0.68900  0.00333  1.0000
  S   S123      1.0  0.48177  0.01003  0.67619  1.0000
  H   H367      1.0  0.39755  0.61850  0.53963  1.0000
  H   H368      1.0  0.53546  0.91203  0.82914  1.0000
  H   H369      1.0  0.45520  0.89076  0.96883  1.0000
  H   H370      1.0  0.59539  0.60212  0.99525  1.0000
  C   C368      1.0  0.66552  0.84617  0.69988  1.0000
  H   H371      1.0  0.62743  0.85956  0.90559  1.0000
  H   H372      1.0  0.41359  0.99793  0.61528  1.0000
  H   H373      1.0  0.43009  0.93359  0.51548  1.0000
  S   S124      1.0  0.54678  0.01363  0.61674  1.0000
  C   C369      1.0  0.37032  0.97487  0.59005  1.0000
  H   H374      1.0  0.58695  0.86066  0.85071  1.0000
  S   S125      1.0  0.49076  0.54144  0.97799  1.0000
  C   C370      1.0  0.44284  0.91440  0.96888  1.0000
  C   C371      1.0  0.62238  0.89547  0.67637  1.0000
  Fe  Fe62      1.0  0.49138  0.01199  0.61023  1.0000
  C   C372      1.0  0.56790  0.90604  0.94910  1.0000
  C   C373      1.0  0.41128  0.91720  0.95182  1.0000
  C   C374      1.0  0.39514  0.94768  0.95148  1.0000
  N   N32       1.0  0.55215  0.88979  0.88272  1.0000
  H   H375      1.0  0.62550  0.81233  0.68857  1.0000
  C   C375      1.0  0.37389  0.60752  0.54650  1.0000
  C   C376      1.0  0.39099  0.69796  0.00623  1.0000
  N   N33       1.0  0.67549  0.87840  0.70026  1.0000
  H   H376      1.0  0.66172  0.92866  0.69050  1.0000
  C   C377      1.0  0.37828  0.72038  0.97856  1.0000
  S   S126      1.0  0.35506  0.95238  0.93151  1.0000
  H   H377      1.0  0.39339  0.72909  0.95401  1.0000
  C   C378      1.0  0.39734  0.52689  0.60682  1.0000
  S   S127      1.0  0.49779  0.93724  0.00786  1.0000
  C   C379      1.0  0.62253  0.60422  0.99735  1.0000
  C   C380      1.0  0.35766  0.95403  0.56019  1.0000
  H   H378      1.0  0.62590  0.66731  0.97616  1.0000
  Fe  Fe63      1.0  0.47656  0.52464  0.54167  1.0000
  C   C381      1.0  0.36718  0.52387  0.62730  1.0000
  S   S128      1.0  0.53211  0.52244  0.54236  1.0000
  C   C382      1.0  0.63161  0.66327  0.00751  1.0000
  C   C383      1.0  0.35418  0.55055  0.64901  1.0000
  H   H379      1.0  0.36999  0.92257  0.51066  1.0000
  Fe  Fe64      1.0  0.79839  0.15115  0.42054  1.0000
  S   S129      1.0  0.74653  0.14821  0.39740  1.0000
  S   S130      1.0  0.84046  0.14166  0.37701  1.0000
  N   N34       1.0  0.94864  0.51154  0.05850  1.0000
  Fe  Fe65      1.0  0.77553  0.18623  0.49694  1.0000
  H   H380      1.0  0.98764  0.06717  0.11172  1.0000
  Fe  Fe66      1.0  0.73167  0.13477  0.46013  1.0000
  H   H381      1.0  0.71474  0.46875  0.12806  1.0000
  Fe  Fe67      1.0  0.74235  0.20081  0.41743  1.0000
  S   S131      1.0  0.71668  0.23616  0.37519  1.0000
  H   H382      1.0  0.90296  0.49984  0.37394  1.0000
  S   S132      1.0  0.79463  0.20463  0.43820  1.0000
  Fe  Fe68      1.0  0.79094  0.35782  0.21554  1.0000
  S   S133      1.0  0.83267  0.37014  0.17408  1.0000
  S   S134      1.0  0.80771  0.32905  0.26983  1.0000
  Fe  Fe69      1.0  0.74138  0.39812  0.16685  1.0000
  S   S135      1.0  0.77973  0.41433  0.12298  1.0000
  H   H383      1.0  0.82389  0.27576  0.21382  1.0000
  Fe  Fe70      1.0  0.79635  0.36135  0.12467  1.0000
  S   S136      1.0  0.80829  0.33685  0.06559  1.0000
  Fe  Fe71      1.0  0.81282  0.42158  0.17648  1.0000
  S   S137      1.0  0.84496  0.46692  0.18632  1.0000
  S   S138      1.0  0.75627  0.34442  0.16578  1.0000
  S   S139      1.0  0.77277  0.40992  0.22060  1.0000
  C   C384      1.0  0.97613  0.04231  0.11267  1.0000
  H   H384      1.0  0.85041  0.50204  0.30328  1.0000
  C   C385      1.0  0.85765  0.47658  0.30784  1.0000
  Fe  Fe72      1.0  0.00518  0.49681  0.31750  1.0000
  H   H385      1.0  0.89453  0.49570  0.13288  1.0000
  S   S140      1.0  0.98107  0.45696  0.27958  1.0000
  C   C386      1.0  0.88318  0.46398  0.21139  1.0000
  C   C387      1.0  0.89794  0.43346  0.21883  1.0000
  C   C388      1.0  0.92828  0.43188  0.23893  1.0000
  C   C389      1.0  0.94391  0.46068  0.25247  1.0000
  C   C390      1.0  0.92940  0.49129  0.24464  1.0000
  C   C391      1.0  0.89924  0.49291  0.22393  1.0000
  H   H386      1.0  0.88603  0.41103  0.20909  1.0000
  H   H387      1.0  0.93945  0.40810  0.24463  1.0000
  H   H388      1.0  0.70173  0.27940  0.30909  1.0000
  H   H389      1.0  0.96313  0.04010  0.14178  1.0000
  C   C392      1.0  0.80399  0.22416  0.05320  1.0000
  C   C393      1.0  0.73454  0.03333  0.03281  1.0000
  N   N35       1.0  0.70575  0.02625  0.05773  1.0000
  C   C394      1.0  0.80625  0.29346  0.06137  1.0000
  C   C395      1.0  0.79877  0.27367  0.09432  1.0000
  C   C396      1.0  0.79780  0.23913  0.09024  1.0000
  H   H390      1.0  0.91942  0.43111  0.34542  1.0000
  H   H391      1.0  0.78901  0.17713  0.33352  1.0000
  H   H392      1.0  0.79391  0.28503  0.12289  1.0000
  H   H393      1.0  0.79213  0.22385  0.11574  1.0000
  C   C397      1.0  0.74147  0.26364  0.34728  1.0000
  C   C398      1.0  0.77503  0.26686  0.35538  1.0000
  C   C399      1.0  0.79475  0.28750  0.33179  1.0000
  C   C400      1.0  0.78120  0.30512  0.29975  1.0000
  C   C401      1.0  0.74755  0.30228  0.29166  1.0000
  C   C402      1.0  0.72771  0.28165  0.31551  1.0000
  H   H394      1.0  0.78592  0.25348  0.37981  1.0000
  H   H395      1.0  0.82073  0.28965  0.33831  1.0000
  H   H396      1.0  0.73684  0.31587  0.26706  1.0000
  C   C403      1.0  0.97280  0.48945  0.06823  1.0000
  C   C404      1.0  0.86351  0.10499  0.37110  1.0000
  C   C405      1.0  0.86296  0.07965  0.39945  1.0000
  C   C406      1.0  0.88461  0.05266  0.39572  1.0000
  C   C407      1.0  0.90669  0.05068  0.36352  1.0000
  C   C408      1.0  0.90644  0.07550  0.33458  1.0000
  C   C409      1.0  0.88502  0.10254  0.33845  1.0000
  H   H397      1.0  0.84647  0.08126  0.42471  1.0000
  C   C410      1.0  0.92068  0.51368  0.08108  1.0000
  C   C411      1.0  0.97773  0.09268  0.38645  1.0000
  H   H398      1.0  0.88555  0.12197  0.31632  1.0000
  H   H399      1.0  0.93429  0.48940  0.33784  1.0000
  H   H400      1.0  0.96393  0.15930  0.32732  1.0000
  S   S141      1.0  0.69613  0.09303  0.47415  1.0000
  H   H401      1.0  0.88382  0.38575  0.32063  1.0000
  N   N36       1.0  0.88681  0.46915  0.32624  1.0000
  C   C412      1.0  0.94156  0.47184  0.12567  1.0000
  S   S142      1.0  0.80344  0.18069  0.04976  1.0000
  H   H402      1.0  0.88811  0.51666  0.21802  1.0000
  C   C413      1.0  0.93361  0.05110  0.01376  1.0000
  H   H403      1.0  0.95265  0.08299  0.44152  1.0000
  S   S143      1.0  0.78413  0.13287  0.48164  1.0000
  H   H404      1.0  0.99775  0.10828  0.32984  1.0000
  H   H405      1.0  0.83131  0.39888  0.28632  1.0000
  C   C414      1.0  0.81243  0.27850  0.02428  1.0000
  C   C415      1.0  0.81111  0.24396  0.02009  1.0000
  H   H406      1.0  0.92322  0.07424  0.30961  1.0000
  H   H407      1.0  0.75725  0.02417  0.04746  1.0000
  H   H408      1.0  0.78039  0.27703  0.20879  1.0000
  H   H409      1.0  0.80361  0.24540  0.18289  1.0000
  C   C416      1.0  0.90786  0.49567  0.34170  1.0000
  N   N37       1.0  0.79819  0.23769  0.24514  1.0000
  C   C417      1.0  0.76775  0.22588  0.25507  1.0000
  C   C418      1.0  0.82546  0.22768  0.26585  1.0000
  C   C419      1.0  0.76396  0.20392  0.28697  1.0000
  C   C420      1.0  0.82255  0.20565  0.29784  1.0000
  C   C421      1.0  0.79158  0.19380  0.30841  1.0000
  C   C422      1.0  0.80170  0.25990  0.21087  1.0000
  H   H410      1.0  0.74610  0.23407  0.23893  1.0000
  H   H411      1.0  0.84957  0.23703  0.25796  1.0000
  H   H412      1.0  0.97303  0.07609  0.04385  1.0000
  H   H413      1.0  0.84402  0.19791  0.31469  1.0000
  C   C423      1.0  0.95503  0.05640  0.04591  1.0000
  H   H414      1.0  0.94139  0.51369  0.25452  1.0000
  C   C424      1.0  0.91676  0.49396  0.11503  1.0000
  S   S144      1.0  0.72256  0.18720  0.47800  1.0000
  N   N38       1.0  0.93649  0.12802  0.41497  1.0000
  C   C425      1.0  0.98091  0.11408  0.35405  1.0000
  C   C426      1.0  0.84664  0.41861  0.29806  1.0000
  C   C427      1.0  0.89608  0.43697  0.33137  1.0000
  C   C428      1.0  0.96973  0.46942  0.10206  1.0000
  S   S145      1.0  0.00116  0.48959  0.38384  1.0000
  H   H415      1.0  0.90274  0.11281  0.46012  1.0000
  C   C429      1.0  0.93972  0.14940  0.38358  1.0000
  S   S146      1.0  0.97052  0.03994  0.25125  1.0000
  H   H416      1.0  0.71778  0.39944  0.06464  1.0000
  H   H417      1.0  0.81485  0.45750  0.27720  1.0000
  H   H418      1.0  0.99583  0.02328  0.11188  1.0000
  H   H419      1.0  0.92454  0.17136  0.38193  1.0000
  C   C430      1.0  0.87617  0.41124  0.31734  1.0000
  H   H420      1.0  0.73968  0.19558  0.29584  1.0000
  C   C431      1.0  0.83728  0.45147  0.29323  1.0000
  H   H421      1.0  0.73742  0.06024  0.02712  1.0000
  C   C432      1.0  0.95539  0.10014  0.41690  1.0000
  H   H422      1.0  0.98903  0.45203  0.10972  1.0000
  H   H423      1.0  0.71962  0.45245  0.02740  1.0000
  C   C433      1.0  0.96187  0.14270  0.35260  1.0000
  N   N39       1.0  0.95320  0.03710  0.07941  1.0000
  H   H424      1.0  0.92681  0.14918  0.47171  1.0000
  H   H425      1.0  0.69945  0.07624  0.07624  1.0000
  H   H426      1.0  0.89275  0.15102  0.43695  1.0000
  H   H427      1.0  0.93883  0.45649  0.15203  1.0000
  H   H428      1.0  0.99173  0.06992  0.38751  1.0000
  H   H429      1.0  0.00280  0.30625  0.05642  1.0000
  C   C434      1.0  0.91371  0.13570  0.44761  1.0000
  C   C435      1.0  0.68853  0.46890  0.12245  1.0000
  C   C436      1.0  0.69672  0.43884  0.02959  1.0000
  H   H430      1.0  0.68914  0.51579  0.09195  1.0000
  H   H431      1.0  0.88457  0.03352  0.41822  1.0000
  H   H432      1.0  0.99463  0.48717  0.04980  1.0000
  C   C437      1.0  0.69573  0.40908  0.05047  1.0000
  C   C438      1.0  0.91056  0.02568  0.01587  1.0000
  H   H433      1.0  0.90383  0.51919  0.32533  1.0000
  C   C439      1.0  0.00971  0.31293  0.02622  1.0000
  C   C440      1.0  0.69088  0.05099  0.07886  1.0000
  H   H434      1.0  0.97403  0.35244  0.02278  1.0000
  Fe  Fe73      1.0  0.83761  0.10415  0.93631  1.0000
  S   S147      1.0  0.79827  0.10821  0.88973  1.0000
  S   S148      1.0  0.87701  0.06488  0.92696  1.0000
  N   N40       1.0  0.72006  0.21051  0.62585  1.0000
  S   S149      1.0  0.76219  0.16445  0.94557  1.0000
  S   S150      1.0  0.96592  0.48535  0.91835  1.0000
  Fe  Fe74      1.0  0.76192  0.10895  0.94050  1.0000
  H   H435      1.0  0.91011  0.49193  0.73614  1.0000
  Fe  Fe75      1.0  0.80245  0.16279  0.89944  1.0000
  S   S151      1.0  0.81463  0.19656  0.84799  1.0000
  C   C441      1.0  0.69810  0.44409  0.59068  1.0000
  S   S152      1.0  0.84409  0.15877  0.94343  1.0000
  Fe  Fe76      1.0  0.73278  0.34148  0.74203  1.0000
  S   S153      1.0  0.78591  0.34736  0.72521  1.0000
  S   S154      1.0  0.71244  0.29879  0.77779  1.0000
  Fe  Fe77      1.0  0.71236  0.40788  0.70534  1.0000
  S   S155      1.0  0.76438  0.41925  0.68726  1.0000
  H   H436      1.0  0.93892  0.51972  0.99710  1.0000
  Fe  Fe78      1.0  0.76527  0.36623  0.66712  1.0000
  S   S156      1.0  0.77951  0.35402  0.60380  1.0000
  Fe  Fe79      1.0  0.78008  0.39946  0.74716  1.0000
  S   S157      1.0  0.81080  0.42314  0.79648  1.0000
  S   S158      1.0  0.71253  0.35608  0.68207  1.0000
  S   S159      1.0  0.72767  0.39247  0.76702  1.0000
  H   H437      1.0  0.88021  0.02289  0.79213  1.0000
  S   S160      1.0  0.99783  0.04118  0.70929  1.0000
  S   S161      1.0  0.00114  0.08266  0.81280  1.0000
  H   H438      1.0  0.70448  0.24527  0.83323  1.0000
  S   S162      1.0  0.80105  0.10086  0.98662  1.0000
  S   S163      1.0  0.96313  0.45652  0.80444  1.0000
  C   C442      1.0  0.85403  0.42737  0.79991  1.0000
  C   C443      1.0  0.87488  0.42002  0.76797  1.0000
  C   C444      1.0  0.90868  0.42756  0.77055  1.0000
  C   C445      1.0  0.92182  0.44260  0.80490  1.0000
  C   C446      1.0  0.90120  0.44840  0.83752  1.0000
  C   C447      1.0  0.86751  0.44070  0.83503  1.0000
  H   H439      1.0  0.86487  0.40952  0.74085  1.0000
  H   H440      1.0  0.70615  0.46292  0.61158  1.0000
  H   H441      1.0  0.91097  0.45974  0.86422  1.0000
  H   H442      1.0  0.85159  0.44615  0.86004  1.0000
  C   C448      1.0  0.78608  0.24460  0.57114  1.0000
  H   H443      1.0  0.75207  0.21616  0.73435  1.0000
  C   C449      1.0  0.77848  0.30181  0.55180  1.0000
  C   C450      1.0  0.78125  0.31177  0.59179  1.0000
  C   C451      1.0  0.78600  0.28802  0.62151  1.0000
  C   C452      1.0  0.78899  0.25460  0.61108  1.0000
  S   S164      1.0  0.71915  0.07271  0.93904  1.0000
  H   H444      1.0  0.83228  0.50328  0.78839  1.0000
  H   H445      1.0  0.78844  0.29552  0.65237  1.0000
  H   H446      1.0  0.79378  0.23648  0.63404  1.0000
  C   C453      1.0  0.78508  0.22296  0.82710  1.0000
  C   C454      1.0  0.75221  0.22240  0.83928  1.0000
  C   C455      1.0  0.72987  0.24550  0.82353  1.0000
  C   C456      1.0  0.74039  0.26918  0.79579  1.0000
  C   C457      1.0  0.77304  0.26901  0.78297  1.0000
  C   C458      1.0  0.79527  0.24591  0.79844  1.0000
  H   H447      1.0  0.74410  0.20449  0.86112  1.0000
  C   C459      1.0  0.88853  0.04800  0.78738  1.0000
  H   H448      1.0  0.78128  0.28649  0.76100  1.0000
  H   H449      1.0  0.82063  0.24624  0.78866  1.0000
  C   C460      1.0  0.91161  0.07017  0.89548  1.0000
  C   C461      1.0  0.92482  0.10137  0.88786  1.0000
  C   C462      1.0  0.95255  0.10464  0.86300  1.0000
  C   C463      1.0  0.96705  0.07689  0.84499  1.0000
  C   C464      1.0  0.95394  0.04564  0.85278  1.0000
  C   C465      1.0  0.92659  0.04231  0.87833  1.0000
  H   H450      1.0  0.91400  0.12296  0.90155  1.0000
  H   H451      1.0  0.96276  0.12886  0.85745  1.0000
  H   H452      1.0  0.85253  0.06922  0.82671  1.0000
  H   H453      1.0  0.91972  0.13717  0.77429  1.0000
  Fe  Fe80      1.0  0.80364  0.15631  0.98901  1.0000
  C   C466      1.0  0.70708  0.20834  0.58508  1.0000
  S   S165      1.0  0.78897  0.20236  0.55940  1.0000
  H   H454      1.0  0.71802  0.26140  0.70595  1.0000
  C   C467      1.0  0.85380  0.51378  0.80283  1.0000
  H   H455      1.0  0.71528  0.23004  0.56740  1.0000
  N   N41       1.0  0.78706  0.29252  0.88732  1.0000
  C   C468      1.0  0.81968  0.28889  0.87830  1.0000
  C   C469      1.0  0.76919  0.31770  0.87084  1.0000
  C   C470      1.0  0.83512  0.31060  0.85174  1.0000
  C   C471      1.0  0.78391  0.33993  0.84434  1.0000
  C   C472      1.0  0.81707  0.33630  0.83477  1.0000
  C   C473      1.0  0.77164  0.27035  0.91643  1.0000
  H   H456      1.0  0.83377  0.26874  0.89110  1.0000
  H   H457      1.0  0.74325  0.32047  0.87761  1.0000
  H   H458      1.0  0.86086  0.30741  0.84420  1.0000
  H   H459      1.0  0.76970  0.35979  0.83110  1.0000
  H   H460      1.0  0.82867  0.35339  0.81414  1.0000
  H   H461      1.0  0.78349  0.24559  0.91615  1.0000
  H   H462      1.0  0.77375  0.28092  0.94693  1.0000
  H   H463      1.0  0.74523  0.26642  0.90931  1.0000
  C   C474      1.0  0.91557  0.05423  0.76289  1.0000
  C   C475      1.0  0.92662  0.08655  0.75795  1.0000
  C   C476      1.0  0.74319  0.21464  0.70385  1.0000
  C   C477      1.0  0.87299  0.07429  0.80680  1.0000
  H   H464      1.0  0.81855  0.29372  0.99884  1.0000
  H   H465      1.0  0.92453  0.42270  0.74528  1.0000
  C   C478      1.0  0.71521  0.41440  0.58787  1.0000
  C   C479      1.0  0.86712  0.13289  0.82241  1.0000
  C   C480      1.0  0.78041  0.26823  0.54152  1.0000
  H   H466      1.0  0.86390  0.12695  0.85454  1.0000
  C   C481      1.0  0.91044  0.11226  0.77768  1.0000
  H   H467      1.0  0.76651  0.16791  0.69204  1.0000
  C   C482      1.0  0.88573  0.50349  0.74190  1.0000
  C   C483      1.0  0.71255  0.23747  0.64867  1.0000
  C   C484      1.0  0.72397  0.23995  0.68797  1.0000
  H   H468      1.0  0.92841  0.03397  0.74849  1.0000
  Fe  Fe81      1.0  0.98784  0.48178  0.85731  1.0000
  H   H469      1.0  0.86685  0.48442  0.73520  1.0000
  H   H470      1.0  0.88106  0.15644  0.82093  1.0000
  H   H471      1.0  0.73709  0.41037  0.60572  1.0000
  H   H472      1.0  0.71626  0.18601  0.56932  1.0000
  H   H473      1.0  0.84250  0.13698  0.80887  1.0000
  H   H474      1.0  0.77496  0.32011  0.52868  1.0000
  H   H475      1.0  0.74610  0.16486  0.62253  1.0000
  N   N42       1.0  0.88410  0.10589  0.80189  1.0000
  H   H476      1.0  0.77823  0.26073  0.51062  1.0000
  H   H477      1.0  0.69785  0.25738  0.63644  1.0000
  H   H478      1.0  0.99122  0.36965  0.95479  1.0000
  H   H479      1.0  0.69378  0.12423  0.99170  1.0000
  C   C485      1.0  0.75111  0.18744  0.68021  1.0000
  C   C486      1.0  0.73929  0.18577  0.64100  1.0000
  H   H480      1.0  0.94830  0.09159  0.74008  1.0000
  H   H481      1.0  0.81617  0.23259  0.99154  1.0000
  C   C487      1.0  0.70397  0.38980  0.56219  1.0000
  N   N43       1.0  0.88341  0.51467  0.78342  1.0000
  H   H482      1.0  0.71730  0.36664  0.56002  1.0000
  Fe  Fe82      1.0  0.01659  0.47373  0.94142  1.0000
  H   H483      1.0  0.93476  0.06656  0.98725  1.0000
  C   C488      1.0  0.00282  0.34858  0.96908  1.0000
  H   H484      1.0  0.96501  0.02408  0.83933  1.0000
  C   C489      1.0  0.99331  0.33903  0.00738  1.0000
  H   H485      1.0  0.96372  0.81862  0.21675  1.0000
  C   C490      1.0  0.89692  0.89424  0.45693  1.0000
  Fe  Fe83      1.0  0.83770  0.73726  0.10676  1.0000
  S   S166      1.0  0.83159  0.79174  0.09757  1.0000
  S   S167      1.0  0.80919  0.70740  0.15174  1.0000
  Fe  Fe84      1.0  0.90257  0.73373  0.06017  1.0000
  N   N44       1.0  0.92004  0.91841  0.45182  1.0000
  S   S168      1.0  0.90220  0.78850  0.04876  1.0000
  Fe  Fe85      1.0  0.88548  0.79520  0.11223  1.0000
  S   S169      1.0  0.90331  0.82593  0.16492  1.0000
  H   H486      1.0  0.69938  0.74778  0.11424  1.0000
  S   S170      1.0  0.94744  0.70299  0.04328  1.0000
  S   S171      1.0  0.89055  0.74113  0.12478  1.0000
  C   C491      1.0  0.98072  0.77883  0.08508  1.0000
  Fe  Fe86      1.0  0.98789  0.99068  0.22752  1.0000
  S   S172      1.0  0.96860  0.96887  0.16920  1.0000
  C   C492      1.0  0.95179  0.53179  0.02247  1.0000
  Fe  Fe87      1.0  0.99547  0.54513  0.38619  1.0000
  S   S173      1.0  0.95156  0.56810  0.41837  1.0000
  S   S174      1.0  0.99655  0.55152  0.31947  1.0000
  H   H487      1.0  0.94740  0.92372  0.23183  1.0000
  C   C493      1.0  0.98053  0.62601  0.44533  1.0000
  C   C494      1.0  0.92113  0.62502  0.44451  1.0000
  C   C495      1.0  0.95132  0.60932  0.43652  1.0000
  H   H488      1.0  0.97795  0.53553  0.01399  1.0000
  H   H489      1.0  0.77228  0.79528  0.02701  1.0000
  C   C496      1.0  0.97954  0.65758  0.46290  1.0000
  C   C497      1.0  0.94943  0.67318  0.47123  1.0000
  H   H490      1.0  0.97230  0.76067  0.18331  1.0000
  C   C498      1.0  0.97544  0.76009  0.11938  1.0000
  C   C499      1.0  0.91944  0.86654  0.16478  1.0000
  C   C500      1.0  0.92681  0.88146  0.20157  1.0000
  C   C501      1.0  0.94189  0.91266  0.20325  1.0000
  C   C502      1.0  0.94952  0.92952  0.16807  1.0000
  C   C503      1.0  0.94173  0.91484  0.13115  1.0000
  C   C504      1.0  0.92680  0.88343  0.12946  1.0000
  H   H491      1.0  0.92108  0.86870  0.22907  1.0000
  H   H492      1.0  0.00392  0.61424  0.43954  1.0000
  H   H493      1.0  0.94750  0.92769  0.10374  1.0000
  H   H494      1.0  0.92124  0.87221  0.10093  1.0000
  C   C505      1.0  0.78619  0.78696  0.41860  1.0000
  C   C506      1.0  0.76614  0.79959  0.38796  1.0000
  C   C507      1.0  0.73823  0.78204  0.37477  1.0000
  C   C508      1.0  0.73053  0.75155  0.39195  1.0000
  C   C509      1.0  0.75042  0.73915  0.42276  1.0000
  C   C510      1.0  0.77804  0.75679  0.43614  1.0000
  H   H495      1.0  0.77229  0.82296  0.37429  1.0000
  H   H496      1.0  0.72305  0.79182  0.35102  1.0000
  H   H497      1.0  0.96009  0.89464  0.48074  1.0000
  S   S175      1.0  0.90554  0.79606  0.48504  1.0000
  H   H498      1.0  0.99086  0.82738  0.06199  1.0000
  C   C511      1.0  0.71753  0.70377  0.19785  1.0000
  C   C512      1.0  0.75132  0.69930  0.19144  1.0000
  C   C513      1.0  0.76665  0.71301  0.15784  1.0000
  C   C514      1.0  0.74796  0.73090  0.13025  1.0000
  C   C515      1.0  0.71386  0.73437  0.13594  1.0000
  H   H499      1.0  0.70591  0.69309  0.22388  1.0000
  H   H500      1.0  0.76569  0.68531  0.21275  1.0000
  H   H501      1.0  0.75967  0.74152  0.10425  1.0000
  H   H502      1.0  0.89986  0.87582  0.48021  1.0000
  C   C516      1.0  0.91607  0.94194  0.42286  1.0000
  H   H503      1.0  0.92974  0.99628  0.10781  1.0000
  Fe  Fe88      1.0  0.84847  0.78062  0.03494  1.0000
  H   H504      1.0  0.79321  0.74685  0.45974  1.0000
  C   C517      1.0  0.98682  0.82301  0.19982  1.0000
  N   N45       1.0  0.81331  0.76873  0.24510  1.0000
  C   C518      1.0  0.78183  0.75823  0.25209  1.0000
  C   C519      1.0  0.83633  0.76784  0.27491  1.0000
  C   C520      1.0  0.77294  0.74568  0.28949  1.0000
  C   C521      1.0  0.82818  0.75578  0.31280  1.0000
  C   C522      1.0  0.79641  0.74427  0.31986  1.0000
  C   C523      1.0  0.82292  0.78082  0.20553  1.0000
  H   H505      1.0  0.76342  0.75930  0.22868  1.0000
  H   H506      1.0  0.86117  0.77643  0.26937  1.0000
  H   H507      1.0  0.74800  0.73717  0.29503  1.0000
  H   H508      1.0  0.84629  0.75539  0.33666  1.0000
  H   H509      1.0  0.78988  0.73458  0.34900  1.0000
  H   H510      1.0  0.80212  0.78016  0.18397  1.0000
  H   H511      1.0  0.83219  0.80658  0.20741  1.0000
  H   H512      1.0  0.84264  0.76489  0.19304  1.0000
  H   H513      1.0  0.00233  0.66989  0.47045  1.0000
  S   S176      1.0  0.98705  0.96554  0.28718  1.0000
  C   C524      1.0  0.86914  0.89290  0.43230  1.0000
  S   S177      1.0  0.82196  0.80856  0.43321  1.0000
  H   H514      1.0  0.99421  0.85303  0.12894  1.0000
  H   H515      1.0  0.89681  0.66869  0.46749  1.0000
  H   H516      1.0  0.93417  0.96136  0.41889  1.0000
  H   H517      1.0  0.89840  0.61235  0.43773  1.0000
  Fe  Fe89      1.0  0.85070  0.79053  0.48720  1.0000
  H   H518      1.0  0.74462  0.71557  0.43615  1.0000
  H   H519      1.0  0.84351  0.91585  0.38330  1.0000
  H   H520      1.0  0.99043  0.85019  0.19829  1.0000
  S   S178      1.0  0.84991  0.72541  0.04272  1.0000
  C   C525      1.0  0.88856  0.94139  0.39775  1.0000
  H   H521      1.0  0.70643  0.97488  0.04401  1.0000
  H   H522      1.0  0.88567  0.96014  0.37481  1.0000
  C   C526      1.0  0.92015  0.65697  0.46130  1.0000
  C   C527      1.0  0.69455  0.99450  0.06064  1.0000
  C   C528      1.0  0.97713  0.77526  0.15683  1.0000
  H   H523      1.0  0.97896  0.76732  0.05585  1.0000
  N   N46       1.0  0.98427  0.80813  0.16002  1.0000
  C   C529      1.0  0.98928  0.82680  0.12651  1.0000
  S   S179      1.0  0.69769  0.72693  0.37468  1.0000
  H   H524      1.0  0.96767  0.93699  0.46809  1.0000
  H   H525      1.0  0.99740  0.65783  0.01653  1.0000
  C   C530      1.0  0.93089  0.01189  0.08151  1.0000
  Fe  Fe90      1.0  0.97338  0.01552  0.31152  1.0000
  C   C531      1.0  0.86500  0.91664  0.40252  1.0000
  C   C532      1.0  0.69865  0.72089  0.16983  1.0000
  H   H526      1.0  0.96949  0.73405  0.11681  1.0000
  C   C533      1.0  0.94855  0.91947  0.47860  1.0000
  H   H527      1.0  0.85094  0.87357  0.43641  1.0000
  H   H528      1.0  0.89148  0.98589  0.05173  1.0000
  H   H529      1.0  0.00785  0.81217  0.21640  1.0000
  C   C534      1.0  0.90920  0.00584  0.04988  1.0000
  S   S180      1.0  0.93576  0.01822  0.36180  1.0000
  C   C535      1.0  0.98744  0.81246  0.08855  1.0000
  C   C536      1.0  0.94520  0.66682  0.01342  1.0000
  H   H530      1.0  0.90120  0.53068  0.07288  1.0000
  S   S181      1.0  0.94996  0.71153  0.49695  1.0000
  H   H531      1.0  0.94101  0.55673  0.02699  1.0000
  H   H532      1.0  0.71284  0.80294  0.01149  1.0000
  H   H533      1.0  0.94054  0.92690  0.50905  1.0000
  C   C537      1.0  0.78181  0.75664  0.82294  1.0000
  H   H534      1.0  0.71043  0.88243  0.74698  1.0000
  Fe  Fe91      1.0  0.85254  0.76443  0.57192  1.0000
  S   S182      1.0  0.84629  0.81568  0.54691  1.0000
  S   S183      1.0  0.82137  0.73887  0.61923  1.0000
  C   C538      1.0  0.82990  0.76650  0.88043  1.0000
  H   H535      1.0  0.99754  0.90832  0.76950  1.0000
  H   H536      1.0  0.80910  0.79062  0.78634  1.0000
  Fe  Fe92      1.0  0.90176  0.81738  0.54685  1.0000
  S   S184      1.0  0.93491  0.86251  0.55369  1.0000
  H   H537      1.0  0.86765  0.61276  0.53966  1.0000
  S   S185      1.0  0.83068  0.80295  0.97701  1.0000
  S   S186      1.0  0.90785  0.76781  0.57614  1.0000
  C   C539      1.0  0.91532  0.65537  0.99803  1.0000
  Fe  Fe93      1.0  0.00698  0.98671  0.71512  1.0000
  S   S187      1.0  0.96729  0.94739  0.70920  1.0000
  C   C540      1.0  0.87887  0.53777  0.86142  1.0000
  C   C541      1.0  0.80066  0.73016  0.92744  1.0000
  S   S188      1.0  0.94078  0.57353  0.93482  1.0000
  C   C542      1.0  0.91449  0.62682  0.97404  1.0000
  H   H538      1.0  0.89124  0.61828  0.96224  1.0000
  S   S189      1.0  0.74107  0.81416  0.75485  1.0000
  Fe  Fe94      1.0  0.69681  0.79733  0.79115  1.0000
  C   C543      1.0  0.94345  0.60934  0.96517  1.0000
  C   C544      1.0  0.97333  0.62054  0.98085  1.0000
  C   C545      1.0  0.83463  0.66061  0.57795  1.0000
  C   C546      1.0  0.93820  0.65146  0.56615  1.0000
  C   C547      1.0  0.83227  0.78276  0.84366  1.0000
  H   H539      1.0  0.82126  0.63776  0.56958  1.0000
  H   H540      1.0  0.00948  0.88339  0.70446  1.0000
  C   C548      1.0  0.94409  0.88507  0.59769  1.0000
  C   C549      1.0  0.96823  0.90992  0.59608  1.0000
  C   C550      1.0  0.97566  0.92918  0.62993  1.0000
  C   C551      1.0  0.95884  0.92387  0.66573  1.0000
  C   C552      1.0  0.93495  0.89882  0.66749  1.0000
  C   C553      1.0  0.92761  0.87944  0.63367  1.0000
  H   H541      1.0  0.98125  0.91434  0.56846  1.0000
  H   H542      1.0  0.99414  0.94833  0.62818  1.0000
  H   H543      1.0  0.92183  0.89450  0.69508  1.0000
  H   H544      1.0  0.90894  0.86048  0.63530  1.0000
  C   C554      1.0  0.78837  0.80862  0.96792  1.0000
  C   C555      1.0  0.77827  0.81837  0.92966  1.0000
  C   C556      1.0  0.74477  0.82146  0.92045  1.0000
  C   C557      1.0  0.72108  0.81616  0.94996  1.0000
  C   C558      1.0  0.91757  0.62753  0.54977  1.0000
  S   S190      1.0  0.69842  0.76698  0.84720  1.0000
  H   H545      1.0  0.79641  0.82364  0.90698  1.0000
  H   H546      1.0  0.73730  0.82881  0.89074  1.0000
  C   C559      1.0  0.90875  0.53902  0.84115  1.0000
  C   C560      1.0  0.70874  0.88638  0.71418  1.0000
  C   C561      1.0  0.76166  0.79298  0.71591  1.0000
  C   C562      1.0  0.75605  0.75959  0.70797  1.0000
  C   C563      1.0  0.77437  0.74340  0.67808  1.0000
  C   C564      1.0  0.79799  0.76052  0.65543  1.0000
  C   C565      1.0  0.80320  0.79402  0.66303  1.0000
  C   C566      1.0  0.78532  0.81006  0.69335  1.0000
  H   H547      1.0  0.73794  0.74611  0.72509  1.0000
  H   H548      1.0  0.77017  0.71747  0.67242  1.0000
  H   H549      1.0  0.82141  0.80745  0.64599  1.0000
  H   H550      1.0  0.79000  0.83584  0.69942  1.0000
  H   H551      1.0  0.84852  0.77107  0.90301  1.0000
  Fe  Fe95      1.0  0.90804  0.74626  0.51404  1.0000
  C   C567      1.0  0.92463  0.67809  0.58670  1.0000
  H   H552      1.0  0.99581  0.60736  0.97428  1.0000
  H   H553      1.0  0.94045  0.69750  0.59809  1.0000
  C   C568      1.0  0.88348  0.63084  0.55379  1.0000
  H   H554      1.0  0.91672  0.01803  0.88437  1.0000
  H   H555      1.0  0.82776  0.66689  0.60919  1.0000
  Fe  Fe96      1.0  0.98212  0.53841  0.91703  1.0000
  H   H556      1.0  0.76268  0.75294  0.80074  1.0000
  H   H557      1.0  0.88006  0.70141  0.60622  1.0000
  C   C569      1.0  0.89047  0.68038  0.59068  1.0000
  N   N47       1.0  0.87038  0.65686  0.57445  1.0000
  C   C570      1.0  0.78004  0.74101  0.86013  1.0000
  H   H558      1.0  0.75920  0.72514  0.86654  1.0000
  C   C571      1.0  0.80797  0.77781  0.81481  1.0000
  H   H559      1.0  0.85251  0.79951  0.83787  1.0000
  H   H560      1.0  0.87744  0.54650  0.89204  1.0000
  H   H561      1.0  0.93038  0.54880  0.85589  1.0000
  N   N48       1.0  0.80388  0.74607  0.88831  1.0000
  C   C572      1.0  0.91066  0.52725  0.80199  1.0000
  H   H562      1.0  0.96457  0.65021  0.56128  1.0000
  H   H563      1.0  0.82257  0.73454  0.94666  1.0000
  H   H564      1.0  0.72710  0.87006  0.69946  1.0000
  H   H565      1.0  0.77899  0.74042  0.94342  1.0000
  H   H566      1.0  0.79762  0.70310  0.92395  1.0000
  H   H567      1.0  0.82608  0.68105  0.55839  1.0000
  C   C573      1.0  0.85114  0.52505  0.84222  1.0000
  C   C574      1.0  0.76470  0.80279  0.99740  1.0000
  C   C575      1.0  0.73109  0.80708  0.98856  1.0000
  H   H568      1.0  0.92795  0.60744  0.53239  1.0000
  H   H569      1.0  0.73189  0.02155  0.00296  1.0000
  H   H570      1.0  0.71566  0.91228  0.70741  1.0000
  S   S191      1.0  0.00141  0.53561  0.85393  1.0000
  H   H571      1.0  0.89284  0.66855  0.00453  1.0000
  H   H572      1.0  0.82784  0.52346  0.85784  1.0000
  S   S192      1.0  0.85331  0.73897  0.51183  1.0000
  C   C576      1.0  0.97416  0.64918  0.00479  1.0000
  H   H573      1.0  0.01560  0.91507  0.83958  1.0000
  H   H574      1.0  0.93428  0.52750  0.78690  1.0000
  H   H575      1.0  0.89383  0.02137  0.99111  1.0000
  H   H576      1.0  0.88234  0.52467  0.72135  1.0000
