data_image0
_chemical_formula_structural       HS2FeS2C3HC2H6C2SCHC2HC5H2CNHFeHSCHSH2SFeH5S2CNCSCSH3CFeC4FeCHC4H7SC3H2CH2C2HC3H2SHCHCSCNCH2FeHFeH2FeH2C3HFeS2FeS2FeSFeS3FeSHFeS2FeSHSH3SFeCSFeS2CFeCHSH2CFeH2C2HNCHNH2C2H3C3H3C4H2C6H4C6H4C4HCH3C6H6NC2HC4HCHSC3H2CHNC4H7CHCNC3H3C2HSC2HSHCSHNHC4S2CSHNH2C2H3C4FeHCFeSH4C4HC2HCH4CHCH3CH6CHSCNCHCHCHSCFeS2FeS2FeSFeCS2FeS2FeS2FeHFeS3FeSC3SHCHNHCHSC2SH3C5H5SH2SC2H2CHC6H4C6H4C6H4C3H2CHCHC4Fe2SNCN2CHCH2SCH3CH2CH2CHC3FeSCH2CFeS2NC4HCHCHCHCFeH4SC3H2NHC7H4FeSHC3H3SH2C2H4CHC2H2CH10CSHCSFeSH3FeS2FeSCFeSFeS3FeCSHFeS2FeS2FeSFeS3CH4C7H4C6HFeH2CSH2CSCH3C4HCH3C7H5SHCH2FeCHCNHFeCNCH2C2H6CNHNCH2C2HCHCHSCNCHSHC2HCHCSCFeH5C5HSC3H6C2HC2H2C2H2C2SCHS2CFeS2CSCSFeS2FeS2FeSFeS5FeS2HC6H4C6H4C6H4FeH3C6H4CFeCSHFeC3HC2H6FeN2C6H7CSHC3HSH3FeCFeN2C6H6SCFeCFeH2CHSHCH2CH3CFeSHNC6H9SCHCHFeSC5SHNC2H2CFeC3HCNCH5SC3HCHC2HNCHCHS3CSC2H3CHSCHNHC2H3CHC3SH2CH2SFeS2FeS2NFeS3CHCFeHSCFeCH4C2HNH2SCSC2FeS2FeS2FeSFeS3H2C2H2CSC2H2C8FeCH2C6H6FeC4NSCHC3H4FeH2Fe2C7H4C6H4C3H4C6H3C2H8CNCHCSHC2HSFeH3SCFeHCHC2FeNC5H3CH2CFeHNC4HCHSHCHSHSCH8SH2CH2CHCH2SH2CHSHCHC2SCH2CH3C2HCH4C2H3CHCHCNH2CFeS2FeS2Fe2S3FeS2FeS2FeSFeS3FeSCFeS2FeSFeS3FeSFeS2FeSFeS3NC2HFeS2CSC4HCH2CHCHSHCHC6H5C6H4C6H2CH2C6H4C6H2SHC6H6CHC4H4C2FeH4C2H2CH2SH2CH3C3NC6H8NC4H5NC3H2SC4HS2HCFeNH3CNC3HCFeHCH2CH3CH2CH4CFeH2SC2HNHSH2CNC2HCHFeH2C4HC2HC2SC2HCHCHCH3C2HCH2CSCHSCSC2H2C2SHNC3HC2FeSHCNH3C2H3CH2C2H2C2H2CH2SHFeHSCFe2S3HC3SH2SCHFe2SH3CSCFeHS2NSHSFeCS2HCFe2HSH2C3HCHSCHSNCSC2NHCH2SHSCFeC3HC2H5CSC2H4CHC5NSC5SH4CFeC4H3C3SHC2NC3H4C3H3CH3CHCNS2C2HCH2CSCHCH3S2H2C2Fe3CFeHSH3C3H3C2H3FeHCH2FeCHC2NC2NH2C2FeH3C2HCH3SH2C8H2CSHCSC3H2C3HC2FeSCH2CSCHC2SCSNHCNSCNH2C2H3SH2CH3SCFeCFe2H2SHC2HCFeCFeSH5FeC2S2H2CHCH3C2SH2C2HNHCHCHCSHCH2CSHCHC2H2FeS2FeSFeS2FeS2FeSFeCS2CH2C3HC7H4CHCH4SHC2SC3HCH3C4HCHCSCNCSHC3H2Fe2SNHSHNSC2H2FeHCNC6H9CHCH2CHSCH2CHCHC2H3CHC2H8CSC3HC3H2CNH2NH5CH2SH3SH2CH3CHC2H2FeS2FeS2FeCFeS3FeS2FeS2FeSFeHS3H3SHCHCHC2H3SC2HCHFeH3C2NC2HC4HC3HSH2C6HCH3C2HC2FeCHSC2H2C7H4C6H10C3HCNH4SCHSH2SC3SCSHC2H2CHSCHNHCHNH2NHCH5C4HCFeH2CHFeHC3H2CH2CHC3HC2HC3HSHN2HNC3FeH4NHSHCHC3SHC3H2NHCH2S2CSHFeS2FeS2FeSFeS3FeS4FeS2FeSFeS2HCSFeS2FeS2FeSFeS3FeC2HSC5H2C6H4C4H2C6H4C6H4FeHC7H4C7H4CHCHC2H4NC6H5CHC4H5NH3SNC5H4NHC2HC3H4CHFeH3C2NC6H4SC3H2S2CHC2H3C2HCH3CSHCH2S2C2H4S2CHC2HCFeC2H4CH2CH6SCHCHCH2CH2C2H4FeHCHC2HCSFeHSCSFeCFeC6HC4SHNHNC2HFeCHCSHCFeCFeNFeC3FeCHNSC2SHSCFeH2SCH3C3SC5H3SHCSH2S2NHCFeH3C2HNH3FeHCHC2HCHC10H3CHC2HSCHNC2FeS2FeS2FeSFeNS2HCH2C7H4CHCH2CHCHC2HCH3CNCH2CH2CH2SH2CHC2SCFeH2CH2CFeS2FeS2FeSFeS3FeS2FeSHFeSFeS3CH2FeHSC2H2SFeS2FeS2FeCFeS3CH3SC2HNH2NCH3CH2NHCHC6H5NH2C7H4C6H4C6H4C6H4C6H2CHC6H4NC6H8C3H3C3HC3FeCH2NCSCH2CH2S2HSH3CHCHC2NH5C6HCH3SFeSHCH2FeS3FeS2FeS2FeS2FeS2FeSFeS2FeS2FeS2FeSFeS3CHC6H2C6H4C6H4C7H3C6H4C2H3C3H3CHCH2CHC3H2CH4CHC3NHCH2C3NHCSHNC6HNHCH2NHC3H4FeC2NSHSHCFe2SCH4FeCH5C2HCH4CHS2HC2HCNSCHC2H2C2HSHC2HNHC2H3CHCHC4H7CHFeSCH3C6H2NSCSCHCSFeS2FeS2FeSFeS3H3FeS2CFeCHSFeSFeS2FeSFeHS2C2HC3H2CHCHC2SHCH2CH3C7H4C6H5C7H2SC2N2FeCHNHCHC2HCHC3SHCHCH4NCH4C3HCHCHC2H2C3H4NCHSC2HCH2CH3C3SHNC6H7C4SCHSCH3C2HNH2S2C2H3SCS2FeS2FeHFeCS2FeSHFeS2FeSFeHS2FeS2FeS2FeSFeS4CFeHSCHC6H4Fe2SC2HNSC8H5C3H2C6H3C5H2C6H6C6H10C2H2NHSHC3H2CHCHFeH2SH2CHNCH2C2HSHC4H2SH3C4HNHC7HNH3NC4H4NC2SCH2FeCHC2SCHCHCHNC2HCH3FeH3CSCSFeSHCHCH3C2H4CH2NH5FeS2FeSCFeSFeS3FeS2HCS2HC6H5CH3CHC2HFeHC3H3CSCNCH2SHC2HC2HCHCSCHCHC2NHCSHCHCHC3SCHCFeH3FeHC3H2CN2HCH2CSC2HC4H5CNC2HCH2CH2C2HNCHCHC3H2CHC3H5CH3C2HCH2C2H4
_chemical_formula_sum              "H1536 S512 Fe256 C1536 N128"
_cell_length_a       68.1171
_cell_length_b       87.8079
_cell_length_c       51.8805
_cell_angle_alpha    75.2937
_cell_angle_beta     75.581
_cell_angle_gamma    76.5051

_space_group_name_H-M_alt    "P 1"
_space_group_IT_number       1

loop_
  _space_group_symop_operation_xyz
  'x, y, z'

loop_
  _atom_site_type_symbol
  _atom_site_label
  _atom_site_symmetry_multiplicity
  _atom_site_fract_x
  _atom_site_fract_y
  _atom_site_fract_z
  _atom_site_occupancy
  H   H1        1.0  0.31052  0.06231  0.17506  1.0000
  S   S1        1.0  0.32735  0.00182  0.12429  1.0000
  S   S2        1.0  0.27939  0.99909  0.15501  1.0000
  Fe  Fe1       1.0  0.30557  0.00830  0.16161  1.0000
  S   S3        1.0  0.29479  0.99333  0.07942  1.0000
  S   S4        1.0  0.30196  0.03250  0.17153  1.0000
  C   C1        1.0  0.29060  0.00437  0.24220  1.0000
  C   C2        1.0  0.32362  0.03721  0.17852  1.0000
  C   C3        1.0  0.32381  0.05313  0.17870  1.0000
  H   H2        1.0  0.27867  0.01371  0.23443  1.0000
  C   C4        1.0  0.32510  0.99592  0.25091  1.0000
  C   C5        1.0  0.30939  0.00809  0.24231  1.0000
  H   H3        1.0  0.33567  0.06388  0.10925  1.0000
  H   H4        1.0  0.31192  0.02036  0.23511  1.0000
  H   H5        1.0  0.33724  0.03503  0.11360  1.0000
  H   H6        1.0  0.33839  0.14006  0.13656  1.0000
  H   H7        1.0  0.33367  0.19234  0.36427  1.0000
  H   H8        1.0  0.25145  0.18034  0.73351  1.0000
  C   C6        1.0  0.23393  0.14570  0.70156  1.0000
  C   C7        1.0  0.25928  0.12134  0.70316  1.0000
  S   S5        1.0  0.30284  0.13096  0.73882  1.0000
  C   C8        1.0  0.28778  0.14899  0.69413  1.0000
  H   H9        1.0  0.27195  0.14959  0.62423  1.0000
  C   C9        1.0  0.31982  0.17563  0.64551  1.0000
  C   C10       1.0  0.27576  0.16228  0.68043  1.0000
  H   H10       1.0  0.27634  0.20607  0.76809  1.0000
  C   C11       1.0  0.28712  0.14718  0.72187  1.0000
  C   C12       1.0  0.26005  0.14187  0.63035  1.0000
  C   C13       1.0  0.27416  0.15860  0.73599  1.0000
  C   C14       1.0  0.26185  0.17178  0.72235  1.0000
  C   C15       1.0  0.26263  0.17360  0.69455  1.0000
  H   H11       1.0  0.26661  0.13082  0.62211  1.0000
  H   H12       1.0  0.27354  0.15726  0.75748  1.0000
  C   C16       1.0  0.23905  0.14859  0.67311  1.0000
  N   N1        1.0  0.25389  0.13806  0.66007  1.0000
  H   H13       1.0  0.27646  0.16373  0.65891  1.0000
  Fe  Fe2       1.0  0.23855  0.21027  0.69824  1.0000
  H   H14       1.0  0.30013  0.23120  0.60023  1.0000
  S   S6        1.0  0.24663  0.18949  0.67743  1.0000
  C   C17       1.0  0.31404  0.19883  0.66618  1.0000
  H   H15       1.0  0.31271  0.20654  0.64650  1.0000
  S   S7        1.0  0.21065  0.21590  0.73057  1.0000
  H   H16       1.0  0.26772  0.11088  0.71472  1.0000
  H   H17       1.0  0.29377  0.12942  0.57649  1.0000
  S   S8        1.0  0.31383  0.17834  0.84140  1.0000
  Fe  Fe3       1.0  0.32465  0.11645  0.71010  1.0000
  H   H18       1.0  0.24668  0.14825  0.62079  1.0000
  H   H19       1.0  0.27636  0.11656  0.66435  1.0000
  H   H20       1.0  0.33549  0.12671  0.52290  1.0000
  H   H21       1.0  0.29735  0.14006  0.68322  1.0000
  H   H22       1.0  0.23175  0.15969  0.66162  1.0000
  S   S9        1.0  0.26153  0.21285  0.72030  1.0000
  S   S10       1.0  0.33241  0.20392  0.58419  1.0000
  C   C18       1.0  0.26408  0.12463  0.67468  1.0000
  N   N2        1.0  0.31778  0.18255  0.66916  1.0000
  C   C19       1.0  0.24417  0.13200  0.71662  1.0000
  S   S11       1.0  0.23618  0.23539  0.67374  1.0000
  C   C20       1.0  0.32535  0.14445  0.60122  1.0000
  S   S12       1.0  0.23304  0.21240  0.79592  1.0000
  H   H23       1.0  0.32149  0.22976  0.77960  1.0000
  H   H24       1.0  0.31836  0.16284  0.65152  1.0000
  H   H25       1.0  0.22276  0.15442  0.71176  1.0000
  C   C21       1.0  0.30230  0.13784  0.57866  1.0000
  Fe  Fe4       1.0  0.23380  0.22031  0.75097  1.0000
  C   C22       1.0  0.27515  0.20077  0.78941  1.0000
  C   C23       1.0  0.25581  0.20189  0.80710  1.0000
  C   C24       1.0  0.33299  0.12292  0.78766  1.0000
  C   C25       1.0  0.32480  0.15948  0.58352  1.0000
  Fe  Fe5       1.0  0.25663  0.23844  0.69893  1.0000
  C   C26       1.0  0.29313  0.19333  0.79964  1.0000
  H   H26       1.0  0.30802  0.19282  0.78604  1.0000
  C   C27       1.0  0.31408  0.13363  0.59881  1.0000
  C   C28       1.0  0.25459  0.19537  0.83488  1.0000
  C   C29       1.0  0.31231  0.20577  0.68831  1.0000
  C   C30       1.0  0.29173  0.18690  0.82752  1.0000
  H   H27       1.0  0.30198  0.13660  0.79091  1.0000
  H   H28       1.0  0.33092  0.11635  0.77370  1.0000
  H   H29       1.0  0.24086  0.12990  0.73868  1.0000
  H   H30       1.0  0.30642  0.15157  0.82318  1.0000
  H   H31       1.0  0.30973  0.21869  0.68578  1.0000
  H   H32       1.0  0.12579  0.23673  0.74871  1.0000
  H   H33       1.0  0.23974  0.19624  0.84868  1.0000
  S   S13       1.0  0.31299  0.18199  0.54028  1.0000
  C   C31       1.0  0.31847  0.17934  0.71635  1.0000
  C   C32       1.0  0.27244  0.18782  0.84503  1.0000
  C   C33       1.0  0.32048  0.17282  0.69367  1.0000
  H   H34       1.0  0.27128  0.18291  0.86660  1.0000
  H   H35       1.0  0.31337  0.20121  0.73074  1.0000
  C   C34       1.0  0.31440  0.19593  0.71357  1.0000
  H   H36       1.0  0.16314  0.23678  0.73007  1.0000
  H   H37       1.0  0.30759  0.18204  0.63385  1.0000
  C   C35       1.0  0.30499  0.23316  0.78079  1.0000
  C   C36       1.0  0.31656  0.13431  0.79738  1.0000
  H   H38       1.0  0.33495  0.14113  0.61611  1.0000
  C   C37       1.0  0.31904  0.14268  0.81552  1.0000
  C   C38       1.0  0.31296  0.16367  0.56343  1.0000
  C   C39       1.0  0.30164  0.15288  0.56109  1.0000
  H   H39       1.0  0.33629  0.15536  0.50567  1.0000
  H   H40       1.0  0.29258  0.15610  0.54544  1.0000
  S   S14       1.0  0.31457  0.09861  0.69459  1.0000
  H   H41       1.0  0.31315  0.21386  0.82680  1.0000
  C   C40       1.0  0.30321  0.23925  0.61082  1.0000
  H   H42       1.0  0.32030  0.17156  0.73582  1.0000
  C   C41       1.0  0.27076  0.23512  0.80671  1.0000
  S   S15       1.0  0.31493  0.11456  0.61999  1.0000
  C   C42       1.0  0.29263  0.23980  0.63763  1.0000
  N   N3        1.0  0.29157  0.23057  0.80530  1.0000
  C   C43       1.0  0.29957  0.22349  0.83030  1.0000
  H   H43       1.0  0.33370  0.16774  0.58525  1.0000
  H   H44       1.0  0.28797  0.21772  0.84671  1.0000
  Fe  Fe6       1.0  0.33168  0.10997  0.65417  1.0000
  H   H45       1.0  0.32416  0.15992  0.69586  1.0000
  Fe  Fe7       1.0  0.21012  0.24152  0.70794  1.0000
  H   H46       1.0  0.30409  0.23281  0.83745  1.0000
  H   H47       1.0  0.26003  0.23283  0.82599  1.0000
  Fe  Fe8       1.0  0.33544  0.19507  0.54634  1.0000
  H   H48       1.0  0.33513  0.17648  0.63208  1.0000
  H   H49       1.0  0.28159  0.23202  0.64780  1.0000
  C   C44       1.0  0.29765  0.24016  0.75678  1.0000
  C   C45       1.0  0.33782  0.13956  0.82379  1.0000
  C   C46       1.0  0.26290  0.24221  0.78313  1.0000
  H   H50       1.0  0.30829  0.24199  0.73725  1.0000
  Fe  Fe9       1.0  0.10837  0.42109  0.28723  1.0000
  S   S16       1.0  0.11726  0.39486  0.30329  1.0000
  S   S17       1.0  0.08894  0.43144  0.25544  1.0000
  Fe  Fe10      1.0  0.13702  0.42977  0.31564  1.0000
  S   S18       1.0  0.14909  0.40411  0.33307  1.0000
  S   S19       1.0  0.14622  0.44967  0.32729  1.0000
  Fe  Fe11      1.0  0.14942  0.39982  0.29207  1.0000
  S   S20       1.0  0.17224  0.38375  0.26673  1.0000
  Fe  Fe12      1.0  0.11587  0.40173  0.34268  1.0000
  S   S21       1.0  0.10125  0.38847  0.38339  1.0000
  S   S22       1.0  0.14063  0.42573  0.27370  1.0000
  S   S23       1.0  0.10363  0.42764  0.32779  1.0000
  Fe  Fe13      1.0  0.14988  0.38143  0.08606  1.0000
  S   S24       1.0  0.11661  0.37912  0.10044  1.0000
  H   H51       1.0  0.21942  0.36715  0.03702  1.0000
  Fe  Fe14      1.0  0.14130  0.41647  0.08600  1.0000
  S   S25       1.0  0.10719  0.41767  0.10109  1.0000
  S   S26       1.0  0.28049  0.37298  0.16711  1.0000
  Fe  Fe15      1.0  0.11604  0.39440  0.12941  1.0000
  S   S27       1.0  0.10306  0.38558  0.17362  1.0000
  H   H52       1.0  0.17684  0.46688  0.13109  1.0000
  S   S28       1.0  0.14972  0.39478  0.11737  1.0000
  H   H53       1.0  0.14432  0.39700  0.19077  1.0000
  H   H54       1.0  0.17556  0.39659  0.15352  1.0000
  H   H55       1.0  0.24542  0.40185  0.05646  1.0000
  S   S29       1.0  0.19806  0.47706  0.17737  1.0000
  Fe  Fe16      1.0  0.26501  0.39870  0.16552  1.0000
  C   C47       1.0  0.15678  0.44296  0.10622  1.0000
  S   S30       1.0  0.25182  0.41137  0.20021  1.0000
  Fe  Fe17      1.0  0.25996  0.37333  0.13911  1.0000
  S   S31       1.0  0.08599  0.40851  0.04571  1.0000
  S   S32       1.0  0.14726  0.46295  0.18217  1.0000
  C   C48       1.0  0.15563  0.40426  0.18906  1.0000
  Fe  Fe18      1.0  0.26675  0.40606  0.10548  1.0000
  C   C49       1.0  0.15138  0.45503  0.15309  1.0000
  H   H56       1.0  0.09698  0.45280  0.28163  1.0000
  S   S33       1.0  0.24251  0.39811  0.14098  1.0000
  H   H57       1.0  0.05837  0.38567  0.41100  1.0000
  H   H58       1.0  0.11998  0.38511  0.02421  1.0000
  C   C50       1.0  0.23512  0.47433  0.09404  1.0000
  Fe  Fe19      1.0  0.16512  0.48262  0.17344  1.0000
  H   H59       1.0  0.24692  0.45303  0.25055  1.0000
  H   H60       1.0  0.21288  0.42583  0.07285  1.0000
  C   C51       1.0  0.33809  0.34862  0.16067  1.0000
  C   C52       1.0  0.24387  0.47880  0.19169  1.0000
  H   H61       1.0  0.23639  0.48955  0.19943  1.0000
  N   N4        1.0  0.24591  0.46417  0.20908  1.0000
  C   C53       1.0  0.17642  0.35500  0.17716  1.0000
  H   H62       1.0  0.24819  0.48385  0.05236  1.0000
  N   N5        1.0  0.11664  0.48501  0.28027  1.0000
  H   H63       1.0  0.15271  0.48874  0.06730  1.0000
  H   H64       1.0  0.20237  0.35240  0.19568  1.0000
  C   C54       1.0  0.23146  0.46042  0.11350  1.0000
  C   C55       1.0  0.23878  0.44533  0.10658  1.0000
  H   H65       1.0  0.14747  0.35887  0.26975  1.0000
  H   H66       1.0  0.22372  0.46123  0.13408  1.0000
  H   H67       1.0  0.23655  0.43458  0.12182  1.0000
  C   C56       1.0  0.17304  0.40411  0.16809  1.0000
  C   C57       1.0  0.13922  0.44436  0.15255  1.0000
  C   C58       1.0  0.14195  0.43827  0.12919  1.0000
  H   H68       1.0  0.13553  0.37732  0.25083  1.0000
  H   H69       1.0  0.12755  0.44096  0.17013  1.0000
  H   H70       1.0  0.13231  0.43019  0.12883  1.0000
  C   C59       1.0  0.19502  0.35855  0.09744  1.0000
  C   C60       1.0  0.22695  0.35463  0.12529  1.0000
  C   C61       1.0  0.21572  0.36992  0.11718  1.0000
  C   C62       1.0  0.19960  0.37185  0.10353  1.0000
  H   H71       1.0  0.21930  0.38020  0.12163  1.0000
  H   H72       1.0  0.19126  0.38369  0.09689  1.0000
  C   C63       1.0  0.10129  0.39695  0.41067  1.0000
  C   C64       1.0  0.10768  0.41163  0.40606  1.0000
  C   C65       1.0  0.10537  0.41908  0.42791  1.0000
  C   C66       1.0  0.09679  0.41186  0.45443  1.0000
  C   C67       1.0  0.09123  0.39689  0.45910  1.0000
  C   C68       1.0  0.09336  0.38950  0.43729  1.0000
  H   H73       1.0  0.11404  0.41739  0.38561  1.0000
  H   H74       1.0  0.10993  0.43059  0.42413  1.0000
  H   H75       1.0  0.10315  0.46369  0.23194  1.0000
  H   H76       1.0  0.08869  0.37804  0.44103  1.0000
  C   C69       1.0  0.09298  0.41879  0.23252  1.0000
  C   C70       1.0  0.09506  0.42519  0.20453  1.0000
  C   C71       1.0  0.09878  0.41506  0.18607  1.0000
  C   C72       1.0  0.09950  0.39860  0.19578  1.0000
  C   C73       1.0  0.09683  0.39229  0.22381  1.0000
  C   C74       1.0  0.09400  0.40231  0.24208  1.0000
  H   H77       1.0  0.09401  0.43798  0.19714  1.0000
  H   H78       1.0  0.10067  0.42005  0.16447  1.0000
  H   H79       1.0  0.09670  0.37966  0.23153  1.0000
  H   H80       1.0  0.09179  0.39736  0.26370  1.0000
  C   C75       1.0  0.16186  0.46143  0.30174  1.0000
  C   C76       1.0  0.16293  0.46211  0.27421  1.0000
  C   C77       1.0  0.17400  0.47275  0.25418  1.0000
  C   C78       1.0  0.02402  0.41149  0.46895  1.0000
  H   H81       1.0  0.08534  0.39093  0.47950  1.0000
  C   C79       1.0  0.17217  0.47120  0.30915  1.0000
  H   H82       1.0  0.15477  0.45482  0.26831  1.0000
  H   H83       1.0  0.17448  0.47334  0.23302  1.0000
  H   H84       1.0  0.03133  0.43022  0.48284  1.0000
  C   C80       1.0  0.19440  0.39158  0.24899  1.0000
  C   C81       1.0  0.20839  0.38372  0.22968  1.0000
  C   C82       1.0  0.22608  0.38976  0.21497  1.0000
  C   C83       1.0  0.23003  0.40361  0.21966  1.0000
  C   C84       1.0  0.21616  0.41151  0.23909  1.0000
  C   C85       1.0  0.19823  0.40554  0.25367  1.0000
  H   H85       1.0  0.20579  0.37285  0.22617  1.0000
  H   H86       1.0  0.23688  0.38347  0.20034  1.0000
  H   H87       1.0  0.21921  0.42222  0.24282  1.0000
  H   H88       1.0  0.18758  0.41157  0.26878  1.0000
  H   H89       1.0  0.18042  0.35721  0.23996  1.0000
  H   H90       1.0  0.20012  0.41430  0.14879  1.0000
  N   N6        1.0  0.05759  0.39577  0.11830  1.0000
  C   C86       1.0  0.06098  0.39420  0.14384  1.0000
  C   C87       1.0  0.05091  0.41056  0.10355  1.0000
  H   H91       1.0  0.04506  0.37752  0.11152  1.0000
  C   C88       1.0  0.04835  0.42433  0.11380  1.0000
  C   C89       1.0  0.05215  0.42286  0.13962  1.0000
  C   C90       1.0  0.06009  0.38149  0.10720  1.0000
  C   C91       1.0  0.05828  0.40770  0.15488  1.0000
  H   H92       1.0  0.02083  0.39310  0.45064  1.0000
  C   C92       1.0  0.10857  0.38830  0.01158  1.0000
  H   H93       1.0  0.07149  0.37152  0.11603  1.0000
  S   S34       1.0  0.09184  0.42221  0.48106  1.0000
  C   C93       1.0  0.30518  0.33656  0.13507  1.0000
  C   C94       1.0  0.04837  0.39726  0.40422  1.0000
  C   C95       1.0  0.25104  0.48008  0.16361  1.0000
  H   H94       1.0  0.12480  0.35932  0.25774  1.0000
  H   H95       1.0  0.14763  0.35847  0.16427  1.0000
  C   C96       1.0  0.15498  0.35811  0.18081  1.0000
  H   H96       1.0  0.18583  0.35270  0.15790  1.0000
  N   N7        1.0  0.18417  0.42342  0.18412  1.0000
  C   C97       1.0  0.16710  0.42372  0.20463  1.0000
  C   C98       1.0  0.18705  0.41401  0.16567  1.0000
  C   C99       1.0  0.15259  0.41414  0.20745  1.0000
  C   C100      1.0  0.19886  0.43395  0.18070  1.0000
  H   H97       1.0  0.16441  0.43168  0.21854  1.0000
  H   H98       1.0  0.13893  0.41460  0.22354  1.0000
  H   H99       1.0  0.19786  0.43771  0.19996  1.0000
  H   H100      1.0  0.21495  0.42769  0.17467  1.0000
  H   H101      1.0  0.19557  0.44480  0.16487  1.0000
  H   H102      1.0  0.05042  0.43343  0.14780  1.0000
  H   H103      1.0  0.12641  0.36306  0.20869  1.0000
  C   C101      1.0  0.13933  0.36413  0.25251  1.0000
  H   H104      1.0  0.12433  0.48473  0.31797  1.0000
  C   C102      1.0  0.18566  0.35473  0.19848  1.0000
  N   N8        1.0  0.15218  0.36041  0.22686  1.0000
  C   C103      1.0  0.17320  0.35748  0.22337  1.0000
  C   C104      1.0  0.14304  0.36077  0.20597  1.0000
  C   C105      1.0  0.16678  0.45921  0.13046  1.0000
  H   H105      1.0  0.22798  0.43122  0.03904  1.0000
  H   H106      1.0  0.06598  0.38402  0.08479  1.0000
  H   H107      1.0  0.03424  0.39491  0.40008  1.0000
  C   C106      1.0  0.16939  0.45327  0.10696  1.0000
  C   C107      1.0  0.21409  0.42621  0.05093  1.0000
  H   H108      1.0  0.06152  0.41140  0.00666  1.0000
  S   S35       1.0  0.24636  0.35164  0.14373  1.0000
  C   C108      1.0  0.23467  0.38332  0.04670  1.0000
  C   C109      1.0  0.19955  0.40614  0.03977  1.0000
  H   H109      1.0  0.29322  0.33387  0.12659  1.0000
  S   S36       1.0  0.17537  0.36060  0.07971  1.0000
  H   H110      1.0  0.20046  0.43462  0.04436  1.0000
  C   C110      1.0  0.26204  0.45141  0.17126  1.0000
  S   S37       1.0  0.25854  0.42559  0.07061  1.0000
  H   H111      1.0  0.18555  0.41487  0.03764  1.0000
  N   N9        1.0  0.21556  0.41007  0.04672  1.0000
  H   H112      1.0  0.26885  0.44053  0.16357  1.0000
  C   C111      1.0  0.23289  0.39886  0.05042  1.0000
  C   C112      1.0  0.25475  0.45058  0.19920  1.0000
  C   C113      1.0  0.22229  0.34137  0.11934  1.0000
  C   C114      1.0  0.24903  0.44422  0.07992  1.0000
  S   S38       1.0  0.28823  0.40844  0.12990  1.0000
  S   S39       1.0  0.15953  0.43601  0.07656  1.0000
  C   C115      1.0  0.18353  0.48163  0.28912  1.0000
  S   S40       1.0  0.28214  0.38115  0.10081  1.0000
  H   H113      1.0  0.33365  0.34309  0.09021  1.0000
  N   N10       1.0  0.04318  0.40682  0.42521  1.0000
  H   H114      1.0  0.23094  0.32952  0.12559  1.0000
  H   H115      1.0  0.18121  0.45661  0.08943  1.0000
  C   C116      1.0  0.20658  0.34336  0.10509  1.0000
  C   C117      1.0  0.26021  0.46628  0.15340  1.0000
  H   H116      1.0  0.17128  0.47075  0.33045  1.0000
  H   H117      1.0  0.25614  0.43898  0.21298  1.0000
  H   H118      1.0  0.24824  0.37438  0.05029  1.0000
  C   C118      1.0  0.25182  0.45817  0.06028  1.0000
  C   C119      1.0  0.24522  0.47316  0.06744  1.0000
  C   C120      1.0  0.05345  0.41899  0.42247  1.0000
  C   C121      1.0  0.18426  0.48255  0.26163  1.0000
  Fe  Fe20      1.0  0.11052  0.40238  0.07080  1.0000
  H   H119      1.0  0.25978  0.45736  0.03970  1.0000
  C   C122      1.0  0.10656  0.46987  0.24555  1.0000
  Fe  Fe21      1.0  0.30173  0.38258  0.12879  1.0000
  S   S41       1.0  0.14394  0.40318  0.05342  1.0000
  H   H120      1.0  0.23674  0.47409  0.24484  1.0000
  H   H121      1.0  0.30020  0.33471  0.15756  1.0000
  H   H122      1.0  0.20319  0.33305  0.10033  1.0000
  H   H123      1.0  0.06127  0.40639  0.17501  1.0000
  C   C123      1.0  0.09041  0.39916  0.01802  1.0000
  C   C124      1.0  0.23739  0.46283  0.23828  1.0000
  C   C125      1.0  0.20089  0.39074  0.03567  1.0000
  C   C126      1.0  0.04936  0.42761  0.44310  1.0000
  H   H124      1.0  0.06531  0.42180  0.40460  1.0000
  C   C127      1.0  0.07566  0.40310  0.00165  1.0000
  C   C128      1.0  0.02872  0.40294  0.44817  1.0000
  H   H125      1.0  0.05812  0.43681  0.44132  1.0000
  C   C129      1.0  0.21858  0.37930  0.03913  1.0000
  H   H126      1.0  0.32281  0.35408  0.16957  1.0000
  H   H127      1.0  0.26560  0.46709  0.13163  1.0000
  H   H128      1.0  0.22145  0.46037  0.24297  1.0000
  H   H129      1.0  0.18806  0.38748  0.03073  1.0000
  C   C130      1.0  0.10334  0.46362  0.27346  1.0000
  H   H130      1.0  0.19144  0.48917  0.29498  1.0000
  C   C131      1.0  0.10859  0.47131  0.29064  1.0000
  H   H131      1.0  0.10656  0.46606  0.31225  1.0000
  H   H132      1.0  0.30612  0.34946  0.12762  1.0000
  H   H133      1.0  0.06609  0.38248  0.15575  1.0000
  C   C132      1.0  0.03451  0.42381  0.46647  1.0000
  H   H134      1.0  0.32094  0.30819  0.16296  1.0000
  H   H135      1.0  0.04787  0.41179  0.08348  1.0000
  H   H136      1.0  0.11663  0.48905  0.21354  1.0000
  H   H137      1.0  0.05702  0.40340  0.38469  1.0000
  H   H138      1.0  0.04363  0.43605  0.10166  1.0000
  H   H139      1.0  0.24913  0.49164  0.14975  1.0000
  C   C133      1.0  0.11421  0.48409  0.23525  1.0000
  H   H140      1.0  0.01255  0.40841  0.48707  1.0000
  S   S42       1.0  0.33579  0.37345  0.11587  1.0000
  C   C134      1.0  0.33792  0.33146  0.10295  1.0000
  N   N11       1.0  0.32519  0.32649  0.12713  1.0000
  C   C135      1.0  0.33084  0.31203  0.14359  1.0000
  H   H141      1.0  0.19096  0.48579  0.05591  1.0000
  C   C136      1.0  0.11896  0.49166  0.25308  1.0000
  H   H142      1.0  0.13136  0.31850  0.77547  1.0000
  C   C137      1.0  0.10297  0.42733  0.90575  1.0000
  H   H143      1.0  0.01846  0.35929  0.85330  1.0000
  S   S43       1.0  0.06894  0.35638  0.57801  1.0000
  C   C138      1.0  0.13585  0.29455  0.76873  1.0000
  Fe  Fe22      1.0  0.06171  0.32139  0.72709  1.0000
  S   S44       1.0  0.05260  0.30166  0.71479  1.0000
  S   S45       1.0  0.07086  0.34440  0.70215  1.0000
  Fe  Fe23      1.0  0.05127  0.30734  0.78730  1.0000
  S   S46       1.0  0.04060  0.28651  0.78097  1.0000
  S   S47       1.0  0.05129  0.31140  0.82833  1.0000
  Fe  Fe24      1.0  0.06895  0.28554  0.74742  1.0000
  S   S48       1.0  0.08997  0.26158  0.74654  1.0000
  Fe  Fe25      1.0  0.02515  0.30421  0.74906  1.0000
  C   C139      1.0  0.10779  0.44550  0.62159  1.0000
  S   S49       1.0  0.08054  0.30512  0.75631  1.0000
  S   S50       1.0  0.03325  0.32514  0.75894  1.0000
  Fe  Fe26      1.0  0.08211  0.38862  0.91140  1.0000
  S   S51       1.0  0.06352  0.37377  0.90094  1.0000
  S   S52       1.0  0.10340  0.37873  0.94132  1.0000
  Fe  Fe27      1.0  0.06863  0.41818  0.87076  1.0000
  S   S53       1.0  0.04863  0.40639  0.85696  1.0000
  S   S54       1.0  0.06942  0.44417  0.85340  1.0000
  Fe  Fe28      1.0  0.03884  0.39576  0.90097  1.0000
  H   H144      1.0  0.07884  0.47251  0.57600  1.0000
  Fe  Fe29      1.0  0.07463  0.38546  0.85742  1.0000
  S   S55       1.0  0.08211  0.37563  0.81919  1.0000
  S   S56       1.0  0.05634  0.40968  0.91508  1.0000
  S   S57       1.0  0.09577  0.39825  0.86763  1.0000
  Fe  Fe30      1.0  0.07178  0.41143  0.51981  1.0000
  S   S58       1.0  0.12838  0.45428  0.62203  1.0000
  C   C140      1.0  0.07425  0.44877  0.91686  1.0000
  C   C141      1.0  0.11356  0.42230  0.95586  1.0000
  C   C142      1.0  0.00931  0.40271  0.81989  1.0000
  S   S59       1.0  0.18490  0.26232  0.69664  1.0000
  H   H145      1.0  0.13869  0.45183  0.53663  1.0000
  C   C143      1.0  0.08210  0.40866  0.74731  1.0000
  H   H146      1.0  0.10214  0.31449  0.81478  1.0000
  N   N12       1.0  0.11322  0.44417  0.52975  1.0000
  H   H147      1.0  0.12780  0.40759  0.89805  1.0000
  C   C144      1.0  0.07973  0.40751  0.72184  1.0000
  H   H148      1.0  0.06774  0.43332  0.79080  1.0000
  S   S60       1.0  0.03470  0.39703  0.58700  1.0000
  C   C145      1.0  0.08781  0.45114  0.63468  1.0000
  C   C146      1.0  0.31051  0.26058  0.63780  1.0000
  S   S61       1.0  0.13654  0.45848  0.74610  1.0000
  H   H149      1.0  0.04073  0.39007  0.81324  1.0000
  H   H150      1.0  0.31341  0.26884  0.64815  1.0000
  H   H151      1.0  0.09500  0.42764  0.77810  1.0000
  C   C147      1.0  0.11624  0.26174  0.73191  1.0000
  C   C148      1.0  0.12287  0.27582  0.71637  1.0000
  C   C149      1.0  0.14397  0.27577  0.70558  1.0000
  C   C150      1.0  0.15860  0.26173  0.71051  1.0000
  C   C151      1.0  0.12494  0.41287  0.93731  1.0000
  H   H152      1.0  0.01225  0.31282  0.68731  1.0000
  H   H153      1.0  0.11174  0.28671  0.71242  1.0000
  H   H154      1.0  0.14896  0.28666  0.69329  1.0000
  H   H155      1.0  0.03332  0.37118  0.79001  1.0000
  H   H156      1.0  0.27057  0.25028  0.73970  1.0000
  S   S62       1.0  0.05195  0.39364  0.52297  1.0000
  H   H157      1.0  0.08982  0.28870  0.82881  1.0000
  H   H158      1.0  0.02869  0.37537  0.87864  1.0000
  S   S63       1.0  0.08351  0.39942  0.55821  1.0000
  C   C152      1.0  0.10982  0.46366  0.55657  1.0000
  C   C153      1.0  0.32066  0.26031  0.61086  1.0000
  H   H159      1.0  0.21426  0.28355  0.67030  1.0000
  H   H160      1.0  0.06166  0.44294  0.91596  1.0000
  C   C154      1.0  0.12625  0.30705  0.78222  1.0000
  H   H161      1.0  0.05562  0.44994  0.64187  1.0000
  C   C155      1.0  0.05893  0.32963  0.82570  1.0000
  C   C156      1.0  0.06655  0.33864  0.80024  1.0000
  C   C157      1.0  0.07370  0.35270  0.79847  1.0000
  C   C158      1.0  0.07292  0.35799  0.82208  1.0000
  C   C159      1.0  0.06492  0.34916  0.84748  1.0000
  C   C160      1.0  0.05808  0.33494  0.84929  1.0000
  H   H162      1.0  0.06729  0.33465  0.78188  1.0000
  H   H163      1.0  0.07989  0.35946  0.77874  1.0000
  H   H164      1.0  0.06433  0.35308  0.86578  1.0000
  H   H165      1.0  0.05222  0.32802  0.86903  1.0000
  C   C161      1.0  0.07219  0.35255  0.61163  1.0000
  C   C162      1.0  0.07329  0.33698  0.62744  1.0000
  C   C163      1.0  0.07335  0.33426  0.65529  1.0000
  C   C164      1.0  0.07256  0.34709  0.66714  1.0000
  C   C165      1.0  0.07215  0.36254  0.65110  1.0000
  C   C166      1.0  0.07184  0.36529  0.62343  1.0000
  H   H166      1.0  0.07365  0.32709  0.61832  1.0000
  H   H167      1.0  0.07402  0.32227  0.66752  1.0000
  H   H168      1.0  0.07166  0.37247  0.66019  1.0000
  H   H169      1.0  0.07113  0.37731  0.61136  1.0000
  C   C167      1.0  0.11789  0.45430  0.77586  1.0000
  C   C168      1.0  0.09815  0.46367  0.77854  1.0000
  C   C169      1.0  0.08346  0.46058  0.80255  1.0000
  C   C170      1.0  0.08818  0.44773  0.82364  1.0000
  C   C171      1.0  0.10779  0.43808  0.82084  1.0000
  C   C172      1.0  0.12275  0.44154  0.79712  1.0000
  H   H170      1.0  0.09420  0.47351  0.76240  1.0000
  H   H171      1.0  0.06831  0.46807  0.80463  1.0000
  H   H172      1.0  0.11161  0.42815  0.83704  1.0000
  H   H173      1.0  0.13799  0.43421  0.79510  1.0000
  C   C173      1.0  0.07426  0.43371  0.61652  1.0000
  C   C174      1.0  0.09429  0.42766  0.60408  1.0000
  C   C175      1.0  0.11107  0.43351  0.60674  1.0000
  H   H174      1.0  0.09684  0.41860  0.59226  1.0000
  H   H175      1.0  0.12654  0.42901  0.59683  1.0000
  C   C176      1.0  0.10984  0.30482  0.80426  1.0000
  H   H176      1.0  0.06318  0.44786  0.74508  1.0000
  C   C177      1.0  0.02714  0.48449  0.64151  1.0000
  H   H177      1.0  0.12624  0.37340  0.98337  1.0000
  C   C178      1.0  0.07110  0.44523  0.63220  1.0000
  C   C179      1.0  0.27647  0.24477  0.75809  1.0000
  C   C180      1.0  0.12207  0.45309  0.54025  1.0000
  C   C181      1.0  0.06754  0.43638  0.73894  1.0000
  Fe  Fe31      1.0  0.05581  0.41457  0.57897  1.0000
  Fe  Fe32      1.0  0.11875  0.46950  0.65363  1.0000
  S   S64       1.0  0.04606  0.42825  0.54015  1.0000
  N   N13       1.0  0.07593  0.42297  0.75558  1.0000
  C   C182      1.0  0.09225  0.44570  0.53466  1.0000
  N   N14       1.0  0.02140  0.34040  0.62892  1.0000
  N   N15       1.0  0.11230  0.27805  0.79862  1.0000
  C   C183      1.0  0.07113  0.42113  0.70477  1.0000
  H   H178      1.0  0.24545  0.29458  0.66733  1.0000
  C   C184      1.0  0.06488  0.43564  0.71340  1.0000
  H   H179      1.0  0.03304  0.48729  0.61981  1.0000
  H   H180      1.0  0.13631  0.27037  0.76680  1.0000
  S   S65       1.0  0.23069  0.24636  0.73144  1.0000
  C   C185      1.0  0.09754  0.38592  0.97168  1.0000
  H   H181      1.0  0.27653  0.27220  0.60006  1.0000
  H   H182      1.0  0.06776  0.39963  0.96613  1.0000
  H   H183      1.0  0.01469  0.29537  0.85293  1.0000
  C   C186      1.0  0.03223  0.48006  0.68772  1.0000
  H   H184      1.0  0.08480  0.39619  0.71522  1.0000
  H   H185      1.0  0.12086  0.42130  0.51927  1.0000
  C   C187      1.0  0.24532  0.28763  0.65285  1.0000
  H   H186      1.0  0.02465  0.36016  0.67548  1.0000
  H   H187      1.0  0.08767  0.44091  0.96390  1.0000
  C   C188      1.0  0.08844  0.46496  0.56228  1.0000
  H   H188      1.0  0.08510  0.46039  0.64612  1.0000
  C   C189      1.0  0.31715  0.24960  0.59738  1.0000
  C   C190      1.0  0.01746  0.32623  0.64579  1.0000
  C   C191      1.0  0.07955  0.45598  0.55121  1.0000
  Fe  Fe33      1.0  0.12171  0.47096  0.71034  1.0000
  S   S66       1.0  0.13977  0.48000  0.66888  1.0000
  C   C192      1.0  0.00674  0.36652  0.86575  1.0000
  H   H189      1.0  0.21470  0.26685  0.63844  1.0000
  H   H190      1.0  0.02421  0.35475  0.58844  1.0000
  C   C193      1.0  0.07921  0.39650  0.97856  1.0000
  Fe  Fe34      1.0  0.06154  0.38289  0.56307  1.0000
  S   S67       1.0  0.05268  0.42765  0.61228  1.0000
  S   S68       1.0  0.10337  0.45835  0.69524  1.0000
  N   N16       1.0  0.24549  0.26885  0.61693  1.0000
  C   C194      1.0  0.26262  0.27501  0.61498  1.0000
  C   C195      1.0  0.22820  0.27200  0.63633  1.0000
  C   C196      1.0  0.02527  0.39110  0.81012  1.0000
  C   C197      1.0  0.10409  0.26315  0.80658  1.0000
  H   H191      1.0  0.06954  0.42051  0.68475  1.0000
  C   C198      1.0  0.24633  0.25782  0.59952  1.0000
  H   H192      1.0  0.08907  0.39807  0.76035  1.0000
  C   C199      1.0  0.22786  0.28142  0.65456  1.0000
  H   H193      1.0  0.09879  0.42908  0.88624  1.0000
  C   C200      1.0  0.02193  0.35076  0.66737  1.0000
  H   H194      1.0  0.01156  0.33802  0.59446  1.0000
  C   C201      1.0  0.01532  0.32409  0.67394  1.0000
  Fe  Fe35      1.0  0.08063  0.48132  0.69249  1.0000
  H   H195      1.0  0.07882  0.45641  0.89647  1.0000
  H   H196      1.0  0.13731  0.40319  0.94287  1.0000
  H   H197      1.0  0.08813  0.26563  0.80291  1.0000
  H   H198      1.0  0.06811  0.45671  0.93172  1.0000
  S   S69       1.0  0.28255  0.25216  0.68387  1.0000
  C   C202      1.0  0.26277  0.28453  0.63282  1.0000
  C   C203      1.0  0.01194  0.47745  0.69762  1.0000
  C   C204      1.0  0.13084  0.24767  0.73674  1.0000
  H   H199      1.0  0.01228  0.41080  0.83059  1.0000
  H   H200      1.0  0.02772  0.36356  0.62591  1.0000
  N   N17       1.0  0.09188  0.43654  0.92401  1.0000
  H   H201      1.0  0.07965  0.41259  0.79654  1.0000
  C   C205      1.0  0.11958  0.41532  0.91214  1.0000
  C   C206      1.0  0.09682  0.43404  0.94897  1.0000
  C   C207      1.0  0.07973  0.42417  0.78153  1.0000
  C   C208      1.0  0.11208  0.38166  0.98849  1.0000
  C   C209      1.0  0.03988  0.48340  0.65964  1.0000
  C   C210      1.0  0.10297  0.29017  0.81217  1.0000
  C   C211      1.0  0.12875  0.28000  0.77742  1.0000
  H   H202      1.0  0.24636  0.24530  0.78426  1.0000
  H   H203      1.0  0.05845  0.44636  0.70014  1.0000
  H   H204      1.0  0.11330  0.25416  0.79442  1.0000
  H   H205      1.0  0.08534  0.43872  0.52608  1.0000
  Fe  Fe36      1.0  0.02725  0.40944  0.54645  1.0000
  S   S70       1.0  0.04758  0.47917  0.71086  1.0000
  H   H206      1.0  0.14852  0.29612  0.75139  1.0000
  C   C212      1.0  0.29632  0.25049  0.65107  1.0000
  C   C213      1.0  0.02110  0.38049  0.79708  1.0000
  C   C214      1.0  0.00681  0.48204  0.65146  1.0000
  H   H207      1.0  0.06297  0.45656  0.55614  1.0000
  H   H208      1.0  0.27661  0.28896  0.63170  1.0000
  H   H209      1.0  0.14253  0.43084  0.51388  1.0000
  S   S71       1.0  0.32934  0.25005  0.56330  1.0000
  H   H210      1.0  0.00713  0.38474  0.53701  1.0000
  H   H211      1.0  0.10400  0.25777  0.82841  1.0000
  C   C215      1.0  0.01255  0.37563  0.88013  1.0000
  C   C216      1.0  0.15199  0.24768  0.72625  1.0000
  H   H212      1.0  0.03924  0.33494  0.59161  1.0000
  H   H213      1.0  0.11691  0.47019  0.56589  1.0000
  H   H214      1.0  0.23072  0.25780  0.59658  1.0000
  H   H215      1.0  0.33138  0.26834  0.60048  1.0000
  C   C217      1.0  0.01762  0.33644  0.68473  1.0000
  H   H216      1.0  0.16640  0.47626  0.75657  1.0000
  C   C218      1.0  0.02414  0.34211  0.59945  1.0000
  C   C219      1.0  0.12602  0.43307  0.51268  1.0000
  H   H217      1.0  0.16796  0.48105  0.72037  1.0000
  H   H218      1.0  0.01644  0.33478  0.70648  1.0000
  C   C220      1.0  0.02371  0.35258  0.63934  1.0000
  H   H219      1.0  0.01617  0.31643  0.63750  1.0000
  H   H220      1.0  0.05551  0.48533  0.65184  1.0000
  H   H221      1.0  0.25604  0.26128  0.57904  1.0000
  H   H222      1.0  0.11716  0.42008  0.97588  1.0000
  H   H223      1.0  0.01110  0.42272  0.64639  1.0000
  H   H224      1.0  0.25308  0.24548  0.60898  1.0000
  H   H225      1.0  0.00946  0.45146  0.62499  1.0000
  H   H226      1.0  0.01716  0.35718  0.93796  1.0000
  H   H227      1.0  0.00789  0.32486  0.83633  1.0000
  H   H228      1.0  0.18708  0.48573  0.73397  1.0000
  C   C221      1.0  0.17044  0.48525  0.73764  1.0000
  S   S72       1.0  0.09474  0.49187  0.64962  1.0000
  H   H229      1.0  0.12454  0.43793  0.49111  1.0000
  C   C222      1.0  0.12373  0.63080  0.27316  1.0000
  S   S73       1.0  0.19686  0.51628  0.15892  1.0000
  Fe  Fe37      1.0  0.16393  0.51864  0.15609  1.0000
  S   S74       1.0  0.14413  0.54163  0.13970  1.0000
  H   H230      1.0  0.15827  0.70779  0.39477  1.0000
  H   H231      1.0  0.20346  0.52853  0.08395  1.0000
  H   H232      1.0  0.13317  0.63827  0.21132  1.0000
  Fe  Fe38      1.0  0.05319  0.62746  0.17651  1.0000
  S   S75       1.0  0.08063  0.62652  0.19390  1.0000
  S   S76       1.0  0.04787  0.63731  0.13385  1.0000
  Fe  Fe39      1.0  0.02785  0.61470  0.23110  1.0000
  S   S77       1.0  0.05263  0.61290  0.25379  1.0000
  C   C223      1.0  0.14163  0.73116  0.33941  1.0000
  Fe  Fe40      1.0  0.05755  0.63668  0.22719  1.0000
  S   S78       1.0  0.06322  0.65778  0.23972  1.0000
  Fe  Fe41      1.0  0.07383  0.60278  0.21895  1.0000
  S   S79       1.0  0.09914  0.58223  0.22976  1.0000
  S   S80       1.0  0.03067  0.63954  0.20781  1.0000
  S   S81       1.0  0.04856  0.60262  0.19837  1.0000
  Fe  Fe42      1.0  0.07096  0.71836  0.05230  1.0000
  C   C224      1.0  0.03590  0.67942  0.37952  1.0000
  S   S82       1.0  0.08700  0.69949  0.08191  1.0000
  H   H233      1.0  0.11649  0.59549  0.31662  1.0000
  Fe  Fe43      1.0  0.09906  0.66727  0.35829  1.0000
  S   S83       1.0  0.08177  0.69055  0.33908  1.0000
  S   S84       1.0  0.09632  0.64448  0.34825  1.0000
  Fe  Fe44      1.0  0.11655  0.68335  0.39080  1.0000
  S   S85       1.0  0.10039  0.70800  0.37450  1.0000
  S   S86       1.0  0.13899  0.67832  0.41848  1.0000
  Fe  Fe45      1.0  0.07349  0.69585  0.38070  1.0000
  S   S87       1.0  0.04020  0.70633  0.39317  1.0000
  Fe  Fe46      1.0  0.11012  0.70027  0.33452  1.0000
  S   S88       1.0  0.12266  0.71505  0.29440  1.0000
  S   S89       1.0  0.08875  0.67177  0.40076  1.0000
  S   S90       1.0  0.12847  0.67647  0.35012  1.0000
  C   C225      1.0  0.01229  0.64324  0.30334  1.0000
  H   H234      1.0  0.02070  0.61948  0.11841  1.0000
  H   H235      1.0  0.10873  0.61231  0.23400  1.0000
  H   H236      1.0  0.03448  0.70480  0.32562  1.0000
  H   H237      1.0  0.05109  0.67431  0.38363  1.0000
  C   C226      1.0  0.15047  0.71808  0.38210  1.0000
  C   C227      1.0  0.07211  0.65381  0.27014  1.0000
  C   C228      1.0  0.08229  0.66480  0.27436  1.0000
  C   C229      1.0  0.08951  0.66206  0.29846  1.0000
  C   C230      1.0  0.08635  0.64838  0.31864  1.0000
  C   C231      1.0  0.07619  0.63734  0.31442  1.0000
  C   C232      1.0  0.06916  0.64000  0.29011  1.0000
  H   H238      1.0  0.08506  0.67527  0.25868  1.0000
  H   H239      1.0  0.09809  0.67029  0.30103  1.0000
  H   H240      1.0  0.07383  0.62669  0.32993  1.0000
  H   H241      1.0  0.06126  0.63149  0.28706  1.0000
  C   C233      1.0  0.05848  0.65473  0.11930  1.0000
  C   C234      1.0  0.07460  0.65732  0.12887  1.0000
  C   C235      1.0  0.08312  0.67116  0.11735  1.0000
  C   C236      1.0  0.07535  0.68263  0.09647  1.0000
  C   C237      1.0  0.05912  0.68016  0.08683  1.0000
  C   C238      1.0  0.05083  0.66610  0.09807  1.0000
  H   H242      1.0  0.08082  0.64854  0.14483  1.0000
  Fe  Fe47      1.0  0.07503  0.73378  0.99280  1.0000
  H   H243      1.0  0.05302  0.68901  0.07073  1.0000
  H   H244      1.0  0.03831  0.66417  0.09063  1.0000
  C   C239      1.0  0.11865  0.64099  0.22616  1.0000
  S   S91       1.0  0.05917  0.71377  0.01878  1.0000
  H   H245      1.0  0.13139  0.51364  0.08132  1.0000
  H   H246      1.0  0.14843  0.53470  0.08524  1.0000
  C   C240      1.0  0.06196  0.70900  0.26084  1.0000
  S   S92       1.0  0.04335  0.73636  0.06519  1.0000
  C   C241      1.0  0.12329  0.61896  0.29703  1.0000
  H   H247      1.0  0.00612  0.63168  0.17122  1.0000
  H   H248      1.0  0.17896  0.54086  0.09221  1.0000
  H   H249      1.0  0.10558  0.67782  0.04773  1.0000
  C   C242      1.0  0.11501  0.71294  0.46256  1.0000
  C   C243      1.0  0.11804  0.70345  0.44328  1.0000
  C   C244      1.0  0.13491  0.69085  0.44154  1.0000
  C   C245      1.0  0.14891  0.68800  0.45865  1.0000
  H   H250      1.0  0.14254  0.73132  0.31817  1.0000
  C   C246      1.0  0.14571  0.69731  0.47811  1.0000
  H   H251      1.0  0.10717  0.70575  0.43013  1.0000
  H   H252      1.0  0.12187  0.73890  0.24527  1.0000
  H   H253      1.0  0.01312  0.58963  0.21249  1.0000
  C   C247      1.0  0.11725  0.60465  0.29808  1.0000
  C   C248      1.0  0.11142  0.57111  0.20447  1.0000
  C   C249      1.0  0.12646  0.55753  0.21035  1.0000
  C   C250      1.0  0.13653  0.54845  0.19055  1.0000
  C   C251      1.0  0.13164  0.55294  0.16470  1.0000
  C   C252      1.0  0.11668  0.56658  0.15874  1.0000
  C   C253      1.0  0.10654  0.57564  0.17861  1.0000
  H   H254      1.0  0.13038  0.55404  0.23026  1.0000
  H   H255      1.0  0.14822  0.53808  0.19521  1.0000
  H   H256      1.0  0.11288  0.57013  0.13876  1.0000
  H   H257      1.0  0.09501  0.58614  0.17389  1.0000
  H   H258      1.0  0.10310  0.66142  0.46215  1.0000
  S   S93       1.0  0.22830  0.49325  0.10257  1.0000
  H   H259      1.0  0.10745  0.59113  0.27566  1.0000
  C   C254      1.0  0.08032  0.68117  0.47415  1.0000
  H   H260      1.0  0.10178  0.72252  0.46423  1.0000
  H   H261      1.0  0.09575  0.67299  0.12473  1.0000
  Fe  Fe48      1.0  0.18889  0.49819  0.19726  1.0000
  C   C255      1.0  0.18146  0.49662  0.06179  1.0000
  H   H262      1.0  0.02797  0.66264  0.29885  1.0000
  C   C256      1.0  0.19067  0.50882  0.06389  1.0000
  N   N18       1.0  0.04921  0.72465  0.30418  1.0000
  H   H263      1.0  0.07421  0.66537  0.99600  1.0000
  Fe  Fe49      1.0  0.03304  0.73363  0.02913  1.0000
  C   C257      1.0  0.16242  0.70408  0.34420  1.0000
  N   N19       1.0  0.11065  0.69016  0.00621  1.0000
  C   C258      1.0  0.04979  0.70227  0.28505  1.0000
  H   H264      1.0  0.15605  0.70302  0.32706  1.0000
  H   H265      1.0  0.10533  0.64184  0.21677  1.0000
  C   C259      1.0  0.12859  0.70962  0.48046  1.0000
  C   C260      1.0  0.14807  0.51225  0.07602  1.0000
  H   H266      1.0  0.03325  0.65855  0.36706  1.0000
  H   H267      1.0  0.12693  0.62112  0.31488  1.0000
  H   H268      1.0  0.16218  0.67845  0.45706  1.0000
  H   H269      1.0  0.01187  0.60052  0.13288  1.0000
  H   H270      1.0  0.13713  0.49712  0.28886  1.0000
  H   H271      1.0  0.17889  0.70514  0.33668  1.0000
  C   C261      1.0  0.02643  0.69478  0.38368  1.0000
  N   N20       1.0  0.17887  0.52211  0.07282  1.0000
  H   H272      1.0  0.01778  0.63649  0.32161  1.0000
  N   N21       1.0  0.15096  0.71802  0.35560  1.0000
  C   C262      1.0  0.01801  0.65799  0.29054  1.0000
  H   H273      1.0  0.04554  0.69076  0.28732  1.0000
  H   H274      1.0  0.08181  0.66218  0.04189  1.0000
  C   C263      1.0  0.08889  0.67038  0.02449  1.0000
  C   C264      1.0  0.01061  0.66676  0.26727  1.0000
  H   H275      1.0  0.19240  0.54288  0.05703  1.0000
  C   C265      1.0  0.16002  0.49831  0.06814  1.0000
  H   H276      1.0  0.11000  0.50347  0.30242  1.0000
  C   C266      1.0  0.11205  0.60225  0.27523  1.0000
  H   H277      1.0  0.07170  0.68217  0.45860  1.0000
  S   S94       1.0  0.15540  0.50242  0.19631  1.0000
  C   C267      1.0  0.02575  0.67045  0.37012  1.0000
  N   N22       1.0  0.11811  0.62850  0.25107  1.0000
  C   C268      1.0  0.13968  0.73128  0.39337  1.0000
  H   H278      1.0  0.11736  0.65301  0.23046  1.0000
  S   S95       1.0  0.08908  0.73678  0.02549  1.0000
  H   H279      1.0  0.12799  0.64202  0.27279  1.0000
  C   C269      1.0  0.18892  0.53424  0.07654  1.0000
  C   C270      1.0  0.11269  0.61434  0.25170  1.0000
  H   H280      1.0  0.20736  0.50732  0.05924  1.0000
  C   C271      1.0  0.15781  0.52415  0.07814  1.0000
  H   H281      1.0  0.16129  0.69280  0.35983  1.0000
  C   C272      1.0  0.10222  0.67938  0.02776  1.0000
  S   S96       1.0  0.19780  0.49611  0.23671  1.0000
  C   C273      1.0  0.12418  0.69978  0.01013  1.0000
  Fe  Fe50      1.0  0.20271  0.49543  0.13877  1.0000
  H   H282      1.0  0.14042  0.69342  0.00668  1.0000
  H   H283      1.0  0.07759  0.72882  0.24001  1.0000
  H   H284      1.0  0.06703  0.70286  0.24396  1.0000
  H   H285      1.0  0.01525  0.67818  0.25736  1.0000
  H   H286      1.0  0.11975  0.70218  0.03109  1.0000
  C   C274      1.0  0.04353  0.71030  0.30666  1.0000
  C   C275      1.0  0.10958  0.73491  0.28843  1.0000
  C   C276      1.0  0.00663  0.70117  0.37838  1.0000
  C   C277      1.0  0.06780  0.72358  0.25855  1.0000
  C   C278      1.0  0.06123  0.73128  0.28055  1.0000
  H   H287      1.0  0.12292  0.71166  0.99589  1.0000
  S   S97       1.0  0.17042  0.49914  0.13300  1.0000
  C   C279      1.0  0.08466  0.67217  0.99880  1.0000
  C   C280      1.0  0.09804  0.66944  0.47632  1.0000
  C   C281      1.0  0.09694  0.74170  0.30989  1.0000
  H   H288      1.0  0.13911  0.73117  0.41454  1.0000
  H   H289      1.0  0.12477  0.50278  0.24505  1.0000
  H   H290      1.0  0.09476  0.73464  0.33033  1.0000
  H   H291      1.0  0.13572  0.65337  0.47739  1.0000
  H   H292      1.0  0.02394  0.60859  0.15195  1.0000
  H   H293      1.0  0.02864  0.72980  0.34068  1.0000
  C   C282      1.0  0.04360  0.73239  0.32757  1.0000
  C   C283      1.0  0.01341  0.61187  0.13733  1.0000
  H   H294      1.0  0.05562  0.72785  0.34013  1.0000
  C   C284      1.0  0.00609  0.67681  0.36457  1.0000
  C   C285      1.0  0.12218  0.49303  0.29832  1.0000
  H   H295      1.0  0.06059  0.70118  0.49001  1.0000
  H   H296      1.0  0.15673  0.69513  0.49099  1.0000
  C   C286      1.0  0.19313  0.71035  0.60156  1.0000
  C   C287      1.0  0.25611  0.64424  0.61593  1.0000
  H   H297      1.0  0.07271  0.62414  0.73376  1.0000
  H   H298      1.0  0.24439  0.65399  0.76572  1.0000
  C   C288      1.0  0.12938  0.71904  0.68074  1.0000
  C   C289      1.0  0.13206  0.53041  0.74351  1.0000
  S   S98       1.0  0.12578  0.70798  0.81293  1.0000
  C   C290      1.0  0.12403  0.51784  0.74063  1.0000
  H   H299      1.0  0.29321  0.66320  0.61466  1.0000
  S   S99       1.0  0.11853  0.52721  0.65722  1.0000
  S   S100      1.0  0.11260  0.67238  0.84090  1.0000
  C   C291      1.0  0.07514  0.63619  0.72368  1.0000
  Fe  Fe51      1.0  0.12890  0.67133  0.57643  1.0000
  S   S101      1.0  0.10541  0.69380  0.57332  1.0000
  S   S102      1.0  0.11959  0.64932  0.57247  1.0000
  C   C292      1.0  0.11887  0.71674  0.70795  1.0000
  S   S103      1.0  0.13836  0.67939  0.77781  1.0000
  C   C293      1.0  0.33083  0.72354  0.74881  1.0000
  S   S104      1.0  0.09837  0.65298  0.78720  1.0000
  Fe  Fe52      1.0  0.18334  0.57092  0.69808  1.0000
  S   S105      1.0  0.15472  0.57556  0.72960  1.0000
  S   S106      1.0  0.19217  0.54624  0.68860  1.0000
  Fe  Fe53      1.0  0.18947  0.60567  0.68343  1.0000
  S   S107      1.0  0.16096  0.61300  0.71298  1.0000
  S   S108      1.0  0.20396  0.62675  0.65850  1.0000
  Fe  Fe54      1.0  0.17216  0.59056  0.74128  1.0000
  S   S109      1.0  0.16996  0.59331  0.78364  1.0000
  Fe  Fe55      1.0  0.14645  0.59739  0.69836  1.0000
  S   S110      1.0  0.11508  0.60410  0.68823  1.0000
  S   S111      1.0  0.20195  0.58406  0.71266  1.0000
  S   S112      1.0  0.17391  0.59190  0.66587  1.0000
  S   S113      1.0  0.27729  0.69495  0.65513  1.0000
  S   S114      1.0  0.28093  0.68837  0.71883  1.0000
  Fe  Fe56      1.0  0.26470  0.67934  0.69465  1.0000
  S   S115      1.0  0.26587  0.65262  0.70238  1.0000
  S   S116      1.0  0.23505  0.69635  0.70376  1.0000
  H   H300      1.0  0.09102  0.68411  0.95653  1.0000
  C   C294      1.0  0.21960  0.63370  0.67370  1.0000
  C   C295      1.0  0.23467  0.62308  0.68666  1.0000
  C   C296      1.0  0.24881  0.62902  0.69540  1.0000
  C   C297      1.0  0.24761  0.64558  0.69185  1.0000
  C   C298      1.0  0.23220  0.65617  0.67956  1.0000
  C   C299      1.0  0.21843  0.65021  0.67023  1.0000
  H   H301      1.0  0.23592  0.61030  0.68901  1.0000
  H   H302      1.0  0.26079  0.62076  0.70479  1.0000
  H   H303      1.0  0.23115  0.66894  0.67675  1.0000
  H   H304      1.0  0.20706  0.65841  0.65982  1.0000
  C   C300      1.0  0.11686  0.63537  0.78977  1.0000
  C   C301      1.0  0.13259  0.63332  0.80399  1.0000
  C   C302      1.0  0.14824  0.61968  0.80395  1.0000
  C   C303      1.0  0.14835  0.60835  0.78917  1.0000
  C   C304      1.0  0.13221  0.61016  0.77584  1.0000
  C   C305      1.0  0.11645  0.62360  0.77624  1.0000
  H   H305      1.0  0.13285  0.64231  0.81475  1.0000
  H   H306      1.0  0.16070  0.61829  0.81433  1.0000
  H   H307      1.0  0.13205  0.60130  0.76478  1.0000
  H   H308      1.0  0.10430  0.62497  0.76546  1.0000
  C   C306      1.0  0.11940  0.63565  0.60349  1.0000
  C   C307      1.0  0.10335  0.62698  0.61427  1.0000
  C   C308      1.0  0.10201  0.61724  0.64040  1.0000
  C   C309      1.0  0.11699  0.61592  0.65542  1.0000
  C   C310      1.0  0.13344  0.62412  0.64422  1.0000
  C   C311      1.0  0.13457  0.63408  0.61833  1.0000
  H   H309      1.0  0.09160  0.62821  0.60279  1.0000
  H   H310      1.0  0.08938  0.61075  0.64896  1.0000
  H   H311      1.0  0.14513  0.62296  0.65568  1.0000
  H   H312      1.0  0.14723  0.64054  0.60979  1.0000
  Fe  Fe57      1.0  0.29093  0.70570  0.68031  1.0000
  H   H313      1.0  0.19937  0.54643  0.61485  1.0000
  H   H314      1.0  0.27013  0.67953  0.58330  1.0000
  H   H315      1.0  0.18884  0.68569  0.66909  1.0000
  C   C312      1.0  0.13839  0.53157  0.66867  1.0000
  C   C313      1.0  0.13635  0.54683  0.67379  1.0000
  C   C314      1.0  0.15272  0.55127  0.68026  1.0000
  C   C315      1.0  0.17137  0.54053  0.68134  1.0000
  C   C316      1.0  0.17338  0.52516  0.67657  1.0000
  C   C317      1.0  0.15683  0.52062  0.67051  1.0000
  H   H316      1.0  0.12211  0.55533  0.67241  1.0000
  H   H317      1.0  0.15098  0.56313  0.68390  1.0000
  H   H318      1.0  0.18778  0.51681  0.67738  1.0000
  H   H319      1.0  0.15860  0.50889  0.66626  1.0000
  C   C318      1.0  0.12182  0.71494  0.66105  1.0000
  Fe  Fe58      1.0  0.13139  0.70514  0.54566  1.0000
  C   C319      1.0  0.26277  0.66918  0.58782  1.0000
  S   S117      1.0  0.09328  0.70400  0.64434  1.0000
  H   H320      1.0  0.07960  0.65346  0.64347  1.0000
  Fe  Fe59      1.0  0.11644  0.69850  0.60720  1.0000
  C   C320      1.0  0.08274  0.66650  0.69716  1.0000
  C   C321      1.0  0.07857  0.66257  0.72561  1.0000
  C   C322      1.0  0.18962  0.68548  0.81356  1.0000
  H   H321      1.0  0.22410  0.67534  0.62264  1.0000
  C   C323      1.0  0.21720  0.71441  0.62582  1.0000
  C   C324      1.0  0.09822  0.71634  0.88600  1.0000
  H   H322      1.0  0.22684  0.65626  0.56758  1.0000
  H   H323      1.0  0.07139  0.64415  0.76099  1.0000
  H   H324      1.0  0.19460  0.73324  0.60860  1.0000
  H   H325      1.0  0.07764  0.70369  0.70095  1.0000
  H   H326      1.0  0.23338  0.63400  0.60672  1.0000
  H   H327      1.0  0.05138  0.70803  0.92126  1.0000
  Fe  Fe60      1.0  0.24859  0.71272  0.66614  1.0000
  N   N23       1.0  0.26625  0.65688  0.60938  1.0000
  N   N24       1.0  0.16000  0.67798  0.68256  1.0000
  C   C325      1.0  0.16311  0.66658  0.66755  1.0000
  C   C326      1.0  0.14567  0.67744  0.70637  1.0000
  C   C327      1.0  0.15211  0.65398  0.67664  1.0000
  C   C328      1.0  0.13424  0.66509  0.71596  1.0000
  C   C329      1.0  0.13755  0.65326  0.70100  1.0000
  C   C330      1.0  0.17213  0.69082  0.67278  1.0000
  H   H328      1.0  0.17422  0.66712  0.64840  1.0000
  H   H329      1.0  0.14299  0.68659  0.71810  1.0000
  H   H330      1.0  0.15512  0.64481  0.66485  1.0000
  H   H331      1.0  0.12300  0.66467  0.73496  1.0000
  H   H332      1.0  0.12894  0.64351  0.70839  1.0000
  H   H333      1.0  0.16815  0.69843  0.65346  1.0000
  H   H334      1.0  0.16927  0.69861  0.68769  1.0000
  C   C331      1.0  0.07458  0.64735  0.73890  1.0000
  S   S118      1.0  0.26321  0.72486  0.68775  1.0000
  H   H335      1.0  0.17674  0.69298  0.77739  1.0000
  C   C332      1.0  0.22543  0.69807  0.62982  1.0000
  C   C333      1.0  0.23841  0.65617  0.57875  1.0000
  C   C334      1.0  0.08746  0.65992  0.65258  1.0000
  H   H336      1.0  0.12319  0.64490  0.51172  1.0000
  S   S119      1.0  0.17114  0.67381  0.83215  1.0000
  H   H337      1.0  0.12238  0.54210  0.74406  1.0000
  H   H338      1.0  0.23786  0.69324  0.64072  1.0000
  H   H339      1.0  0.10801  0.51961  0.73907  1.0000
  Fe  Fe61      1.0  0.14113  0.68219  0.81822  1.0000
  C   C335      1.0  0.24201  0.64372  0.60079  1.0000
  Fe  Fe62      1.0  0.25232  0.70681  0.72436  1.0000
  N   N25       1.0  0.31976  0.71288  0.74680  1.0000
  N   N26       1.0  0.15279  0.57067  0.61460  1.0000
  C   C336      1.0  0.17303  0.56565  0.61673  1.0000
  C   C337      1.0  0.14252  0.56091  0.60821  1.0000
  C   C338      1.0  0.18358  0.55058  0.61208  1.0000
  C   C339      1.0  0.15265  0.54582  0.60320  1.0000
  C   C340      1.0  0.17329  0.54063  0.60525  1.0000
  C   C341      1.0  0.14157  0.58596  0.62157  1.0000
  H   H340      1.0  0.18095  0.57304  0.62298  1.0000
  H   H341      1.0  0.12619  0.56446  0.60801  1.0000
  H   H342      1.0  0.14419  0.53787  0.59925  1.0000
  H   H343      1.0  0.13479  0.58409  0.64373  1.0000
  H   H344      1.0  0.15188  0.59488  0.61653  1.0000
  H   H345      1.0  0.12893  0.59130  0.61016  1.0000
  S   S120      1.0  0.15431  0.68215  0.54675  1.0000
  C   C342      1.0  0.27958  0.65795  0.62686  1.0000
  Fe  Fe63      1.0  0.16112  0.68804  0.58293  1.0000
  C   C343      1.0  0.13692  0.50300  0.73917  1.0000
  Fe  Fe64      1.0  0.10818  0.67221  0.79965  1.0000
  H   H346      1.0  0.18104  0.52869  0.60254  1.0000
  H   H347      1.0  0.23297  0.69594  0.82006  1.0000
  C   C344      1.0  0.16528  0.51306  0.74307  1.0000
  H   H348      1.0  0.08242  0.67297  0.64500  1.0000
  S   S121      1.0  0.19290  0.68078  0.59230  1.0000
  H   H349      1.0  0.11189  0.67778  0.52822  1.0000
  C   C345      1.0  0.12763  0.65596  0.49768  1.0000
  H   H350      1.0  0.27140  0.73228  0.76748  1.0000
  H   H351      1.0  0.08104  0.69897  0.52492  1.0000
  C   C346      1.0  0.01720  0.73421  0.88674  1.0000
  H   H352      1.0  0.15214  0.74002  0.74684  1.0000
  H   H353      1.0  0.01109  0.71035  0.95474  1.0000
  H   H354      1.0  0.18150  0.51151  0.74335  1.0000
  C   C347      1.0  0.15276  0.52799  0.74504  1.0000
  Fe  Fe65      1.0  0.11429  0.50148  0.66866  1.0000
  S   S122      1.0  0.22716  0.72704  0.63854  1.0000
  H   H355      1.0  0.15931  0.53778  0.74664  1.0000
  N   N27       1.0  0.21523  0.64831  0.76641  1.0000
  C   C348      1.0  0.19425  0.65287  0.77055  1.0000
  C   C349      1.0  0.22455  0.63439  0.75778  1.0000
  C   C350      1.0  0.18212  0.64374  0.76498  1.0000
  C   C351      1.0  0.21281  0.62480  0.75255  1.0000
  C   C352      1.0  0.19152  0.62967  0.75579  1.0000
  C   C353      1.0  0.22756  0.65844  0.77156  1.0000
  H   H356      1.0  0.18677  0.66356  0.77837  1.0000
  H   H357      1.0  0.24118  0.63070  0.75456  1.0000
  H   H358      1.0  0.16551  0.64738  0.76821  1.0000
  H   H359      1.0  0.22014  0.61372  0.74582  1.0000
  H   H360      1.0  0.18231  0.62242  0.75153  1.0000
  H   H361      1.0  0.22431  0.67077  0.75933  1.0000
  H   H362      1.0  0.22372  0.65895  0.79349  1.0000
  H   H363      1.0  0.13014  0.71646  0.64015  1.0000
  H   H364      1.0  0.10849  0.71600  0.86651  1.0000
  S   S123      1.0  0.13769  0.67487  0.61293  1.0000
  C   C354      1.0  0.09233  0.70761  0.69532  1.0000
  H   H365      1.0  0.24545  0.67903  0.55571  1.0000
  C   C355      1.0  0.24890  0.66897  0.57207  1.0000
  H   H366      1.0  0.19697  0.73570  0.77874  1.0000
  Fe  Fe66      1.0  0.09668  0.69804  0.83262  1.0000
  S   S124      1.0  0.08987  0.69707  0.79286  1.0000
  C   C356      1.0  0.10349  0.72252  0.90522  1.0000
  C   C357      1.0  0.18912  0.69344  0.78662  1.0000
  C   C358      1.0  0.20166  0.69403  0.60521  1.0000
  C   C359      1.0  0.20268  0.74132  0.72606  1.0000
  C   C360      1.0  0.07913  0.64060  0.69528  1.0000
  S   S125      1.0  0.12367  0.72052  0.50619  1.0000
  H   H367      1.0  0.07948  0.63184  0.68367  1.0000
  N   N28       1.0  0.08260  0.65566  0.68238  1.0000
  C   C361      1.0  0.29929  0.74103  0.76394  1.0000
  C   C362      1.0  0.10037  0.71099  0.71518  1.0000
  H   H368      1.0  0.02261  0.71837  0.99049  1.0000
  H   H369      1.0  0.09194  0.70953  0.73595  1.0000
  C   C363      1.0  0.21773  0.68795  0.61942  1.0000
  Fe  Fe67      1.0  0.12054  0.70441  0.77395  1.0000
  C   C364      1.0  0.07929  0.71139  0.89151  1.0000
  C   C365      1.0  0.08994  0.72367  0.93010  1.0000
  C   C366      1.0  0.28814  0.72995  0.76236  1.0000
  H   H370      1.0  0.07860  0.67121  0.73735  1.0000
  C   C367      1.0  0.20098  0.72057  0.61177  1.0000
  N   N29       1.0  0.15732  0.50087  0.73987  1.0000
  C   C368      1.0  0.08544  0.69056  0.51144  1.0000
  H   H371      1.0  0.18079  0.71516  0.59045  1.0000
  H   H372      1.0  0.28533  0.64600  0.63880  1.0000
  H   H373      1.0  0.06087  0.71883  0.95550  1.0000
  H   H374      1.0  0.25841  0.63469  0.63343  1.0000
  H   H375      1.0  0.08604  0.67825  0.68694  1.0000
  S   S126      1.0  0.07095  0.70645  0.86576  1.0000
  C   C369      1.0  0.20556  0.68628  0.82546  1.0000
  C   C370      1.0  0.06605  0.71190  0.91691  1.0000
  C   C371      1.0  0.07138  0.71801  0.93627  1.0000
  H   H376      1.0  0.20594  0.68015  0.84631  1.0000
  C   C372      1.0  0.10321  0.70928  0.66834  1.0000
  H   H377      1.0  0.28985  0.70727  0.75281  1.0000
  C   C373      1.0  0.20503  0.70164  0.77133  1.0000
  C   C374      1.0  0.22076  0.70267  0.78345  1.0000
  H   H378      1.0  0.20485  0.70743  0.75035  1.0000
  N   N30       1.0  0.18398  0.74025  0.74328  1.0000
  C   C375      1.0  0.22085  0.69517  0.81061  1.0000
  H   H379      1.0  0.10432  0.65681  0.64519  1.0000
  C   C376      1.0  0.10300  0.67863  0.51310  1.0000
  H   H380      1.0  0.27073  0.66558  0.64153  1.0000
  S   S127      1.0  0.12965  0.72013  0.73297  1.0000
  S   S128      1.0  0.14040  0.71221  0.57949  1.0000
  S   S129      1.0  0.24022  0.71346  0.76495  1.0000
  C   C377      1.0  0.18176  0.73906  0.77255  1.0000
  S   S130      1.0  0.09638  0.73285  0.95239  1.0000
  C   C378      1.0  0.33043  0.72624  0.67711  1.0000
  C   C379      1.0  0.29869  0.71580  0.75389  1.0000
  H   H381      1.0  0.21618  0.74092  0.73391  1.0000
  H   H382      1.0  0.02805  0.72414  0.87847  1.0000
  H   H383      1.0  0.14358  0.72369  0.67493  1.0000
  C   C380      1.0  0.16700  0.74080  0.73325  1.0000
  H   H384      1.0  0.11451  0.69964  0.96350  1.0000
  S   S131      1.0  0.32409  0.70950  0.67003  1.0000
  C   C381      1.0  0.16854  0.74222  0.70537  1.0000
  H   H385      1.0  0.29908  0.73815  0.68780  1.0000
  N   N31       1.0  0.10925  0.66843  0.49543  1.0000
  H   H386      1.0  0.13883  0.65985  0.50591  1.0000
  C   C382      1.0  0.32078  0.73778  0.75734  1.0000
  C   C383      1.0  0.31510  0.73850  0.68606  1.0000
  H   H387      1.0  0.11793  0.72678  0.90049  1.0000
  H   H388      1.0  0.32107  0.69352  0.72812  1.0000
  H   H389      1.0  0.17273  0.72959  0.78443  1.0000
  C   C384      1.0  0.10721  0.69153  0.98077  1.0000
  H   H390      1.0  0.05429  0.74185  0.86549  1.0000
  C   C385      1.0  0.33062  0.69794  0.73817  1.0000
  C   C386      1.0  0.09403  0.68269  0.97670  1.0000
  C   C387      1.0  0.07407  0.69183  0.49178  1.0000
  S   S132      1.0  0.09768  0.49317  0.71117  1.0000
  H   H391      1.0  0.33458  0.68863  0.75595  1.0000
  H   H392      1.0  0.13062  0.49321  0.73713  1.0000
  C   C388      1.0  0.00670  0.72195  0.98839  1.0000
  H   H393      1.0  0.25480  0.90312  0.14539  1.0000
  H   H394      1.0  0.22675  0.85414  0.30196  1.0000
  S   S133      1.0  0.05850  0.77820  0.04538  1.0000
  Fe  Fe68      1.0  0.08416  0.79124  0.17223  1.0000
  S   S134      1.0  0.07413  0.81702  0.15347  1.0000
  S   S135      1.0  0.09313  0.77046  0.15122  1.0000
  Fe  Fe69      1.0  0.07776  0.79797  0.22850  1.0000
  S   S136      1.0  0.06697  0.82436  0.21465  1.0000
  S   S137      1.0  0.07800  0.78725  0.27263  1.0000
  N   N32       1.0  0.04280  0.86011  0.15458  1.0000
  Fe  Fe70      1.0  0.09320  0.82220  0.17889  1.0000
  S   S138      1.0  0.11613  0.83877  0.15906  1.0000
  S   S139      1.0  0.05759  0.79050  0.20771  1.0000
  S   S140      1.0  0.10543  0.79633  0.19458  1.0000
  C   C389      1.0  0.06222  0.87002  0.18707  1.0000
  H   H395      1.0  0.27112  0.89000  0.18510  1.0000
  C   C390      1.0  0.01744  0.81349  0.14813  1.0000
  Fe  Fe71      1.0  0.28831  0.91501  0.31242  1.0000
  H   H396      1.0  0.28517  0.86825  0.28485  1.0000
  S   S141      1.0  0.25566  0.92777  0.32002  1.0000
  C   C391      1.0  0.27879  0.85949  0.25329  1.0000
  Fe  Fe72      1.0  0.06035  0.75447  0.03529  1.0000
  C   C392      1.0  0.33613  0.90234  0.21002  1.0000
  H   H397      1.0  0.21911  0.97209  0.22374  1.0000
  H   H398      1.0  0.28412  0.95909  0.28005  1.0000
  H   H399      1.0  0.26642  0.92436  0.09527  1.0000
  H   H400      1.0  0.25622  0.96883  0.16407  1.0000
  C   C393      1.0  0.01336  0.80537  0.05168  1.0000
  C   C394      1.0  0.07246  0.86799  0.16098  1.0000
  H   H401      1.0  0.33408  0.97069  0.26582  1.0000
  N   N33       1.0  0.16405  0.82146  0.19065  1.0000
  H   H402      1.0  0.31099  0.95229  0.28047  1.0000
  H   H403      1.0  0.12085  0.75474  0.38588  1.0000
  S   S142      1.0  0.29255  0.93079  0.04196  1.0000
  C   C395      1.0  0.03290  0.76989  0.16140  1.0000
  S   S143      1.0  0.31545  0.85223  0.10774  1.0000
  C   C396      1.0  0.11216  0.74414  0.26195  1.0000
  C   C397      1.0  0.24586  0.85128  0.26316  1.0000
  Fe  Fe73      1.0  0.20014  0.88653  0.25532  1.0000
  S   S144      1.0  0.17881  0.90547  0.23258  1.0000
  S   S145      1.0  0.19983  0.88611  0.29875  1.0000
  Fe  Fe74      1.0  0.21615  0.86911  0.20882  1.0000
  S   S146      1.0  0.19659  0.88674  0.18165  1.0000
  S   S147      1.0  0.23542  0.84605  0.19966  1.0000
  Fe  Fe75      1.0  0.20593  0.90510  0.19763  1.0000
  S   S148      1.0  0.21534  0.92816  0.17180  1.0000
  Fe  Fe76      1.0  0.17148  0.88533  0.21923  1.0000
  S   S149      1.0  0.13871  0.88168  0.22516  1.0000
  S   S150      1.0  0.22782  0.88734  0.22139  1.0000
  S   S151      1.0  0.19060  0.86645  0.24525  1.0000
  H   H404      1.0  0.15098  0.80777  0.17253  1.0000
  H   H405      1.0  0.07093  0.86078  0.12511  1.0000
  C   C398      1.0  0.23864  0.92948  0.20756  1.0000
  C   C399      1.0  0.23189  0.93660  0.18316  1.0000
  H   H406      1.0  0.23356  0.91870  0.22000  1.0000
  H   H407      1.0  0.01863  0.79671  0.06941  1.0000
  C   C400      1.0  0.33147  0.88012  0.19392  1.0000
  S   S152      1.0  0.01526  0.82667  0.19162  1.0000
  C   C401      1.0  0.24149  0.85558  0.28847  1.0000
  C   C402      1.0  0.33067  0.88727  0.21552  1.0000
  H   H408      1.0  0.16158  0.82420  0.14977  1.0000
  H   H409      1.0  0.32729  0.86846  0.19803  1.0000
  C   C403      1.0  0.23832  0.95081  0.16754  1.0000
  C   C404      1.0  0.25946  0.93095  0.11199  1.0000
  C   C405      1.0  0.29280  0.94801  0.05301  1.0000
  C   C406      1.0  0.28189  0.96281  0.04193  1.0000
  C   C407      1.0  0.12949  0.74450  0.37728  1.0000
  C   C408      1.0  0.22828  0.95708  0.27218  1.0000
  C   C409      1.0  0.30406  0.96084  0.08167  1.0000
  C   C410      1.0  0.30389  0.94704  0.07290  1.0000
  Fe  Fe77      1.0  0.33276  0.91900  0.29249  1.0000
  C   C411      1.0  0.25119  0.86541  0.32304  1.0000
  H   H410      1.0  0.26816  0.85000  0.22578  1.0000
  H   H411      1.0  0.26121  0.94367  0.10416  1.0000
  C   C412      1.0  0.29313  0.85117  0.13336  1.0000
  C   C413      1.0  0.27983  0.86494  0.14042  1.0000
  C   C414      1.0  0.26192  0.86352  0.16079  1.0000
  C   C415      1.0  0.25746  0.84834  0.17404  1.0000
  C   C416      1.0  0.27082  0.83465  0.16705  1.0000
  C   C417      1.0  0.28856  0.83607  0.14672  1.0000
  H   H412      1.0  0.28317  0.87662  0.12991  1.0000
  H   H413      1.0  0.25145  0.87409  0.16601  1.0000
  H   H414      1.0  0.26742  0.82291  0.17728  1.0000
  H   H415      1.0  0.29878  0.82541  0.14132  1.0000
  H   H416      1.0  0.27327  0.96361  0.02655  1.0000
  H   H417      1.0  0.33423  0.93657  0.23567  1.0000
  Fe  Fe78      1.0  0.31863  0.89197  0.28046  1.0000
  C   C418      1.0  0.26533  0.90890  0.15051  1.0000
  C   C419      1.0  0.25169  0.93652  0.21623  1.0000
  C   C420      1.0  0.03270  0.86190  0.18028  1.0000
  C   C421      1.0  0.01598  0.77524  0.18062  1.0000
  N   N34       1.0  0.25547  0.86169  0.29595  1.0000
  S   S153      1.0  0.27299  0.96001  0.21314  1.0000
  C   C422      1.0  0.14849  0.82052  0.21322  1.0000
  H   H418      1.0  0.01723  0.85932  0.18822  1.0000
  C   C423      1.0  0.28229  0.97665  0.05048  1.0000
  C   C424      1.0  0.16376  0.83615  0.23237  1.0000
  C   C425      1.0  0.14813  0.82784  0.23440  1.0000
  H   H419      1.0  0.25638  0.87671  0.32193  1.0000
  H   H420      1.0  0.23310  0.95643  0.14870  1.0000
  H   H421      1.0  0.30785  0.89852  0.45391  1.0000
  H   H422      1.0  0.08260  0.75132  0.07594  1.0000
  Fe  Fe79      1.0  0.30248  0.99019  0.12034  1.0000
  H   H423      1.0  0.23472  0.84652  0.25717  1.0000
  H   H424      1.0  0.22305  0.95493  0.29468  1.0000
  Fe  Fe80      1.0  0.32441  0.87628  0.09010  1.0000
  Fe  Fe81      1.0  0.29214  0.97579  0.18018  1.0000
  C   C426      1.0  0.26463  0.85327  0.24549  1.0000
  C   C427      1.0  0.24043  0.91610  0.31388  1.0000
  C   C428      1.0  0.24609  0.90991  0.29018  1.0000
  C   C429      1.0  0.23326  0.90120  0.28476  1.0000
  C   C430      1.0  0.21531  0.89804  0.30371  1.0000
  C   C431      1.0  0.21004  0.90382  0.32775  1.0000
  C   C432      1.0  0.22237  0.91311  0.33259  1.0000
  H   H425      1.0  0.26028  0.91197  0.27596  1.0000
  H   H426      1.0  0.23762  0.89652  0.26640  1.0000
  H   H427      1.0  0.19628  0.90125  0.34256  1.0000
  H   H428      1.0  0.21809  0.91774  0.35106  1.0000
  C   C433      1.0  0.12218  0.85064  0.17772  1.0000
  C   C434      1.0  0.13926  0.85828  0.16664  1.0000
  C   C435      1.0  0.14472  0.86761  0.18121  1.0000
  C   C436      1.0  0.13272  0.86974  0.20659  1.0000
  C   C437      1.0  0.11541  0.86232  0.21744  1.0000
  C   C438      1.0  0.11035  0.85257  0.20327  1.0000
  H   H429      1.0  0.14840  0.85692  0.14680  1.0000
  H   H430      1.0  0.15796  0.87342  0.17260  1.0000
  H   H431      1.0  0.10610  0.86394  0.23709  1.0000
  H   H432      1.0  0.09727  0.84662  0.21207  1.0000
  C   C439      1.0  0.10214  0.76015  0.25688  1.0000
  C   C440      1.0  0.08999  0.76710  0.27842  1.0000
  C   C441      1.0  0.08738  0.75785  0.30493  1.0000
  H   H433      1.0  0.25682  0.93097  0.23509  1.0000
  H   H434      1.0  0.10409  0.76716  0.23635  1.0000
  H   H435      1.0  0.07785  0.76318  0.32160  1.0000
  H   H436      1.0  0.17855  0.80615  0.16282  1.0000
  C   C442      1.0  0.06863  0.77616  0.07428  1.0000
  C   C443      1.0  0.06501  0.78921  0.08678  1.0000
  C   C444      1.0  0.07256  0.78760  0.11035  1.0000
  C   C445      1.0  0.08398  0.77299  0.12128  1.0000
  C   C446      1.0  0.08756  0.75994  0.10876  1.0000
  C   C447      1.0  0.07982  0.76149  0.08538  1.0000
  H   H437      1.0  0.05632  0.80057  0.07830  1.0000
  H   H438      1.0  0.06957  0.79767  0.11994  1.0000
  H   H439      1.0  0.02703  0.80721  0.03507  1.0000
  C   C448      1.0  0.33689  0.84678  0.03783  1.0000
  C   C449      1.0  0.06259  0.86277  0.14507  1.0000
  H   H440      1.0  0.30188  0.92987  0.16967  1.0000
  H   H441      1.0  0.29407  0.90378  0.19802  1.0000
  H   H442      1.0  0.06989  0.87381  0.19974  1.0000
  H   H443      1.0  0.33832  0.88242  0.15036  1.0000
  H   H444      1.0  0.03400  0.81172  0.14553  1.0000
  H   H445      1.0  0.01588  0.85569  0.14537  1.0000
  H   H446      1.0  0.13583  0.81463  0.21451  1.0000
  H   H447      1.0  0.24266  0.93077  0.11782  1.0000
  C   C450      1.0  0.16384  0.81449  0.16788  1.0000
  N   N35       1.0  0.30304  0.97663  0.25992  1.0000
  C   C451      1.0  0.27397  0.86359  0.27881  1.0000
  H   H448      1.0  0.01883  0.80402  0.11320  1.0000
  C   C452      1.0  0.25147  0.95781  0.17617  1.0000
  S   S154      1.0  0.31092  0.89950  0.10357  1.0000
  H   H449      1.0  0.16321  0.84241  0.24816  1.0000
  C   C453      1.0  0.04225  0.86685  0.19691  1.0000
  C   C454      1.0  0.00880  0.80913  0.12980  1.0000
  H   H450      1.0  0.30198  0.95516  0.24935  1.0000
  S   S155      1.0  0.32251  0.87732  0.24912  1.0000
  Fe  Fe82      1.0  0.33634  0.97846  0.15188  1.0000
  H   H451      1.0  0.23439  0.86724  0.33197  1.0000
  H   H452      1.0  0.19180  0.83037  0.17064  1.0000
  H   H453      1.0  0.13538  0.82758  0.25180  1.0000
  S   S156      1.0  0.31334  0.96615  0.14518  1.0000
  C   C455      1.0  0.29328  0.97568  0.07048  1.0000
  Fe  Fe83      1.0  0.31534  0.91029  0.05897  1.0000
  H   H454      1.0  0.08815  0.87012  0.15332  1.0000
  C   C456      1.0  0.17970  0.83686  0.20946  1.0000
  H   H455      1.0  0.19183  0.84345  0.20750  1.0000
  C   C457      1.0  0.17959  0.82943  0.18865  1.0000
  C   C458      1.0  0.25803  0.95074  0.20069  1.0000
  Fe  Fe84      1.0  0.32136  0.89141  0.33828  1.0000
  N   N36       1.0  0.21334  0.95378  0.25920  1.0000
  C   C459      1.0  0.21054  0.96253  0.23407  1.0000
  C   C460      1.0  0.20332  0.94121  0.27155  1.0000
  C   C461      1.0  0.19735  0.95876  0.22073  1.0000
  C   C462      1.0  0.19023  0.93698  0.25870  1.0000
  C   C463      1.0  0.18731  0.94580  0.23305  1.0000
  H   H456      1.0  0.24335  0.94904  0.26749  1.0000
  H   H457      1.0  0.12277  0.75475  0.33725  1.0000
  H   H458      1.0  0.20563  0.93424  0.29131  1.0000
  C   C464      1.0  0.32167  0.98013  0.25962  1.0000
  H   H459      1.0  0.18273  0.92674  0.26843  1.0000
  H   H460      1.0  0.17770  0.94238  0.22240  1.0000
  C   C465      1.0  0.33149  0.92482  0.40245  1.0000
  Fe  Fe85      1.0  0.04896  0.81664  0.19084  1.0000
  H   H461      1.0  0.23073  0.96965  0.26486  1.0000
  N   N37       1.0  0.26929  0.92347  0.13540  1.0000
  C   C466      1.0  0.28255  0.93083  0.14179  1.0000
  C   C467      1.0  0.27437  0.90150  0.17307  1.0000
  C   C468      1.0  0.29173  0.92383  0.16431  1.0000
  C   C469      1.0  0.28742  0.90915  0.18016  1.0000
  H   H462      1.0  0.28561  0.94241  0.13002  1.0000
  C   C470      1.0  0.31888  0.91356  0.41570  1.0000
  H   H463      1.0  0.25934  0.85554  0.33688  1.0000
  S   S157      1.0  0.31172  0.91801  0.33344  1.0000
  H   H464      1.0  0.32741  0.97046  0.01866  1.0000
  C   C471      1.0  0.02962  0.76498  0.13951  1.0000
  H   H465      1.0  0.03932  0.84218  0.13622  1.0000
  S   S158      1.0  0.29619  0.88825  0.32030  1.0000
  H   H466      1.0  0.02099  0.77893  0.03238  1.0000
  S   S159      1.0  0.30817  0.91851  0.27098  1.0000
  C   C472      1.0  0.32764  0.91339  0.45809  1.0000
  H   H467      1.0  0.29349  0.86103  0.23978  1.0000
  H   H468      1.0  0.27404  0.98811  0.04158  1.0000
  H   H469      1.0  0.00642  0.81692  0.05814  1.0000
  H   H470      1.0  0.32567  0.98939  0.02651  1.0000
  H   H471      1.0  0.04261  0.76088  0.12440  1.0000
  H   H472      1.0  0.31319  0.95999  0.09631  1.0000
  H   H473      1.0  0.31128  0.90884  0.40411  1.0000
  H   H474      1.0  0.32634  0.90859  0.47974  1.0000
  S   S160      1.0  0.04778  0.75332  0.99994  1.0000
  H   H475      1.0  0.01868  0.77926  0.19734  1.0000
  H   H476      1.0  0.31232  0.93565  0.08163  1.0000
  C   C473      1.0  0.13055  0.74452  0.35006  1.0000
  H   H477      1.0  0.04847  0.76968  0.16338  1.0000
  H   H478      1.0  0.00685  0.76170  0.12005  1.0000
  C   C474      1.0  0.31700  0.90773  0.44367  1.0000
  H   H479      1.0  0.33594  0.90783  0.22647  1.0000
  C   C475      1.0  0.28768  0.98845  0.25105  1.0000
  H   H480      1.0  0.32196  0.84817  0.05154  1.0000
  H   H481      1.0  0.04209  0.74562  0.32099  1.0000
  S   S161      1.0  0.31643  0.98571  0.18964  1.0000
  H   H482      1.0  0.32457  0.84679  0.00340  1.0000
  H   H483      1.0  0.03490  0.86240  0.11637  1.0000
  C   C476      1.0  0.03275  0.85488  0.13724  1.0000
  H   H484      1.0  0.27333  0.98550  0.24999  1.0000
  S   S162      1.0  0.32558  0.88679  0.04571  1.0000
  H   H485      1.0  0.19570  0.96533  0.20040  1.0000
  C   C477      1.0  0.29990  0.95998  0.26788  1.0000
  H   H486      1.0  0.09628  0.74858  0.11723  1.0000
  C   C478      1.0  0.33764  0.88805  0.16693  1.0000
  C   C479      1.0  0.00955  0.76537  0.13714  1.0000
  S   S163      1.0  0.32701  0.87624  0.37855  1.0000
  C   C480      1.0  0.33663  0.97824  0.02266  1.0000
  H   H487      1.0  0.33379  0.92884  0.38051  1.0000
  H   H488      1.0  0.03429  0.86804  0.21740  1.0000
  C   C481      1.0  0.33838  0.84594  0.01090  1.0000
  H   H489      1.0  0.06596  0.74255  0.27865  1.0000
  H   H490      1.0  0.05871  0.76222  0.93031  1.0000
  H   H491      1.0  0.33236  0.80156  0.60192  1.0000
  C   C482      1.0  0.32049  0.75121  0.69303  1.0000
  C   C483      1.0  0.02995  0.75468  0.93403  1.0000
  H   H492      1.0  0.02312  0.75787  0.95363  1.0000
  C   C484      1.0  0.05833  0.75305  0.89567  1.0000
  H   H493      1.0  0.07391  0.75468  0.88553  1.0000
  H   H494      1.0  0.18903  0.74401  0.66607  1.0000
  H   H495      1.0  0.32962  0.74649  0.75782  1.0000
  H   H496      1.0  0.33460  0.89743  0.84774  1.0000
  C   C485      1.0  0.04717  0.74576  0.88448  1.0000
  C   C486      1.0  0.04978  0.75727  0.92084  1.0000
  H   H497      1.0  0.21959  0.74337  0.68440  1.0000
  H   H498      1.0  0.30847  0.76053  0.70027  1.0000
  H   H499      1.0  0.33911  0.78349  0.64566  1.0000
  C   C487      1.0  0.01914  0.74755  0.92208  1.0000
  H   H500      1.0  0.17376  0.75068  0.77808  1.0000
  C   C488      1.0  0.18756  0.74308  0.68773  1.0000
  H   H501      1.0  0.29133  0.75220  0.76997  1.0000
  C   C489      1.0  0.20475  0.74269  0.69808  1.0000
  N   N38       1.0  0.02811  0.74264  0.89814  1.0000
  H   H502      1.0  0.15504  0.74253  0.69756  1.0000
  H   H503      1.0  0.01011  0.74258  0.87020  1.0000
  C   C490      1.0  0.38460  0.03395  0.12505  1.0000
  Fe  Fe86      1.0  0.51852  0.14113  0.19506  1.0000
  S   S164      1.0  0.51584  0.12693  0.23773  1.0000
  S   S165      1.0  0.48828  0.15000  0.18099  1.0000
  Fe  Fe87      1.0  0.56468  0.13798  0.18775  1.0000
  S   S166      1.0  0.56535  0.12359  0.23007  1.0000
  S   S167      1.0  0.59638  0.13979  0.16292  1.0000
  Fe  Fe88      1.0  0.54402  0.11054  0.22124  1.0000
  Fe  Fe89      1.0  0.53740  0.14146  0.24210  1.0000
  S   S168      1.0  0.52905  0.15075  0.28076  1.0000
  S   S169      1.0  0.54531  0.12363  0.17800  1.0000
  S   S170      1.0  0.53815  0.15709  0.20043  1.0000
  Fe  Fe90      1.0  0.42009  0.09592  0.16460  1.0000
  S   S171      1.0  0.40624  0.08388  0.14192  1.0000
  S   S172      1.0  0.45440  0.09462  0.15751  1.0000
  Fe  Fe91      1.0  0.37889  0.10856  0.19683  1.0000
  S   S173      1.0  0.36090  0.09789  0.17731  1.0000
  S   S174      1.0  0.36378  0.12594  0.22419  1.0000
  Fe  Fe92      1.0  0.38571  0.07608  0.18207  1.0000
  S   S175      1.0  0.38116  0.05033  0.19177  1.0000
  Fe  Fe93      1.0  0.38249  0.10628  0.13872  1.0000
  S   S176      1.0  0.37028  0.11810  0.10083  1.0000
  S   S177      1.0  0.40197  0.08598  0.20537  1.0000
  S   S178      1.0  0.39814  0.11912  0.15747  1.0000
  Fe  Fe94      1.0  0.54774  0.22960  0.37383  1.0000
  S   S179      1.0  0.57956  0.21472  0.36877  1.0000
  C   C491      1.0  0.34876  0.14723  0.13847  1.0000
  Fe  Fe95      1.0  0.52655  0.20083  0.39367  1.0000
  S   S180      1.0  0.55637  0.18331  0.39069  1.0000
  S   S181      1.0  0.49568  0.19302  0.40980  1.0000
  Fe  Fe96      1.0  0.56696  0.19982  0.40911  1.0000
  S   S182      1.0  0.58379  0.18924  0.44371  1.0000
  Fe  Fe97      1.0  0.56629  0.19962  0.35075  1.0000
  S   S183      1.0  0.58226  0.19129  0.31158  1.0000
  S   S184      1.0  0.53614  0.21595  0.41554  1.0000
  S   S185      1.0  0.53566  0.21596  0.35229  1.0000
  Fe  Fe98      1.0  0.39297  0.18389  0.30676  1.0000
  S   S186      1.0  0.37890  0.16342  0.33450  1.0000
  Fe  Fe99      1.0  0.43277  0.17303  0.32640  1.0000
  S   S187      1.0  0.42308  0.15141  0.35611  1.0000
  S   S188      1.0  0.46376  0.17973  0.31541  1.0000
  Fe  Fe100     1.0  0.40987  0.14839  0.32249  1.0000
  S   S189      1.0  0.41570  0.12469  0.31032  1.0000
  Fe  Fe101     1.0  0.39308  0.16813  0.36587  1.0000
  S   S190      1.0  0.37420  0.16797  0.40818  1.0000
  S   S191      1.0  0.42251  0.16845  0.29190  1.0000
  S   S192      1.0  0.40416  0.19015  0.33916  1.0000
  N   N39       1.0  0.46307  0.17710  0.08497  1.0000
  C   C492      1.0  0.45004  0.16938  0.07891  1.0000
  C   C493      1.0  0.59456  0.23334  0.28502  1.0000
  H   H504      1.0  0.38748  0.15010  0.28335  1.0000
  Fe  Fe102     1.0  0.53988  0.22310  0.03955  1.0000
  S   S193      1.0  0.50758  0.21884  0.04797  1.0000
  S   S194      1.0  0.55517  0.22049  0.07437  1.0000
  C   C494      1.0  0.56326  0.07232  0.21178  1.0000
  S   S195      1.0  0.44780  0.18792  0.00918  1.0000
  C   C495      1.0  0.39381  0.22490  0.23131  1.0000
  C   C496      1.0  0.47985  0.19283  0.23319  1.0000
  C   C497      1.0  0.50316  0.07496  0.21732  1.0000
  C   C498      1.0  0.47905  0.22165  0.01777  1.0000
  H   H505      1.0  0.46785  0.22594  0.03442  1.0000
  C   C499      1.0  0.34072  0.02538  0.18362  1.0000
  H   H506      1.0  0.46114  0.15297  0.24483  1.0000
  H   H507      1.0  0.36291  0.23251  0.29808  1.0000
  C   C500      1.0  0.37636  0.16480  0.14258  1.0000
  H   H508      1.0  0.33965  0.19522  0.40795  1.0000
  C   C501      1.0  0.36099  0.15497  0.11525  1.0000
  H   H509      1.0  0.43807  0.17612  0.06790  1.0000
  S   S196      1.0  0.63603  0.99922  0.14638  1.0000
  H   H510      1.0  0.63709  0.17455  0.17108  1.0000
  C   C502      1.0  0.35055  0.03924  0.11526  1.0000
  H   H511      1.0  0.49977  0.18003  0.26125  1.0000
  C   C503      1.0  0.48539  0.19056  0.38366  1.0000
  C   C504      1.0  0.49655  0.19312  0.35702  1.0000
  C   C505      1.0  0.48912  0.19060  0.33603  1.0000
  C   C506      1.0  0.47072  0.18496  0.34168  1.0000
  C   C507      1.0  0.45904  0.18270  0.36824  1.0000
  C   C508      1.0  0.46633  0.18563  0.38931  1.0000
  H   H512      1.0  0.51126  0.19657  0.35254  1.0000
  H   H513      1.0  0.49806  0.19250  0.31544  1.0000
  H   H514      1.0  0.44476  0.17827  0.37262  1.0000
  H   H515      1.0  0.45759  0.18355  0.40998  1.0000
  H   H516      1.0  0.44914  0.22071  0.38650  1.0000
  C   C509      1.0  0.39000  0.12554  0.07539  1.0000
  C   C510      1.0  0.38508  0.13716  0.05279  1.0000
  C   C511      1.0  0.40075  0.14357  0.03280  1.0000
  C   C512      1.0  0.42137  0.13803  0.03498  1.0000
  C   C513      1.0  0.42631  0.12621  0.05735  1.0000
  C   C514      1.0  0.41061  0.12019  0.07782  1.0000
  H   H517      1.0  0.63587  0.07169  0.14759  1.0000
  H   H518      1.0  0.39689  0.15253  0.01543  1.0000
  H   H519      1.0  0.44227  0.12182  0.05900  1.0000
  H   H520      1.0  0.41452  0.11123  0.09523  1.0000
  C   C515      1.0  0.37784  0.12540  0.24863  1.0000
  C   C516      1.0  0.39019  0.11118  0.25913  1.0000
  C   C517      1.0  0.40132  0.11093  0.27868  1.0000
  C   C518      1.0  0.40048  0.12498  0.28735  1.0000
  C   C519      1.0  0.38817  0.13921  0.27682  1.0000
  C   C520      1.0  0.37668  0.13937  0.25771  1.0000
  H   H521      1.0  0.39071  0.10028  0.25279  1.0000
  H   H522      1.0  0.41062  0.09986  0.28706  1.0000
  C   C521      1.0  0.56799  0.07901  0.18398  1.0000
  H   H523      1.0  0.56109  0.09113  0.17620  1.0000
  H   H524      1.0  0.58559  0.07525  0.14461  1.0000
  C   C522      1.0  0.54413  0.16255  0.28744  1.0000
  C   C523      1.0  0.56325  0.16512  0.27097  1.0000
  C   C524      1.0  0.57501  0.17406  0.27821  1.0000
  C   C525      1.0  0.56771  0.18029  0.30198  1.0000
  C   C526      1.0  0.54864  0.17771  0.31817  1.0000
  C   C527      1.0  0.53685  0.16908  0.31072  1.0000
  H   H525      1.0  0.56906  0.16005  0.25298  1.0000
  H   H526      1.0  0.58985  0.17597  0.26567  1.0000
  H   H527      1.0  0.54307  0.18228  0.33662  1.0000
  H   H528      1.0  0.52205  0.16728  0.32329  1.0000
  C   C528      1.0  0.59862  0.15335  0.13157  1.0000
  C   C529      1.0  0.58199  0.16511  0.12428  1.0000
  C   C530      1.0  0.58514  0.17689  0.10028  1.0000
  C   C531      1.0  0.60486  0.17677  0.08373  1.0000
  C   C532      1.0  0.62119  0.16467  0.09070  1.0000
  C   C533      1.0  0.61808  0.15299  0.11452  1.0000
  H   H529      1.0  0.56689  0.16538  0.13741  1.0000
  H   H530      1.0  0.57244  0.18615  0.09484  1.0000
  S   S197      1.0  0.44104  0.14593  0.01007  1.0000
  H   H531      1.0  0.63093  0.14387  0.12003  1.0000
  C   C534      1.0  0.47855  0.13442  0.17559  1.0000
  C   C535      1.0  0.45747  0.13619  0.17612  1.0000
  C   C536      1.0  0.44977  0.12401  0.17080  1.0000
  C   C537      1.0  0.46324  0.11022  0.16422  1.0000
  C   C538      1.0  0.48432  0.10857  0.16343  1.0000
  C   C539      1.0  0.49189  0.12050  0.16951  1.0000
  H   H532      1.0  0.44704  0.14692  0.18081  1.0000
  H   H533      1.0  0.43347  0.12532  0.17177  1.0000
  H   H534      1.0  0.49481  0.09796  0.15828  1.0000
  H   H535      1.0  0.50816  0.11907  0.16871  1.0000
  H   H536      1.0  0.51413  0.08190  0.20189  1.0000
  H   H537      1.0  0.41052  0.18194  0.40032  1.0000
  C   C540      1.0  0.48942  0.24071  0.39971  1.0000
  H   H538      1.0  0.53057  0.20920  0.99785  1.0000
  C   C541      1.0  0.58237  0.21937  0.45167  1.0000
  C   C542      1.0  0.58872  0.20286  0.45999  1.0000
  C   C543      1.0  0.59808  0.19701  0.48266  1.0000
  C   C544      1.0  0.36815  0.02836  0.12128  1.0000
  H   H539      1.0  0.38752  0.22559  0.30780  1.0000
  H   H540      1.0  0.57526  0.22399  0.43410  1.0000
  H   H541      1.0  0.60315  0.18426  0.48903  1.0000
  H   H542      1.0  0.61944  0.05878  0.23449  1.0000
  C   C545      1.0  0.42035  0.23670  0.04224  1.0000
  C   C546      1.0  0.43180  0.22042  0.24617  1.0000
  Fe  Fe103     1.0  0.62099  0.01793  0.17149  1.0000
  H   H543      1.0  0.37958  0.08195  0.10325  1.0000
  H   H544      1.0  0.43233  0.16735  0.22446  1.0000
  H   H545      1.0  0.40012  0.17553  0.09720  1.0000
  H   H546      1.0  0.59819  0.10836  0.14303  1.0000
  C   C547      1.0  0.47378  0.23391  0.36824  1.0000
  C   C548      1.0  0.57197  0.05640  0.22145  1.0000
  H   H547      1.0  0.59846  0.08606  0.23526  1.0000
  H   H548      1.0  0.59690  0.10589  0.19204  1.0000
  C   C549      1.0  0.62949  0.17068  0.15785  1.0000
  H   H549      1.0  0.62230  0.16021  0.16978  1.0000
  H   H550      1.0  0.47708  0.23241  0.44198  1.0000
  S   S198      1.0  0.39981  0.20547  0.48031  1.0000
  H   H551      1.0  0.59331  0.03536  0.21141  1.0000
  H   H552      1.0  0.44586  0.22192  0.45842  1.0000
  C   C550      1.0  0.35846  0.04551  0.18786  1.0000
  H   H553      1.0  0.37773  0.18204  0.08222  1.0000
  H   H554      1.0  0.44871  0.20014  0.09269  1.0000
  H   H555      1.0  0.47522  0.19877  0.07439  1.0000
  C   C551      1.0  0.48833  0.17932  0.25051  1.0000
  C   C552      1.0  0.34124  0.05730  0.18312  1.0000
  C   C553      1.0  0.46049  0.19459  0.07706  1.0000
  N   N40       1.0  0.50822  0.14172  0.35941  1.0000
  C   C554      1.0  0.50481  0.15041  0.37908  1.0000
  C   C555      1.0  0.52780  0.13467  0.34922  1.0000
  C   C556      1.0  0.52127  0.15263  0.38850  1.0000
  C   C557      1.0  0.54465  0.13657  0.35825  1.0000
  C   C558      1.0  0.54133  0.14573  0.37785  1.0000
  C   C559      1.0  0.49115  0.14099  0.34750  1.0000
  H   H556      1.0  0.48934  0.15600  0.38717  1.0000
  H   H557      1.0  0.53057  0.12821  0.33301  1.0000
  H   H558      1.0  0.51850  0.15999  0.40345  1.0000
  H   H559      1.0  0.56021  0.13153  0.34926  1.0000
  H   H560      1.0  0.55429  0.14775  0.38439  1.0000
  H   H561      1.0  0.47586  0.14522  0.35976  1.0000
  H   H562      1.0  0.49235  0.14887  0.32685  1.0000
  H   H563      1.0  0.49162  0.12857  0.34576  1.0000
  N   N41       1.0  0.48551  0.08598  0.22917  1.0000
  C   C560      1.0  0.46641  0.08744  0.22373  1.0000
  C   C561      1.0  0.44988  0.09873  0.23355  1.0000
  C   C562      1.0  0.47232  0.10655  0.25523  1.0000
  C   C563      1.0  0.45298  0.10843  0.24916  1.0000
  H   H564      1.0  0.46394  0.08022  0.21107  1.0000
  H   H565      1.0  0.43488  0.10015  0.22862  1.0000
  H   H566      1.0  0.47471  0.11389  0.26772  1.0000
  H   H567      1.0  0.44045  0.11741  0.25656  1.0000
  H   H568      1.0  0.49842  0.06705  0.20722  1.0000
  N   N42       1.0  0.61630  0.09000  0.16738  1.0000
  C   C564      1.0  0.60627  0.09411  0.19166  1.0000
  C   C565      1.0  0.58243  0.23352  0.24506  1.0000
  C   C566      1.0  0.44734  0.21799  0.43919  1.0000
  H   H569      1.0  0.36133  0.08047  0.13529  1.0000
  H   H570      1.0  0.48799  0.15442  0.26829  1.0000
  S   S199      1.0  0.54710  0.08375  0.23496  1.0000
  C   C567      1.0  0.48161  0.16490  0.25461  1.0000
  C   C568      1.0  0.48854  0.09523  0.24492  1.0000
  C   C569      1.0  0.35775  0.21370  0.38888  1.0000
  C   C570      1.0  0.58180  0.06996  0.16606  1.0000
  H   H571      1.0  0.42049  0.19658  0.42886  1.0000
  S   S200      1.0  0.61045  0.04395  0.15359  1.0000
  S   S201      1.0  0.56814  0.21197  0.01312  1.0000
  H   H572      1.0  0.38709  0.17164  0.14448  1.0000
  C   C571      1.0  0.62824  0.07515  0.16680  1.0000
  Fe  Fe104     1.0  0.41651  0.20246  0.01991  1.0000
  N   N43       1.0  0.45753  0.17768  0.22537  1.0000
  H   H573      1.0  0.36336  0.19253  0.48613  1.0000
  H   H574      1.0  0.36704  0.15037  0.24978  1.0000
  H   H575      1.0  0.34128  0.06960  0.18305  1.0000
  C   C572      1.0  0.36595  0.22308  0.36414  1.0000
  N   N44       1.0  0.36205  0.22177  0.34022  1.0000
  C   C573      1.0  0.36429  0.15725  0.16624  1.0000
  C   C574      1.0  0.60730  0.08300  0.21618  1.0000
  C   C575      1.0  0.59424  0.18608  0.16195  1.0000
  H   H576      1.0  0.36870  0.01560  0.12416  1.0000
  C   C576      1.0  0.35798  0.02950  0.18860  1.0000
  Fe  Fe105     1.0  0.58404  0.21190  0.04606  1.0000
  H   H577      1.0  0.40864  0.21927  0.10925  1.0000
  C   C577      1.0  0.41456  0.22520  0.06539  1.0000
  H   H578      1.0  0.63538  0.19282  0.11199  1.0000
  H   H579      1.0  0.56374  0.20058  0.16416  1.0000
  C   C578      1.0  0.61979  0.19461  0.12383  1.0000
  H   H580      1.0  0.60997  0.21581  0.09496  1.0000
  H   H581      1.0  0.48790  0.17476  0.10481  1.0000
  H   H582      1.0  0.57404  0.22013  0.12144  1.0000
  C   C579      1.0  0.62980  0.06380  0.19095  1.0000
  H   H583      1.0  0.44790  0.17447  0.19171  1.0000
  H   H584      1.0  0.58963  0.17751  0.18044  1.0000
  C   C580      1.0  0.49998  0.21772  0.01879  1.0000
  H   H585      1.0  0.37912  0.22664  0.22548  1.0000
  H   H586      1.0  0.64136  0.16645  0.14090  1.0000
  H   H587      1.0  0.44639  0.21874  0.25220  1.0000
  H   H588      1.0  0.37123  0.02031  0.19236  1.0000
  C   C581      1.0  0.40908  0.23343  0.21473  1.0000
  Fe  Fe106     1.0  0.57404  0.23706  0.99734  1.0000
  H   H589      1.0  0.51146  0.06726  0.23333  1.0000
  H   H590      1.0  0.50363  0.09395  0.24942  1.0000
  S   S202      1.0  0.37878  0.20303  0.27557  1.0000
  C   C582      1.0  0.41314  0.22811  0.09124  1.0000
  C   C583      1.0  0.38154  0.17875  0.42737  1.0000
  H   H591      1.0  0.34126  0.14225  0.18231  1.0000
  N   N45       1.0  0.37475  0.16344  0.11750  1.0000
  H   H592      1.0  0.39798  0.02557  0.13097  1.0000
  S   S203      1.0  0.61024  0.19211  0.05535  1.0000
  H   H593      1.0  0.56837  0.05114  0.24293  1.0000
  H   H594      1.0  0.46889  0.13101  0.10736  1.0000
  C   C584      1.0  0.42816  0.23112  0.22206  1.0000
  N   N46       1.0  0.46114  0.22640  0.41643  1.0000
  C   C585      1.0  0.46013  0.22663  0.39032  1.0000
  C   C586      1.0  0.37132  0.23140  0.31450  1.0000
  H   H595      1.0  0.47330  0.23367  0.34762  1.0000
  C   C587      1.0  0.34230  0.20124  0.36444  1.0000
  H   H596      1.0  0.64464  0.24027  0.22040  1.0000
  Fe  Fe107     1.0  0.43197  0.17239  0.99651  1.0000
  H   H597      1.0  0.62455  0.11055  0.13857  1.0000
  H   H598      1.0  0.41978  0.20351  0.28099  1.0000
  C   C588      1.0  0.59110  0.05423  0.17585  1.0000
  C   C589      1.0  0.38737  0.17137  0.09271  1.0000
  C   C590      1.0  0.61908  0.06772  0.21575  1.0000
  C   C591      1.0  0.58007  0.23009  0.27332  1.0000
  H   H599      1.0  0.44196  0.14659  0.08126  1.0000
  C   C592      1.0  0.38324  0.05039  0.12255  1.0000
  C   C593      1.0  0.47784  0.16864  0.09946  1.0000
  H   H600      1.0  0.36586  0.15796  0.18623  1.0000
  C   C594      1.0  0.46451  0.19175  0.22049  1.0000
  C   C595      1.0  0.40025  0.18430  0.41898  1.0000
  S   S204      1.0  0.64386  0.01020  0.19890  1.0000
  C   C596      1.0  0.34570  0.20284  0.38897  1.0000
  C   C597      1.0  0.44109  0.17693  0.21237  1.0000
  H   H601      1.0  0.48476  0.20417  0.23007  1.0000
  C   C598      1.0  0.58600  0.04740  0.20357  1.0000
  H   H602      1.0  0.36916  0.14127  0.05081  1.0000
  C   C599      1.0  0.36480  0.07807  0.11449  1.0000
  H   H603      1.0  0.36108  0.21454  0.40785  1.0000
  C   C600      1.0  0.36823  0.18190  0.45148  1.0000
  H   H604      1.0  0.63839  0.05177  0.19024  1.0000
  H   H605      1.0  0.59289  0.23061  0.30699  1.0000
  H   H606      1.0  0.63642  0.16450  0.07788  1.0000
  C   C601      1.0  0.61434  0.10174  0.14199  1.0000
  C   C602      1.0  0.46723  0.14396  0.10108  1.0000
  H   H607      1.0  0.49205  0.14530  0.11890  1.0000
  C   C603      1.0  0.60547  0.20771  0.11412  1.0000
  H   H608      1.0  0.43152  0.22034  0.43510  1.0000
  H   H609      1.0  0.45537  0.19906  0.05730  1.0000
  C   C604      1.0  0.39767  0.21395  0.25510  1.0000
  S   S205      1.0  0.59815  0.00346  0.19937  1.0000
  C   C605      1.0  0.48023  0.15196  0.10755  1.0000
  H   H610      1.0  0.42977  0.18838  0.21091  1.0000
  S   S206      1.0  0.40040  0.18569  0.01020  1.0000
  C   C606      1.0  0.58492  0.22993  0.46643  1.0000
  S   S207      1.0  0.40900  0.20714  0.06250  1.0000
  C   C607      1.0  0.59366  0.22402  0.48965  1.0000
  C   C608      1.0  0.39267  0.19546  0.45961  1.0000
  H   H611      1.0  0.45331  0.20488  0.44244  1.0000
  H   H612      1.0  0.45788  0.20234  0.20719  1.0000
  C   C609      1.0  0.37377  0.19020  0.46756  1.0000
  C   C610      1.0  0.45204  0.15270  0.08662  1.0000
  S   S208      1.0  0.59213  0.23628  0.02847  1.0000
  H   H613      1.0  0.42143  0.23460  0.02226  1.0000
  N   N47       1.0  0.61406  0.18396  0.14740  1.0000
  C   C611      1.0  0.58526  0.21001  0.12884  1.0000
  C   C612      1.0  0.40585  0.19261  0.43514  1.0000
  C   C613      1.0  0.57953  0.19909  0.15285  1.0000
  H   H614      1.0  0.35261  0.08566  0.10362  1.0000
  C   C614      1.0  0.41668  0.21178  0.26254  1.0000
  C   C615      1.0  0.46626  0.16423  0.24158  1.0000
  Fe  Fe108     1.0  0.62206  0.99421  0.22501  1.0000
  S   S209      1.0  0.44809  0.24074  0.20087  1.0000
  H   H615      1.0  0.61827  0.09589  0.12426  1.0000
  C   C616      1.0  0.48841  0.24108  0.37304  1.0000
  N   N48       1.0  0.36608  0.06098  0.11614  1.0000
  H   H616      1.0  0.57130  0.23091  0.23583  1.0000
  H   H617      1.0  0.56719  0.22473  0.28623  1.0000
  H   H618      1.0  0.39571  0.05457  0.12668  1.0000
  C   C617      1.0  0.35062  0.21088  0.34010  1.0000
  C   C618      1.0  0.59931  0.24025  0.22885  1.0000
  H   H619      1.0  0.35352  0.17797  0.45769  1.0000
  H   H620      1.0  0.39436  0.16303  0.07857  1.0000
  H   H621      1.0  0.45624  0.22287  0.99483  1.0000
  C   C619      1.0  0.51442  0.21247  0.99698  1.0000
  H   H622      1.0  0.35968  0.15387  0.09541  1.0000
  H   H623      1.0  0.56100  0.99733  0.24338  1.0000
  C   C620      1.0  0.35044  0.14840  0.16409  1.0000
  C   C621      1.0  0.47574  0.23311  0.42132  1.0000
  H   H624      1.0  0.34807  0.20942  0.32111  1.0000
  H   H625      1.0  0.37562  0.23128  0.36417  1.0000
  C   C622      1.0  0.61123  0.24009  0.26824  1.0000
  C   C623      1.0  0.34972  0.05559  0.11291  1.0000
  H   H626      1.0  0.34073  0.01306  0.18358  1.0000
  H   H627      1.0  0.33995  0.99866  0.25038  1.0000
  C   C624      1.0  0.47247  0.21988  0.99538  1.0000
  H   H628      1.0  0.40617  0.24156  0.19609  1.0000
  H   H629      1.0  0.36307  0.15022  0.48920  1.0000
  S   S210      1.0  0.61367  0.99263  0.27014  1.0000
  H   H630      1.0  0.53934  0.22731  0.48783  1.0000
  Fe  Fe109     1.0  0.38203  0.16229  0.78225  1.0000
  H   H631      1.0  0.42569  0.15811  0.61686  1.0000
  S   S211      1.0  0.60097  0.20367  0.57486  1.0000
  C   C625      1.0  0.54449  0.22906  0.52635  1.0000
  Fe  Fe110     1.0  0.60825  0.22657  0.54686  1.0000
  Fe  Fe111     1.0  0.59611  0.21688  0.60828  1.0000
  S   S212      1.0  0.57153  0.21357  0.64598  1.0000
  S   S213      1.0  0.56467  0.21579  0.79601  1.0000
  S   S214      1.0  0.55310  0.22247  0.87057  1.0000
  H   H632      1.0  0.43201  0.14204  0.64463  1.0000
  C   C626      1.0  0.44574  0.02214  0.68975  1.0000
  C   C627      1.0  0.42130  0.15345  0.63910  1.0000
  C   C628      1.0  0.65288  0.24073  0.70365  1.0000
  S   S215      1.0  0.61026  0.12688  0.67949  1.0000
  H   H633      1.0  0.58172  0.01696  0.57548  1.0000
  H   H634      1.0  0.65028  0.12313  0.64384  1.0000
  S   S216      1.0  0.35365  0.10001  0.71943  1.0000
  C   C629      1.0  0.64616  0.16468  0.67548  1.0000
  H   H635      1.0  0.37023  0.13885  0.70013  1.0000
  Fe  Fe112     1.0  0.36797  0.11087  0.67700  1.0000
  Fe  Fe113     1.0  0.54112  0.01016  0.66899  1.0000
  S   S217      1.0  0.39928  0.11670  0.67041  1.0000
  H   H636      1.0  0.59671  0.99390  0.75324  1.0000
  H   H637      1.0  0.38249  0.12636  0.58196  1.0000
  H   H638      1.0  0.64740  0.20395  0.66917  1.0000
  C   C630      1.0  0.36217  0.20292  0.69014  1.0000
  S   S218      1.0  0.36168  0.09301  0.65744  1.0000
  C   C631      1.0  0.59595  0.23944  0.68009  1.0000
  Fe  Fe114     1.0  0.40504  0.20047  0.96757  1.0000
  H   H639      1.0  0.59885  0.11490  0.63982  1.0000
  S   S219      1.0  0.37927  0.20543  0.94470  1.0000
  S   S220      1.0  0.39598  0.18417  0.76298  1.0000
  N   N49       1.0  0.40639  0.16091  0.90307  1.0000
  S   S221      1.0  0.47819  0.21113  0.94689  1.0000
  H   H640      1.0  0.57558  0.10204  0.62549  1.0000
  S   S222      1.0  0.43570  0.18569  0.95321  1.0000
  Fe  Fe115     1.0  0.34523  0.08323  0.69949  1.0000
  C   C632      1.0  0.64198  0.13496  0.63761  1.0000
  S   S223      1.0  0.58925  0.04561  0.66520  1.0000
  S   S224      1.0  0.35099  0.17325  0.77211  1.0000
  H   H641      1.0  0.34060  0.10376  0.56138  1.0000
  C   C633      1.0  0.52725  0.00445  0.58324  1.0000
  Fe  Fe116     1.0  0.63370  0.23223  0.58288  1.0000
  Fe  Fe117     1.0  0.59321  0.22527  0.77234  1.0000
  H   H642      1.0  0.41375  0.20515  0.65013  1.0000
  S   S225      1.0  0.36817  0.18273  0.54524  1.0000
  H   H643      1.0  0.55944  0.19802  0.57482  1.0000
  H   H644      1.0  0.36269  0.21173  0.62200  1.0000
  C   C634      1.0  0.50248  0.19764  0.85329  1.0000
  C   C635      1.0  0.59121  0.09594  0.62678  1.0000
  C   C636      1.0  0.62320  0.20710  0.88199  1.0000
  H   H645      1.0  0.54478  0.21609  0.92842  1.0000
  C   C637      1.0  0.58362  0.00446  0.57305  1.0000
  H   H646      1.0  0.41687  0.18528  0.62237  1.0000
  S   S226      1.0  0.37799  0.01207  0.63336  1.0000
  C   C638      1.0  0.62482  0.12713  0.79413  1.0000
  H   H647      1.0  0.60134  0.19019  0.92488  1.0000
  S   S227      1.0  0.54807  0.02031  0.70050  1.0000
  N   N50       1.0  0.35584  0.13923  0.53104  1.0000
  C   C639      1.0  0.63826  0.00413  0.76487  1.0000
  S   S228      1.0  0.35456  0.20415  0.79586  1.0000
  C   C640      1.0  0.63112  0.02057  0.76236  1.0000
  C   C641      1.0  0.62412  0.09487  0.63731  1.0000
  N   N51       1.0  0.42154  0.16512  0.65479  1.0000
  H   H648      1.0  0.42180  0.16669  0.71919  1.0000
  C   C642      1.0  0.37155  0.17879  0.67182  1.0000
  H   H649      1.0  0.62527  0.02299  0.68055  1.0000
  H   H650      1.0  0.51108  0.23045  0.90921  1.0000
  S   S229      1.0  0.40073  0.13834  0.77663  1.0000
  H   H651      1.0  0.42909  0.16748  0.86806  1.0000
  S   S230      1.0  0.59419  0.23730  0.50972  1.0000
  C   C643      1.0  0.36782  0.18626  0.69391  1.0000
  Fe  Fe118     1.0  0.56325  0.99522  0.71617  1.0000
  C   C644      1.0  0.35571  0.05061  0.66785  1.0000
  C   C645      1.0  0.36783  0.01759  0.68554  1.0000
  C   C646      1.0  0.36852  0.02405  0.65782  1.0000
  H   H652      1.0  0.35518  0.16396  0.51218  1.0000
  C   C647      1.0  0.35397  0.12814  0.81357  1.0000
  C   C648      1.0  0.60053  0.20755  0.49749  1.0000
  H   H653      1.0  0.37212  0.00483  0.69251  1.0000
  H   H654      1.0  0.47978  0.01398  0.62892  1.0000
  H   H655      1.0  0.50721  0.18972  0.80684  1.0000
  H   H656      1.0  0.37963  0.16477  0.97671  1.0000
  H   H657      1.0  0.65600  0.07373  0.65235  1.0000
  C   C649      1.0  0.37242  0.12623  0.56880  1.0000
  S   S231      1.0  0.62870  0.20990  0.61375  1.0000
  C   C650      1.0  0.50080  0.20019  0.87939  1.0000
  C   C651      1.0  0.45370  0.03608  0.68568  1.0000
  H   H658      1.0  0.33982  0.14604  0.83792  1.0000
  H   H659      1.0  0.40612  0.16486  0.86055  1.0000
  H   H660      1.0  0.37110  0.14804  0.74123  1.0000
  H   H661      1.0  0.65274  0.05814  0.63858  1.0000
  C   C652      1.0  0.54590  0.00789  0.58481  1.0000
  H   H662      1.0  0.53201  0.19584  0.79735  1.0000
  C   C653      1.0  0.36922  0.13904  0.54695  1.0000
  C   C654      1.0  0.62630  0.16449  0.69143  1.0000
  C   C655      1.0  0.38690  0.20468  0.90995  1.0000
  C   C656      1.0  0.37219  0.20430  0.89549  1.0000
  C   C657      1.0  0.42286  0.15997  0.68159  1.0000
  N   N52       1.0  0.55016  0.22090  0.55037  1.0000
  S   S232      1.0  0.35730  0.21243  0.71769  1.0000
  C   C658      1.0  0.40040  0.13308  0.74641  1.0000
  C   C659      1.0  0.41661  0.12174  0.73616  1.0000
  C   C660      1.0  0.41646  0.11697  0.71243  1.0000
  C   C661      1.0  0.39975  0.12314  0.69944  1.0000
  C   C662      1.0  0.38328  0.13422  0.71000  1.0000
  S   S233      1.0  0.37705  0.21584  0.55469  1.0000
  H   H663      1.0  0.42937  0.11668  0.74652  1.0000
  H   H664      1.0  0.42907  0.10825  0.70447  1.0000
  H   H665      1.0  0.56798  0.01648  0.75548  1.0000
  H   H666      1.0  0.62023  0.15345  0.69714  1.0000
  C   C663      1.0  0.51792  0.19516  0.89162  1.0000
  Fe  Fe119     1.0  0.57544  0.21687  0.83288  1.0000
  C   C664      1.0  0.62460  0.03417  0.68621  1.0000
  C   C665      1.0  0.60819  0.04684  0.68186  1.0000
  C   C666      1.0  0.60760  0.06134  0.68890  1.0000
  C   C667      1.0  0.62350  0.06333  0.69977  1.0000
  H   H667      1.0  0.41741  0.15466  0.96551  1.0000
  H   H668      1.0  0.59495  0.07119  0.68553  1.0000
  H   H669      1.0  0.62297  0.07465  0.70474  1.0000
  C   C668      1.0  0.49722  0.00354  0.66060  1.0000
  C   C669      1.0  0.41778  0.15683  0.92293  1.0000
  C   C670      1.0  0.48216  0.00420  0.64601  1.0000
  S   S234      1.0  0.65287  0.12396  0.71742  1.0000
  H   H670      1.0  0.65785  0.14016  0.76086  1.0000
  C   C671      1.0  0.41877  0.18113  0.64333  1.0000
  C   C672      1.0  0.58816  0.23465  0.70793  1.0000
  N   N53       1.0  0.56418  0.00103  0.57061  1.0000
  C   C673      1.0  0.59075  0.23301  0.66112  1.0000
  C   C674      1.0  0.57715  0.22216  0.66976  1.0000
  C   C675      1.0  0.56881  0.21771  0.69753  1.0000
  H   H671      1.0  0.66474  0.21816  0.62489  1.0000
  H   H672      1.0  0.48912  0.20174  0.84385  1.0000
  H   H673      1.0  0.41297  0.00834  0.67011  1.0000
  H   H674      1.0  0.37037  0.10946  0.76315  1.0000
  C   C676      1.0  0.41693  0.19245  0.65896  1.0000
  C   C677      1.0  0.61117  0.15516  0.64234  1.0000
  C   C678      1.0  0.62109  0.16593  0.62105  1.0000
  H   H675      1.0  0.59559  0.15901  0.65274  1.0000
  H   H676      1.0  0.61310  0.17799  0.61530  1.0000
  H   H677      1.0  0.54798  0.19763  0.49733  1.0000
  C   C679      1.0  0.41805  0.18728  0.68640  1.0000
  H   H678      1.0  0.55814  0.20943  0.70429  1.0000
  H   H679      1.0  0.36696  0.20165  0.85753  1.0000
  H   H680      1.0  0.44757  0.06187  0.67442  1.0000
  C   C680      1.0  0.64012  0.05080  0.70376  1.0000
  H   H681      1.0  0.46914  0.03528  0.68881  1.0000
  C   C681      1.0  0.60422  0.10311  0.63494  1.0000
  N   N54       1.0  0.62100  0.20754  0.91066  1.0000
  S   S235      1.0  0.64521  0.11075  0.79352  1.0000
  S   S236      1.0  0.57507  0.17198  0.78925  1.0000
  C   C682      1.0  0.53758  0.18523  0.85174  1.0000
  C   C683      1.0  0.62435  0.13882  0.80837  1.0000
  H   H682      1.0  0.65350  0.02649  0.69990  1.0000
  C   C684      1.0  0.60941  0.19779  0.93040  1.0000
  H   H683      1.0  0.59712  0.23663  0.63972  1.0000
  H   H684      1.0  0.48636  0.20609  0.89010  1.0000
  C   C685      1.0  0.56389  0.22859  0.93982  1.0000
  S   S237      1.0  0.64219  0.22050  0.54691  1.0000
  C   C686      1.0  0.36214  0.04053  0.64910  1.0000
  H   H685      1.0  0.36393  0.10362  0.59128  1.0000
  C   C687      1.0  0.52247  0.18762  0.81248  1.0000
  H   H686      1.0  0.42373  0.14747  0.87346  1.0000
  H   H687      1.0  0.40556  0.00756  0.70638  1.0000
  H   H688      1.0  0.63523  0.19678  0.87669  1.0000
  S   S238      1.0  0.34974  0.05695  0.71870  1.0000
  S   S239      1.0  0.57059  0.01409  0.63963  1.0000
  H   H689      1.0  0.43044  0.99734  0.69198  1.0000
  H   H690      1.0  0.64044  0.22483  0.90202  1.0000
  C   C688      1.0  0.34606  0.12656  0.53555  1.0000
  C   C689      1.0  0.57916  0.02479  0.74654  1.0000
  Fe  Fe120     1.0  0.63420  0.19872  0.57790  1.0000
  Fe  Fe121     1.0  0.36602  0.19364  0.58068  1.0000
  Fe  Fe122     1.0  0.34330  0.22544  0.55562  1.0000
  C   C690      1.0  0.66845  0.14718  0.76247  1.0000
  Fe  Fe123     1.0  0.65887  0.07886  0.71949  1.0000
  H   H691      1.0  0.63395  0.10048  0.64406  1.0000
  S   S240      1.0  0.66024  0.05326  0.71716  1.0000
  H   H692      1.0  0.54999  0.18407  0.88681  1.0000
  H   H693      1.0  0.55644  0.22204  0.58846  1.0000
  H   H694      1.0  0.67063  0.18553  0.76198  1.0000
  C   C691      1.0  0.55469  0.20452  0.55596  1.0000
  C   C692      1.0  0.61148  0.02715  0.75668  1.0000
  C   C693      1.0  0.59319  0.17803  0.71405  1.0000
  H   H695      1.0  0.45506  0.01066  0.69660  1.0000
  H   H696      1.0  0.64095  0.02829  0.76396  1.0000
  H   H697      1.0  0.40549  0.15075  0.64342  1.0000
  C   C694      1.0  0.60986  0.12919  0.77873  1.0000
  C   C695      1.0  0.62192  0.19213  0.69135  1.0000
  H   H698      1.0  0.58893  0.18590  0.72909  1.0000
  H   H699      1.0  0.55208  0.17948  0.84097  1.0000
  H   H700      1.0  0.35612  0.20519  0.90546  1.0000
  Fe  Fe124     1.0  0.36417  0.19577  0.75634  1.0000
  H   H701      1.0  0.51290  0.00970  0.59501  1.0000
  C   C696      1.0  0.59832  0.08077  0.62069  1.0000
  H   H702      1.0  0.38308  0.10824  0.79005  1.0000
  H   H703      1.0  0.37640  0.16908  0.89367  1.0000
  Fe  Fe125     1.0  0.63482  0.11165  0.70135  1.0000
  C   C697      1.0  0.59404  0.15465  0.79164  1.0000
  H   H704      1.0  0.36951  0.17911  0.71376  1.0000
  C   C698      1.0  0.36215  0.11342  0.57392  1.0000
  C   C699      1.0  0.41684  0.16005  0.87497  1.0000
  N   N55       1.0  0.42667  0.02296  0.68478  1.0000
  C   C700      1.0  0.42200  0.05169  0.67315  1.0000
  C   C701      1.0  0.41477  0.03748  0.67676  1.0000
  N   N56       1.0  0.59925  0.01759  0.75381  1.0000
  H   H705      1.0  0.51873  0.20565  0.95854  1.0000
  H   H706      1.0  0.63733  0.22517  0.95045  1.0000
  C   C702      1.0  0.65164  0.14550  0.61578  1.0000
  C   C703      1.0  0.36009  0.21205  0.66422  1.0000
  Fe  Fe126     1.0  0.37584  0.20598  0.51916  1.0000
  H   H707      1.0  0.51688  0.19726  0.91171  1.0000
  H   H708      1.0  0.58570  0.24039  0.86234  1.0000
  H   H709      1.0  0.41594  0.19596  0.69895  1.0000
  C   C704      1.0  0.65170  0.07134  0.63462  1.0000
  C   C705      1.0  0.44168  0.05095  0.67744  1.0000
  H   H710      1.0  0.35914  0.17175  0.94063  1.0000
  C   C706      1.0  0.37830  0.20227  0.86841  1.0000
  H   H711      1.0  0.60917  0.16186  0.81728  1.0000
  H   H712      1.0  0.64476  0.22841  0.78705  1.0000
  H   H713      1.0  0.41237  0.06318  0.66705  1.0000
  S   S241      1.0  0.66259  0.09691  0.68032  1.0000
  H   H714      1.0  0.56838  0.22005  0.73803  1.0000
  H   H715      1.0  0.56303  0.23793  0.56021  1.0000
  C   C707      1.0  0.41857  0.00832  0.68854  1.0000
  C   C708      1.0  0.50778  0.21056  0.97464  1.0000
  C   C709      1.0  0.52737  0.99382  0.56723  1.0000
  C   C710      1.0  0.39910  0.20099  0.85557  1.0000
  C   C711      1.0  0.41365  0.20197  0.86970  1.0000
  C   C712      1.0  0.64063  0.03621  0.69697  1.0000
  C   C713      1.0  0.57462  0.22372  0.71664  1.0000
  C   C714      1.0  0.61838  0.07292  0.62305  1.0000
  H   H716      1.0  0.62351  0.06092  0.61906  1.0000
  H   H717      1.0  0.58818  0.07483  0.61509  1.0000
  C   C715      1.0  0.54307  0.22080  0.50728  1.0000
  S   S242      1.0  0.65393  0.17439  0.58109  1.0000
  H   H718      1.0  0.53635  0.23741  0.57628  1.0000
  C   C716      1.0  0.48680  0.21416  0.97395  1.0000
  S   S243      1.0  0.37350  0.16737  0.82416  1.0000
  C   C717      1.0  0.37554  0.16709  0.93597  1.0000
  C   C718      1.0  0.38547  0.16571  0.90938  1.0000
  C   C719      1.0  0.55671  0.22324  0.92124  1.0000
  H   H719      1.0  0.64461  0.23655  0.72412  1.0000
  H   H720      1.0  0.61238  0.20301  0.69693  1.0000
  C   C720      1.0  0.56445  0.22751  0.89332  1.0000
  C   C721      1.0  0.62176  0.13973  0.65093  1.0000
  C   C722      1.0  0.60920  0.15273  0.80668  1.0000
  H   H721      1.0  0.63602  0.13732  0.82011  1.0000
  C   C723      1.0  0.64129  0.16106  0.60759  1.0000
  C   C724      1.0  0.40760  0.20373  0.89685  1.0000
  Fe  Fe127     1.0  0.58556  0.19192  0.79850  1.0000
  S   S244      1.0  0.62960  0.09292  0.73945  1.0000
  C   C725      1.0  0.65385  0.17893  0.66741  1.0000
  H   H722      1.0  0.58255  0.18232  0.69950  1.0000
  H   H723      1.0  0.59096  0.16584  0.72565  1.0000
  C   C726      1.0  0.60766  0.19757  0.95796  1.0000
  S   S245      1.0  0.60198  0.22894  0.80911  1.0000
  C   C727      1.0  0.38380  0.13946  0.73319  1.0000
  H   H724      1.0  0.55719  0.22575  0.96123  1.0000
  C   C728      1.0  0.64176  0.19272  0.67563  1.0000
  C   C729      1.0  0.53646  0.18766  0.87773  1.0000
  S   S246      1.0  0.59393  0.19200  0.83748  1.0000
  C   C730      1.0  0.59423  0.14278  0.77795  1.0000
  S   S247      1.0  0.65172  0.19612  0.81897  1.0000
  N   N57       1.0  0.63084  0.07986  0.63180  1.0000
  H   H725      1.0  0.35554  0.22494  0.66123  1.0000
  C   C731      1.0  0.62574  0.99448  0.76172  1.0000
  N   N58       1.0  0.61447  0.17812  0.69910  1.0000
  S   S248      1.0  0.61332  0.20121  0.77209  1.0000
  C   C732      1.0  0.36812  0.10772  0.78561  1.0000
  N   N59       1.0  0.52068  0.19011  0.83994  1.0000
  H   H726      1.0  0.58246  0.14414  0.76644  1.0000
  H   H727      1.0  0.39957  0.03813  0.67309  1.0000
  C   C733      1.0  0.61789  0.20737  0.96524  1.0000
  C   C734      1.0  0.57988  0.23682  0.88394  1.0000
  H   H728      1.0  0.36857  0.12589  0.81996  1.0000
  H   H729      1.0  0.59589  0.00286  0.55480  1.0000
  H   H730      1.0  0.60842  0.20598  0.87785  1.0000
  S   S249      1.0  0.51254  0.01833  0.65090  1.0000
  H   H731      1.0  0.65529  0.15393  0.66886  1.0000
  H   H732      1.0  0.41893  0.20452  0.90752  1.0000
  C   C735      1.0  0.36398  0.20457  0.64205  1.0000
  H   H733      1.0  0.53012  0.17511  0.81102  1.0000
  H   H734      1.0  0.42484  0.14733  0.69072  1.0000
  H   H735      1.0  0.36433  0.09564  0.79516  1.0000
  S   S250      1.0  0.37710  0.17842  0.61802  1.0000
  C   C736      1.0  0.36999  0.18794  0.64580  1.0000
  Fe  Fe128     1.0  0.61976  0.20391  0.81075  1.0000
  C   C737      1.0  0.62975  0.21722  0.94498  1.0000
  Fe  Fe129     1.0  0.65083  0.10368  0.75346  1.0000
  Fe  Fe130     1.0  0.34375  0.18069  0.81209  1.0000
  H   H736      1.0  0.42971  0.20121  0.85971  1.0000
  H   H737      1.0  0.37610  0.16593  0.67479  1.0000
  S   S251      1.0  0.40759  0.19737  0.82241  1.0000
  H   H738      1.0  0.61017  0.12021  0.76767  1.0000
  C   C738      1.0  0.63126  0.21708  0.91763  1.0000
  C   C739      1.0  0.38708  0.16322  0.95624  1.0000
  H   H739      1.0  0.59831  0.18995  0.97361  1.0000
  C   C740      1.0  0.42118  0.17092  0.69779  1.0000
  Fe  Fe131     1.0  0.57884  0.02204  0.67271  1.0000
  C   C741      1.0  0.40829  0.15778  0.94984  1.0000
  Fe  Fe132     1.0  0.38515  0.19021  0.80435  1.0000
  S   S252      1.0  0.60038  0.24040  0.58025  1.0000
  H   H740      1.0  0.60635  0.04002  0.75388  1.0000
  H   H741      1.0  0.66719  0.14160  0.60547  1.0000
  H   H742      1.0  0.58092  0.02761  0.72407  1.0000
  H   H743      1.0  0.43436  0.15299  0.91800  1.0000
  H   H744      1.0  0.57241  0.03599  0.75420  1.0000
  Fe  Fe133     1.0  0.44832  0.20285  0.96725  1.0000
  C   C742      1.0  0.66852  0.20800  0.79584  1.0000
  C   C743      1.0  0.66186  0.16364  0.76110  1.0000
  S   S253      1.0  0.59465  0.99754  0.69041  1.0000
  S   S254      1.0  0.41798  0.21885  0.97856  1.0000
  H   H745      1.0  0.55825  0.18296  0.54103  1.0000
  H   H746      1.0  0.66301  0.07516  0.61590  1.0000
  C   C744      1.0  0.55153  0.22996  0.56985  1.0000
  H   H747      1.0  0.37727  0.14893  0.54306  1.0000
  C   C745      1.0  0.66095  0.22342  0.78243  1.0000
  H   H748      1.0  0.36231  0.04553  0.62773  1.0000
  H   H749      1.0  0.54562  0.01584  0.59790  1.0000
  H   H750      1.0  0.60751  0.20291  0.51514  1.0000
  C   C746      1.0  0.55383  0.19590  0.53709  1.0000
  C   C747      1.0  0.57886  0.23830  0.93047  1.0000
  S   S255      1.0  0.33982  0.12896  0.66942  1.0000
  H   H751      1.0  0.62766  0.21823  0.86814  1.0000
  H   H752      1.0  0.54182  0.24204  0.52141  1.0000
  C   C748      1.0  0.34903  0.11349  0.55708  1.0000
  C   C749      1.0  0.60621  0.00147  0.75602  1.0000
  H   H753      1.0  0.35064  0.06326  0.66091  1.0000
  N   N60       1.0  0.35143  0.12005  0.79562  1.0000
  H   H754      1.0  0.64620  0.16920  0.75899  1.0000
  C   C750      1.0  0.54795  0.20412  0.51262  1.0000
  H   H755      1.0  0.36130  0.02274  0.72571  1.0000
  C   C751      1.0  0.35253  0.15278  0.50834  1.0000
  H   H756      1.0  0.61646  0.20747  0.98654  1.0000
  C   C752      1.0  0.35577  0.04428  0.69542  1.0000
  S   S256      1.0  0.34301  0.21768  0.51776  1.0000
  H   H757      1.0  0.65357  0.99892  0.76891  1.0000
  C   C753      1.0  0.36155  0.02772  0.70431  1.0000
  H   H758      1.0  0.58891  0.99620  0.59107  1.0000
  H   H759      1.0  0.66898  0.17933  0.65439  1.0000
  C   C754      1.0  0.58702  0.24227  0.90253  1.0000
  S   S257      1.0  0.59609  0.24199  0.73150  1.0000
  H   H760      1.0  0.45837  0.99279  0.64252  1.0000
  C   C755      1.0  0.66766  0.34135  0.11916  1.0000
  H   H761      1.0  0.49551  0.31548  0.06135  1.0000
  C   C756      1.0  0.64621  0.35699  0.17825  1.0000
  C   C757      1.0  0.48563  0.26416  0.21083  1.0000
  H   H762      1.0  0.37619  0.35481  0.10478  1.0000
  H   H763      1.0  0.55196  0.28467  0.11344  1.0000
  Fe  Fe134     1.0  0.56519  0.30603  0.19996  1.0000
  S   S258      1.0  0.58651  0.31071  0.15920  1.0000
  S   S259      1.0  0.53037  0.31027  0.20991  1.0000
  Fe  Fe135     1.0  0.60592  0.31846  0.18145  1.0000
  S   S260      1.0  0.58302  0.31597  0.22097  1.0000
  Fe  Fe136     1.0  0.40836  0.29426  0.15934  1.0000
  S   S261      1.0  0.40841  0.26962  0.15393  1.0000
  S   S262      1.0  0.37805  0.30739  0.17945  1.0000
  Fe  Fe137     1.0  0.45444  0.29217  0.13713  1.0000
  S   S263      1.0  0.45818  0.26756  0.12946  1.0000
  S   S264      1.0  0.48359  0.30257  0.12375  1.0000
  Fe  Fe138     1.0  0.42902  0.27663  0.11358  1.0000
  S   S265      1.0  0.42681  0.27280  0.07309  1.0000
  Fe  Fe139     1.0  0.43750  0.26260  0.17046  1.0000
  C   C758      1.0  0.51887  0.27064  0.20727  1.0000
  S   S266      1.0  0.42686  0.30190  0.11747  1.0000
  S   S267      1.0  0.43586  0.28659  0.17939  1.0000
  C   C759      1.0  0.49259  0.30442  0.05858  1.0000
  H   H764      1.0  0.61088  0.25899  0.32115  1.0000
  H   H765      1.0  0.48052  0.25952  0.17472  1.0000
  C   C760      1.0  0.42422  0.25119  0.04492  1.0000
  C   C761      1.0  0.57058  0.27922  0.29101  1.0000
  C   C762      1.0  0.36308  0.30736  0.11182  1.0000
  H   H766      1.0  0.49927  0.24667  0.35620  1.0000
  C   C763      1.0  0.47949  0.26053  0.05301  1.0000
  C   C764      1.0  0.51718  0.30915  0.18538  1.0000
  C   C765      1.0  0.52737  0.30883  0.15851  1.0000
  C   C766      1.0  0.51666  0.30730  0.13966  1.0000
  C   C767      1.0  0.49594  0.30550  0.14774  1.0000
  C   C768      1.0  0.48573  0.30579  0.17460  1.0000
  C   C769      1.0  0.49625  0.30789  0.19324  1.0000
  H   H767      1.0  0.54342  0.30995  0.15215  1.0000
  H   H768      1.0  0.52451  0.30738  0.11877  1.0000
  H   H769      1.0  0.46968  0.30464  0.18093  1.0000
  H   H770      1.0  0.48825  0.30823  0.21396  1.0000
  C   C770      1.0  0.55436  0.27419  0.31175  1.0000
  H   H771      1.0  0.52939  0.27452  0.21588  1.0000
  C   C771      1.0  0.57896  0.25781  0.33876  1.0000
  H   H772      1.0  0.42826  0.26017  0.02690  1.0000
  H   H773      1.0  0.51991  0.29014  0.07187  1.0000
  H   H774      1.0  0.64155  0.31837  0.20759  1.0000
  H   H775      1.0  0.66700  0.36969  0.18628  1.0000
  S   S268      1.0  0.54429  0.24827  0.02084  1.0000
  H   H776      1.0  0.59277  0.24415  0.08599  1.0000
  C   C772      1.0  0.64692  0.32960  0.20303  1.0000
  C   C773      1.0  0.59513  0.26318  0.31839  1.0000
  S   S269      1.0  0.62475  0.29395  0.19143  1.0000
  C   C774      1.0  0.63891  0.34253  0.18422  1.0000
  C   C775      1.0  0.49146  0.26254  0.18371  1.0000
  C   C776      1.0  0.57067  0.26423  0.09812  1.0000
  H   H777      1.0  0.56727  0.28741  0.27251  1.0000
  C   C777      1.0  0.57914  0.27602  0.13065  1.0000
  H   H778      1.0  0.64006  0.36705  0.16372  1.0000
  H   H779      1.0  0.36740  0.32623  0.07624  1.0000
  H   H780      1.0  0.53858  0.27843  0.30916  1.0000
  C   C778      1.0  0.49943  0.26830  0.22262  1.0000
  C   C779      1.0  0.36747  0.32661  0.16298  1.0000
  C   C780      1.0  0.37783  0.33431  0.13804  1.0000
  C   C781      1.0  0.36823  0.34902  0.12429  1.0000
  H   H781      1.0  0.53120  0.25518  0.13645  1.0000
  C   C782      1.0  0.55858  0.26329  0.33546  1.0000
  H   H782      1.0  0.39312  0.32887  0.12917  1.0000
  C   C783      1.0  0.59745  0.26484  0.13106  1.0000
  S   S270      1.0  0.58084  0.28071  0.21262  1.0000
  C   C784      1.0  0.47465  0.30426  0.05040  1.0000
  N   N61       1.0  0.51050  0.26495  0.16874  1.0000
  C   C785      1.0  0.56587  0.27577  0.11409  1.0000
  S   S271      1.0  0.62052  0.34068  0.16698  1.0000
  H   H783      1.0  0.46888  0.26226  0.03891  1.0000
  C   C786      1.0  0.60227  0.25320  0.11516  1.0000
  C   C787      1.0  0.47077  0.28976  0.04812  1.0000
  C   C788      1.0  0.58888  0.25291  0.09865  1.0000
  H   H784      1.0  0.46360  0.31525  0.04648  1.0000
  H   H785      1.0  0.53891  0.27150  0.16800  1.0000
  Fe  Fe140     1.0  0.60330  0.28578  0.17337  1.0000
  Fe  Fe141     1.0  0.60068  0.29104  0.22953  1.0000
  S   S272      1.0  0.61140  0.27964  0.26858  1.0000
  N   N62       1.0  0.61330  0.24361  0.24055  1.0000
  H   H786      1.0  0.51224  0.26467  0.06804  1.0000
  S   S273      1.0  0.53845  0.25609  0.36046  1.0000
  H   H787      1.0  0.57525  0.28500  0.14287  1.0000
  N   N63       1.0  0.48428  0.27576  0.05410  1.0000
  S   S274      1.0  0.61434  0.26532  0.15140  1.0000
  C   C789      1.0  0.50626  0.29012  0.06467  1.0000
  C   C790      1.0  0.52413  0.26900  0.18014  1.0000
  H   H788      1.0  0.45673  0.28978  0.04186  1.0000
  H   H789      1.0  0.37104  0.24371  0.31668  1.0000
  Fe  Fe142     1.0  0.56173  0.24496  0.05381  1.0000
  H   H790      1.0  0.49491  0.27010  0.24336  1.0000
  C   C791      1.0  0.50176  0.27578  0.06259  1.0000
  N   N64       1.0  0.60822  0.32219  0.27554  1.0000
  C   C792      1.0  0.60513  0.33667  0.25798  1.0000
  C   C793      1.0  0.59180  0.31525  0.29060  1.0000
  C   C794      1.0  0.58517  0.34470  0.25544  1.0000
  C   C795      1.0  0.57163  0.32291  0.28855  1.0000
  C   C796      1.0  0.56832  0.33775  0.27087  1.0000
  C   C797      1.0  0.62927  0.31359  0.27684  1.0000
  H   H791      1.0  0.61815  0.34203  0.24558  1.0000
  H   H792      1.0  0.59425  0.30358  0.30399  1.0000
  H   H793      1.0  0.58284  0.35602  0.24107  1.0000
  H   H794      1.0  0.55871  0.31717  0.30013  1.0000
  H   H795      1.0  0.55278  0.34366  0.26861  1.0000
  H   H796      1.0  0.63981  0.32204  0.27440  1.0000
  H   H797      1.0  0.62989  0.30507  0.29667  1.0000
  H   H798      1.0  0.63497  0.30663  0.26045  1.0000
  H   H799      1.0  0.51813  0.27550  0.12688  1.0000
  C   C798      1.0  0.59096  0.27367  0.29436  1.0000
  H   H800      1.0  0.37814  0.30011  0.10632  1.0000
  C   C799      1.0  0.42257  0.25420  0.07073  1.0000
  H   H801      1.0  0.65378  0.35100  0.11991  1.0000
  H   H802      1.0  0.47035  0.26245  0.22236  1.0000
  C   C800      1.0  0.51634  0.26359  0.14014  1.0000
  H   H803      1.0  0.63540  0.25871  0.23273  1.0000
  S   S275      1.0  0.55329  0.26404  0.07833  1.0000
  C   C801      1.0  0.35705  0.32200  0.09495  1.0000
  H   H804      1.0  0.35478  0.29124  0.15001  1.0000
  H   H805      1.0  0.47182  0.25478  0.07355  1.0000
  C   C802      1.0  0.66147  0.35851  0.19098  1.0000
  H   H806      1.0  0.49369  0.25222  0.04595  1.0000
  C   C803      1.0  0.34989  0.30231  0.13627  1.0000
  H   H807      1.0  0.50107  0.24600  0.40350  1.0000
  C   C804      1.0  0.66945  0.34556  0.20984  1.0000
  C   C805      1.0  0.66208  0.33114  0.21582  1.0000
  H   H808      1.0  0.41596  0.24477  0.11391  1.0000
  H   H809      1.0  0.58225  0.24961  0.35726  1.0000
  H   H810      1.0  0.66308  0.33061  0.13424  1.0000
  C   C806      1.0  0.34819  0.35605  0.13530  1.0000
  H   H811      1.0  0.50456  0.25926  0.13384  1.0000
  C   C807      1.0  0.34773  0.33394  0.17448  1.0000
  C   C808      1.0  0.63128  0.25013  0.22334  1.0000
  H   H812      1.0  0.57971  0.24267  0.46019  1.0000
  H   H813      1.0  0.62816  0.25682  0.20306  1.0000
  H   H814      1.0  0.66838  0.32103  0.23015  1.0000
  H   H815      1.0  0.61651  0.24460  0.11530  1.0000
  H   H816      1.0  0.33974  0.32812  0.19394  1.0000
  H   H817      1.0  0.67207  0.33836  0.09870  1.0000
  H   H818      1.0  0.62234  0.24269  0.27754  1.0000
  H   H819      1.0  0.60108  0.24292  0.20685  1.0000
  C   C809      1.0  0.41728  0.24254  0.09393  1.0000
  S   S276      1.0  0.58652  0.24645  0.95312  1.0000
  C   C810      1.0  0.64172  0.27000  0.64049  1.0000
  C   C811      1.0  0.50676  0.25076  0.94731  1.0000
  C   C812      1.0  0.53314  0.26506  0.94679  1.0000
  H   H820      1.0  0.63008  0.26466  0.63576  1.0000
  C   C813      1.0  0.53918  0.26625  0.91871  1.0000
  C   C814      1.0  0.64287  0.25283  0.68549  1.0000
  C   C815      1.0  0.51676  0.25731  0.96122  1.0000
  H   H821      1.0  0.59848  0.24992  0.89520  1.0000
  H   H822      1.0  0.50569  0.24839  0.88408  1.0000
  C   C816      1.0  0.52908  0.25928  0.90553  1.0000
  N   N65       1.0  0.65305  0.25806  0.65957  1.0000
  H   H823      1.0  0.55232  0.27181  0.90747  1.0000
  H   H824      1.0  0.65203  0.27403  0.62079  1.0000
  N   N66       1.0  0.51307  0.25166  0.91987  1.0000
  H   H825      1.0  0.63386  0.28065  0.64932  1.0000
  H   H826      1.0  0.53463  0.25945  0.88396  1.0000
  H   H827      1.0  0.62686  0.25797  0.69228  1.0000
  H   H828      1.0  0.54156  0.26973  0.95738  1.0000
  H   H829      1.0  0.51211  0.25605  0.98312  1.0000
  C   C817      1.0  0.50369  0.24330  0.90629  1.0000
  H   H830      1.0  0.60615  0.24800  0.67303  1.0000
  H   H831      1.0  0.66856  0.24448  0.75287  1.0000
  S   S277      1.0  0.65245  0.24833  0.58934  1.0000
  H   H832      1.0  0.49411  0.24472  0.95868  1.0000
  H   H833      1.0  0.48689  0.24408  0.91487  1.0000
  H   H834      1.0  0.47349  0.73076  0.76370  1.0000
  S   S278      1.0  0.66038  0.71383  0.72844  1.0000
  H   H835      1.0  0.36319  0.71754  0.66781  1.0000
  H   H836      1.0  0.61959  0.74052  0.65608  1.0000
  C   C818      1.0  0.35663  0.73962  0.68213  1.0000
  H   H837      1.0  0.61867  0.72833  0.74716  1.0000
  H   H838      1.0  0.50300  0.73602  0.77747  1.0000
  H   H839      1.0  0.34753  0.72133  0.74298  1.0000
  C   C819      1.0  0.64829  0.73408  0.72552  1.0000
  H   H840      1.0  0.34493  0.69984  0.72274  1.0000
  C   C820      1.0  0.35122  0.72697  0.67481  1.0000
  C   C821      1.0  0.62717  0.73786  0.73657  1.0000
  H   H841      1.0  0.37264  0.73983  0.68100  1.0000
  H   H842      1.0  0.61162  0.91675  0.45512  1.0000
  Fe  Fe143     1.0  0.60928  0.87967  0.12882  1.0000
  S   S279      1.0  0.64128  0.88473  0.11908  1.0000
  S   S280      1.0  0.59442  0.87170  0.17257  1.0000
  Fe  Fe144     1.0  0.60677  0.88540  0.06918  1.0000
  S   S281      1.0  0.63865  0.89105  0.05435  1.0000
  S   S282      1.0  0.58487  0.88636  0.04218  1.0000
  Fe  Fe145     1.0  0.64719  0.87023  0.08735  1.0000
  C   C822      1.0  0.36715  0.95726  0.18701  1.0000
  Fe  Fe146     1.0  0.63001  0.90507  0.08729  1.0000
  S   S283      1.0  0.64161  0.92810  0.07908  1.0000
  S   S284      1.0  0.61603  0.86327  0.09963  1.0000
  S   S285      1.0  0.59717  0.90137  0.09959  1.0000
  Fe  Fe147     1.0  0.60702  0.90230  0.28915  1.0000
  S   S286      1.0  0.64056  0.89889  0.28877  1.0000
  S   S287      1.0  0.59968  0.91591  0.24878  1.0000
  Fe  Fe148     1.0  0.59731  0.88678  0.34939  1.0000
  S   S288      1.0  0.63044  0.88163  0.35321  1.0000
  S   S289      1.0  0.57446  0.87979  0.38806  1.0000
  Fe  Fe149     1.0  0.63063  0.90651  0.32849  1.0000
  S   S290      1.0  0.64358  0.92463  0.33926  1.0000
  Fe  Fe150     1.0  0.63692  0.87441  0.31301  1.0000
  H   H843      1.0  0.61830  0.92897  0.99826  1.0000
  S   S291      1.0  0.59719  0.91226  0.32701  1.0000
  S   S292      1.0  0.60374  0.87718  0.31107  1.0000
  S   S293      1.0  0.35220  0.91268  0.12800  1.0000
  H   H844      1.0  0.55592  0.89219  0.47885  1.0000
  H   H845      1.0  0.39261  0.91335  0.24308  1.0000
  H   H846      1.0  0.63053  0.93405  0.28771  1.0000
  S   S294      1.0  0.63708  0.97341  0.20525  1.0000
  H   H847      1.0  0.56660  0.97726  0.21474  1.0000
  C   C823      1.0  0.63100  0.84725  0.21164  1.0000
  H   H848      1.0  0.65381  0.93970  0.19629  1.0000
  C   C824      1.0  0.64329  0.84377  0.18717  1.0000
  H   H849      1.0  0.49209  0.87859  0.45486  1.0000
  C   C825      1.0  0.50469  0.90435  0.46670  1.0000
  C   C826      1.0  0.55482  0.92188  0.05245  1.0000
  H   H850      1.0  0.37957  0.90789  0.36975  1.0000
  H   H851      1.0  0.33996  0.86693  0.42987  1.0000
  H   H852      1.0  0.39272  0.92509  0.19548  1.0000
  S   S295      1.0  0.38573  0.88392  0.01396  1.0000
  C   C827      1.0  0.34237  0.91023  0.18306  1.0000
  C   C828      1.0  0.64329  0.93454  0.18904  1.0000
  H   H853      1.0  0.64858  0.91219  0.23264  1.0000
  C   C829      1.0  0.59544  0.94311  0.05585  1.0000
  H   H854      1.0  0.62477  0.94450  0.02850  1.0000
  Fe  Fe151     1.0  0.34373  0.90188  0.09839  1.0000
  H   H855      1.0  0.39351  0.96428  0.19349  1.0000
  H   H856      1.0  0.47323  0.89247  0.43774  1.0000
  H   H857      1.0  0.58186  0.96762  0.32398  1.0000
  C   C830      1.0  0.61112  0.90431  0.45642  1.0000
  C   C831      1.0  0.61031  0.94024  0.03285  1.0000
  N   N67       1.0  0.57371  0.92864  0.04504  1.0000
  C   C832      1.0  0.34588  0.88195  0.38990  1.0000
  C   C833      1.0  0.39257  0.89634  0.16258  1.0000
  H   H858      1.0  0.35825  0.97779  0.10050  1.0000
  C   C834      1.0  0.56529  0.98467  0.25181  1.0000
  C   C835      1.0  0.60672  0.93153  0.01597  1.0000
  C   C836      1.0  0.56907  0.89275  0.41081  1.0000
  C   C837      1.0  0.56305  0.88691  0.43882  1.0000
  H   H859      1.0  0.60748  0.86043  0.46154  1.0000
  C   C838      1.0  0.56248  0.91288  0.44774  1.0000
  C   C839      1.0  0.56785  0.91882  0.41973  1.0000
  C   C840      1.0  0.57124  0.90877  0.40135  1.0000
  H   H860      1.0  0.61028  0.85041  0.26009  1.0000
  S   S296      1.0  0.55972  0.92569  0.47001  1.0000
  H   H861      1.0  0.56965  0.93120  0.41221  1.0000
  H   H862      1.0  0.57541  0.91349  0.37985  1.0000
  C   C841      1.0  0.63553  0.94344  0.31969  1.0000
  C   C842      1.0  0.63462  0.95727  0.32889  1.0000
  C   C843      1.0  0.62779  0.97236  0.31360  1.0000
  C   C844      1.0  0.62250  0.97367  0.28865  1.0000
  C   C845      1.0  0.62368  0.95983  0.27923  1.0000
  C   C846      1.0  0.62991  0.94470  0.29493  1.0000
  H   H863      1.0  0.63892  0.95633  0.34804  1.0000
  C   C847      1.0  0.66052  0.84200  0.23120  1.0000
  H   H864      1.0  0.61919  0.96075  0.26026  1.0000
  H   H865      1.0  0.35517  0.89813  0.35218  1.0000
  H   H866      1.0  0.64217  0.94135  0.16819  1.0000
  C   C848      1.0  0.66164  0.89119  0.21580  1.0000
  C   C849      1.0  0.56002  0.89691  0.45730  1.0000
  H   H867      1.0  0.38728  0.95231  0.24307  1.0000
  C   C850      1.0  0.38075  0.95800  0.20270  1.0000
  C   C851      1.0  0.59514  0.88624  0.00752  1.0000
  Fe  Fe152     1.0  0.35736  0.88990  0.04530  1.0000
  C   C852      1.0  0.37713  0.95133  0.23072  1.0000
  H   H868      1.0  0.62678  0.88331  0.01058  1.0000
  S   S297      1.0  0.66059  0.85453  0.29789  1.0000
  C   C853      1.0  0.50400  0.91398  0.48479  1.0000
  C   C854      1.0  0.35722  0.89337  0.37289  1.0000
  H   H869      1.0  0.51949  0.89853  0.45693  1.0000
  H   H870      1.0  0.51815  0.91565  0.48884  1.0000
  C   C855      1.0  0.38511  0.88707  0.21133  1.0000
  C   C856      1.0  0.59544  0.88424  0.19357  1.0000
  C   C857      1.0  0.58937  0.87960  0.22187  1.0000
  C   C858      1.0  0.59102  0.88912  0.23897  1.0000
  C   C859      1.0  0.59793  0.90364  0.22776  1.0000
  C   C860      1.0  0.60336  0.90852  0.19945  1.0000
  C   C861      1.0  0.60255  0.89868  0.18239  1.0000
  H   H871      1.0  0.58329  0.86866  0.23058  1.0000
  H   H872      1.0  0.58624  0.88550  0.26077  1.0000
  H   H873      1.0  0.60822  0.91990  0.19066  1.0000
  H   H874      1.0  0.60707  0.90238  0.16060  1.0000
  C   C862      1.0  0.62922  0.93927  0.10408  1.0000
  C   C863      1.0  0.63671  0.95258  0.10522  1.0000
  C   C864      1.0  0.62675  0.96155  0.12522  1.0000
  C   C865      1.0  0.60916  0.95729  0.14387  1.0000
  C   C866      1.0  0.60159  0.94409  0.14244  1.0000
  C   C867      1.0  0.61171  0.93501  0.12276  1.0000
  H   H875      1.0  0.61676  0.87810  0.41669  1.0000
  H   H876      1.0  0.63268  0.97173  0.12619  1.0000
  H   H877      1.0  0.58804  0.94072  0.15690  1.0000
  H   H878      1.0  0.60583  0.92479  0.12203  1.0000
  H   H879      1.0  0.45405  0.90707  0.47090  1.0000
  H   H880      1.0  0.58762  0.94728  0.32084  1.0000
  H   H881      1.0  0.37056  0.94846  0.10862  1.0000
  H   H882      1.0  0.56596  0.93896  0.08016  1.0000
  H   H883      1.0  0.38887  0.85195  0.05467  1.0000
  H   H884      1.0  0.33979  0.94896  0.18706  1.0000
  C   C868      1.0  0.61395  0.88277  0.43501  1.0000
  C   C869      1.0  0.36236  0.88144  0.42677  1.0000
  C   C870      1.0  0.60869  0.87270  0.46035  1.0000
  H   H885      1.0  0.63627  0.84469  0.17003  1.0000
  C   C871      1.0  0.37332  0.89315  0.40991  1.0000
  N   N68       1.0  0.37362  0.84480  0.02972  1.0000
  H   H886      1.0  0.66361  0.88337  0.23526  1.0000
  H   H887      1.0  0.36705  0.90918  0.24874  1.0000
  H   H888      1.0  0.62683  0.98304  0.32097  1.0000
  H   H889      1.0  0.35346  0.84693  0.06791  1.0000
  S   S298      1.0  0.36921  0.96755  0.15321  1.0000
  C   C872      1.0  0.35046  0.94943  0.19906  1.0000
  H   H890      1.0  0.36769  0.92415  0.45658  1.0000
  S   S299      1.0  0.35521  0.93605  0.27798  1.0000
  H   H891      1.0  0.65028  0.95594  0.09079  1.0000
  H   H892      1.0  0.63800  0.90732  0.40076  1.0000
  S   S300      1.0  0.35710  0.87764  0.08890  1.0000
  C   C873      1.0  0.62672  0.85095  0.25823  1.0000
  C   C874      1.0  0.39218  0.84408  0.03977  1.0000
  C   C875      1.0  0.37103  0.89888  0.38285  1.0000
  S   S301      1.0  0.59691  0.96770  0.16993  1.0000
  C   C876      1.0  0.39171  0.91348  0.19271  1.0000
  S   S302      1.0  0.38872  0.90175  0.42265  1.0000
  H   H893      1.0  0.38539  0.87301  0.18253  1.0000
  C   C877      1.0  0.62094  0.90865  0.40663  1.0000
  C   C878      1.0  0.57614  0.95850  0.31771  1.0000
  H   H894      1.0  0.38814  0.89331  0.25708  1.0000
  H   H895      1.0  0.34677  0.92181  0.17888  1.0000
  C   C879      1.0  0.36021  0.94367  0.24279  1.0000
  H   H896      1.0  0.61448  0.85058  0.21319  1.0000
  S   S303      1.0  0.34470  0.89253  0.29917  1.0000
  C   C880      1.0  0.39438  0.91110  0.16631  1.0000
  H   H897      1.0  0.58562  0.91895  0.00924  1.0000
  N   N69       1.0  0.61492  0.89840  0.43330  1.0000
  H   H898      1.0  0.59832  0.94960  0.06937  1.0000
  C   C881      1.0  0.56847  0.97342  0.23574  1.0000
  H   H899      1.0  0.34867  0.98125  0.00434  1.0000
  N   N70       1.0  0.65118  0.91746  0.18981  1.0000
  H   H900      1.0  0.63186  0.84279  0.27652  1.0000
  H   H901      1.0  0.65486  0.91945  0.14703  1.0000
  N   N71       1.0  0.57400  0.96363  0.28919  1.0000
  H   H902      1.0  0.40448  0.84864  0.02295  1.0000
  C   C882      1.0  0.57687  0.95248  0.27369  1.0000
  H   H903      1.0  0.61533  0.90549  0.39065  1.0000
  H   H904      1.0  0.35064  0.94334  0.45341  1.0000
  H   H905      1.0  0.39719  0.92081  0.14891  1.0000
  H   H906      1.0  0.36416  0.87693  0.44765  1.0000
  H   H907      1.0  0.58138  0.93985  0.28201  1.0000
  C   C883      1.0  0.37528  0.84348  0.00351  1.0000
  C   C884      1.0  0.65680  0.91162  0.16643  1.0000
  C   C885      1.0  0.57716  0.93710  0.06178  1.0000
  C   C886      1.0  0.58818  0.92584  0.02234  1.0000
  H   H908      1.0  0.56108  0.95651  0.33105  1.0000
  C   C887      1.0  0.66538  0.89545  0.16714  1.0000
  Fe  Fe153     1.0  0.61507  0.98399  0.17702  1.0000
  H   H909      1.0  0.50011  0.89349  0.42506  1.0000
  H   H910      1.0  0.61418  0.92146  0.40663  1.0000
  C   C888      1.0  0.35694  0.97107  0.08636  1.0000
  H   H911      1.0  0.62762  0.93638  0.20208  1.0000
  Fe  Fe154     1.0  0.39119  0.89153  0.46630  1.0000
  H   H912      1.0  0.62780  0.86335  0.25843  1.0000
  C   C889      1.0  0.48816  0.89118  0.44386  1.0000
  C   C890      1.0  0.65333  0.90747  0.21425  1.0000
  C   C891      1.0  0.61633  0.88487  0.99716  1.0000
  H   H913      1.0  0.39796  0.83159  0.04955  1.0000
  H   H914      1.0  0.57720  0.94843  0.23409  1.0000
  C   C892      1.0  0.46816  0.90927  0.47422  1.0000
  H   H915      1.0  0.55594  0.91150  0.06990  1.0000
  H   H916      1.0  0.56636  0.98843  0.29064  1.0000
  C   C893      1.0  0.35395  0.95410  0.04966  1.0000
  H   H917      1.0  0.55245  0.91739  0.03543  1.0000
  C   C894      1.0  0.36281  0.94605  0.07216  1.0000
  C   C895      1.0  0.36411  0.95460  0.09075  1.0000
  C   C896      1.0  0.57440  0.95723  0.24664  1.0000
  H   H918      1.0  0.54111  0.93100  0.05806  1.0000
  C   C897      1.0  0.35479  0.84614  0.04698  1.0000
  C   C898      1.0  0.38781  0.88425  0.18520  1.0000
  H   H919      1.0  0.36842  0.93323  0.07544  1.0000
  C   C899      1.0  0.38367  0.90444  0.24224  1.0000
  C   C900      1.0  0.56824  0.97955  0.27860  1.0000
  C   C901      1.0  0.66776  0.88520  0.19199  1.0000
  H   H920      1.0  0.56130  0.87451  0.44625  1.0000
  S   S304      1.0  0.34728  0.91435  0.05463  1.0000
  H   H921      1.0  0.38057  0.87786  0.22884  1.0000
  N   N72       1.0  0.63965  0.84637  0.23323  1.0000
  N   N73       1.0  0.48692  0.90209  0.46166  1.0000
  H   H922      1.0  0.39387  0.89453  0.14223  1.0000
  N   N74       1.0  0.38743  0.90145  0.21476  1.0000
  C   C902      1.0  0.60460  0.87868  0.48402  1.0000
  C   C903      1.0  0.34784  0.97872  0.06392  1.0000
  C   C904      1.0  0.34323  0.90307  0.16150  1.0000
  Fe  Fe155     1.0  0.65690  0.99008  0.17653  1.0000
  H   H923      1.0  0.56533  0.88914  0.99774  1.0000
  H   H924      1.0  0.66680  0.95779  0.27541  1.0000
  H   H925      1.0  0.34496  0.92770  0.48240  1.0000
  H   H926      1.0  0.66731  0.84133  0.24837  1.0000
  N   N75       1.0  0.34618  0.97016  0.04613  1.0000
  H   H927      1.0  0.35283  0.94738  0.03535  1.0000
  S   S305      1.0  0.40679  0.86675  0.48292  1.0000
  H   H928      1.0  0.66663  0.96504  0.14680  1.0000
  C   C905      1.0  0.60586  0.89457  0.48207  1.0000
  H   H929      1.0  0.35271  0.93820  0.40682  1.0000
  C   C906      1.0  0.34870  0.87579  0.41671  1.0000
  C   C907      1.0  0.34720  0.94245  0.22676  1.0000
  C   C908      1.0  0.35770  0.84415  0.99363  1.0000
  S   S306      1.0  0.40917  0.90398  0.48261  1.0000
  H   H930      1.0  0.67046  0.89100  0.14846  1.0000
  C   C909      1.0  0.66455  0.83913  0.18500  1.0000
  C   C910      1.0  0.35129  0.93021  0.46011  1.0000
  C   C911      1.0  0.34214  0.93006  0.41744  1.0000
  H   H931      1.0  0.34163  0.99145  0.06122  1.0000
  H   H932      1.0  0.34905  0.88881  0.99147  1.0000
  N   N76       1.0  0.33982  0.92457  0.44498  1.0000
  H   H933      1.0  0.49176  0.83883  0.81186  1.0000
  C   C912      1.0  0.35973  0.91685  0.81999  1.0000
  H   H934      1.0  0.50625  0.92969  0.67213  1.0000
  H   H935      1.0  0.39019  0.84241  0.98979  1.0000
  S   S307      1.0  0.55328  0.98475  0.68763  1.0000
  S   S308      1.0  0.60019  0.97138  0.63393  1.0000
  C   C913      1.0  0.38207  0.80081  0.82712  1.0000
  S   S309      1.0  0.36440  0.89198  0.50163  1.0000
  H   H936      1.0  0.39657  0.93865  0.81317  1.0000
  Fe  Fe156     1.0  0.59245  0.90019  0.83234  1.0000
  S   S310      1.0  0.56659  0.88705  0.83952  1.0000
  S   S311      1.0  0.60236  0.91302  0.78925  1.0000
  Fe  Fe157     1.0  0.59955  0.88761  0.89015  1.0000
  S   S312      1.0  0.57421  0.87330  0.90245  1.0000
  S   S313      1.0  0.62129  0.88662  0.91720  1.0000
  Fe  Fe158     1.0  0.58619  0.86639  0.86180  1.0000
  S   S314      1.0  0.59106  0.84123  0.85508  1.0000
  Fe  Fe159     1.0  0.55660  0.89510  0.87913  1.0000
  S   S315      1.0  0.52277  0.90401  0.89111  1.0000
  S   S316      1.0  0.61325  0.87877  0.85134  1.0000
  S   S317      1.0  0.58088  0.91019  0.87023  1.0000
  Fe  Fe160     1.0  0.44934  0.85922  0.86902  1.0000
  S   S318      1.0  0.42556  0.88152  0.87156  1.0000
  S   S319      1.0  0.47787  0.85002  0.88631  1.0000
  S   S320      1.0  0.45375  0.86291  0.82396  1.0000
  S   S321      1.0  0.54707  0.89147  0.53607  1.0000
  Fe  Fe161     1.0  0.54468  0.92767  0.56812  1.0000
  S   S322      1.0  0.53900  0.90388  0.59380  1.0000
  S   S323      1.0  0.53680  0.94940  0.58664  1.0000
  Fe  Fe162     1.0  0.56583  0.89366  0.56444  1.0000
  S   S324      1.0  0.58803  0.87249  0.58098  1.0000
  Fe  Fe163     1.0  0.52069  0.90361  0.56379  1.0000
  S   S325      1.0  0.48906  0.89779  0.58087  1.0000
  S   S326      1.0  0.57357  0.91762  0.54136  1.0000
  H   H937      1.0  0.38978  0.78206  0.79135  1.0000
  C   C914      1.0  0.40309  0.78161  0.79964  1.0000
  S   S327      1.0  0.39883  0.87885  0.54091  1.0000
  Fe  Fe164     1.0  0.58074  0.79257  0.72598  1.0000
  S   S328      1.0  0.56773  0.81878  0.71441  1.0000
  S   S329      1.0  0.61546  0.78643  0.71515  1.0000
  Fe  Fe165     1.0  0.53812  0.78379  0.74715  1.0000
  S   S330      1.0  0.52186  0.80910  0.73730  1.0000
  S   S331      1.0  0.52102  0.76339  0.76739  1.0000
  Fe  Fe166     1.0  0.54533  0.81055  0.69829  1.0000
  S   S332      1.0  0.53490  0.82221  0.65890  1.0000
  Fe  Fe167     1.0  0.54575  0.81497  0.75444  1.0000
  S   S333      1.0  0.53527  0.83406  0.77948  1.0000
  S   S334      1.0  0.55987  0.78461  0.70670  1.0000
  S   S335      1.0  0.56044  0.78938  0.76767  1.0000
  Fe  Fe168     1.0  0.42051  0.76850  0.71359  1.0000
  C   C915      1.0  0.60198  0.79329  0.64434  1.0000
  C   C916      1.0  0.49998  0.76061  0.75601  1.0000
  H   H938      1.0  0.37698  0.90065  0.87810  1.0000
  S   S336      1.0  0.45669  0.87149  0.50025  1.0000
  C   C917      1.0  0.61283  0.77838  0.65518  1.0000
  C   C918      1.0  0.47124  0.76997  0.73218  1.0000
  C   C919      1.0  0.48844  0.77290  0.73963  1.0000
  C   C920      1.0  0.61694  0.75390  0.73381  1.0000
  C   C921      1.0  0.34793  0.79558  0.60384  1.0000
  H   H939      1.0  0.46233  0.77942  0.71967  1.0000
  H   H940      1.0  0.49266  0.78462  0.73293  1.0000
  C   C922      1.0  0.57361  0.85830  0.60259  1.0000
  C   C923      1.0  0.58181  0.84671  0.62310  1.0000
  C   C924      1.0  0.56990  0.83573  0.64081  1.0000
  C   C925      1.0  0.54998  0.83606  0.63756  1.0000
  C   C926      1.0  0.54206  0.84738  0.61661  1.0000
  C   C927      1.0  0.55368  0.85863  0.59952  1.0000
  H   H941      1.0  0.59721  0.84642  0.62558  1.0000
  H   H942      1.0  0.57628  0.82690  0.65664  1.0000
  H   H943      1.0  0.52689  0.84759  0.61359  1.0000
  H   H944      1.0  0.54721  0.86745  0.58378  1.0000
  C   C928      1.0  0.48027  0.88993  0.55903  1.0000
  C   C929      1.0  0.45910  0.89226  0.56020  1.0000
  C   C930      1.0  0.45171  0.88649  0.54232  1.0000
  C   C931      1.0  0.36224  0.88384  0.97771  1.0000
  H   H945      1.0  0.44850  0.89894  0.57444  1.0000
  H   H946      1.0  0.43540  0.88878  0.54269  1.0000
  C   C932      1.0  0.57492  0.83853  0.83548  1.0000
  C   C933      1.0  0.55658  0.84933  0.83258  1.0000
  C   C934      1.0  0.54435  0.84757  0.81582  1.0000
  C   C935      1.0  0.55033  0.83498  0.80187  1.0000
  C   C936      1.0  0.56835  0.82384  0.80536  1.0000
  C   C937      1.0  0.58060  0.82560  0.82223  1.0000
  H   H947      1.0  0.55166  0.85892  0.84356  1.0000
  H   H948      1.0  0.53032  0.85608  0.81341  1.0000
  H   H949      1.0  0.57304  0.81406  0.79469  1.0000
  H   H950      1.0  0.59471  0.81712  0.82457  1.0000
  C   C938      1.0  0.50964  0.88887  0.89212  1.0000
  C   C939      1.0  0.48881  0.89263  0.89038  1.0000
  C   C940      1.0  0.47885  0.88073  0.88863  1.0000
  C   C941      1.0  0.48963  0.86504  0.88919  1.0000
  C   C942      1.0  0.51031  0.86123  0.89146  1.0000
  C   C943      1.0  0.52033  0.87316  0.89270  1.0000
  H   H951      1.0  0.48053  0.90479  0.88982  1.0000
  H   H952      1.0  0.46284  0.88369  0.88710  1.0000
  H   H953      1.0  0.51870  0.84912  0.89175  1.0000
  H   H954      1.0  0.53639  0.87018  0.89381  1.0000
  Fe  Fe169     1.0  0.40987  0.79270  0.66421  1.0000
  H   H955      1.0  0.57074  0.84010  0.97086  1.0000
  C   C944      1.0  0.35860  0.93306  0.64208  1.0000
  C   C945      1.0  0.57005  0.96511  0.76870  1.0000
  C   C946      1.0  0.56621  0.95630  0.79543  1.0000
  C   C947      1.0  0.57588  0.94023  0.80181  1.0000
  C   C948      1.0  0.58969  0.93301  0.78157  1.0000
  C   C949      1.0  0.59348  0.94184  0.75481  1.0000
  C   C950      1.0  0.58360  0.95784  0.74833  1.0000
  H   H956      1.0  0.55571  0.96187  0.81122  1.0000
  H   H957      1.0  0.57274  0.93352  0.82244  1.0000
  H   H958      1.0  0.60408  0.93630  0.73904  1.0000
  H   H959      1.0  0.58657  0.96453  0.72760  1.0000
  C   C951      1.0  0.58273  0.96433  0.62186  1.0000
  C   C952      1.0  0.56191  0.97147  0.62593  1.0000
  C   C953      1.0  0.54790  0.96612  0.61624  1.0000
  C   C954      1.0  0.55468  0.95398  0.60137  1.0000
  C   C955      1.0  0.57551  0.94678  0.59702  1.0000
  C   C956      1.0  0.58954  0.95194  0.60736  1.0000
  C   C957      1.0  0.58177  0.88803  0.98986  1.0000
  H   H960      1.0  0.53183  0.97174  0.61969  1.0000
  H   H961      1.0  0.58086  0.93741  0.58546  1.0000
  H   H962      1.0  0.60566  0.94641  0.60400  1.0000
  H   H963      1.0  0.60062  0.75670  0.74222  1.0000
  C   C958      1.0  0.38803  0.78101  0.60841  1.0000
  H   H964      1.0  0.56611  0.83942  0.91404  1.0000
  C   C959      1.0  0.48174  0.81603  0.67302  1.0000
  H   H965      1.0  0.34919  0.91539  0.80856  1.0000
  C   C960      1.0  0.49409  0.88136  0.54062  1.0000
  C   C961      1.0  0.39439  0.92536  0.73211  1.0000
  H   H966      1.0  0.45370  0.76425  0.79361  1.0000
  H   H967      1.0  0.58136  0.75452  0.65342  1.0000
  H   H968      1.0  0.50352  0.83528  0.84054  1.0000
  H   H969      1.0  0.61213  0.86114  0.80719  1.0000
  N   N77       1.0  0.59892  0.86709  0.77228  1.0000
  C   C962      1.0  0.59857  0.85334  0.76469  1.0000
  C   C963      1.0  0.58355  0.88014  0.76862  1.0000
  C   C964      1.0  0.58283  0.85253  0.75245  1.0000
  C   C965      1.0  0.56740  0.87967  0.75677  1.0000
  C   C966      1.0  0.56707  0.86574  0.74868  1.0000
  C   C967      1.0  0.61537  0.86747  0.78557  1.0000
  H   H970      1.0  0.61038  0.84282  0.76840  1.0000
  H   H971      1.0  0.58369  0.89100  0.77488  1.0000
  H   H972      1.0  0.58245  0.84156  0.74670  1.0000
  H   H973      1.0  0.55524  0.89002  0.75397  1.0000
  H   H974      1.0  0.55449  0.86502  0.73990  1.0000
  C   C968      1.0  0.38808  0.92001  0.84759  1.0000
  H   H975      1.0  0.63053  0.86162  0.77525  1.0000
  C   C969      1.0  0.58739  0.76536  0.65054  1.0000
  C   C970      1.0  0.46258  0.82430  0.63595  1.0000
  C   C971      1.0  0.45766  0.83472  0.61219  1.0000
  C   C972      1.0  0.46675  0.84829  0.60142  1.0000
  H   H976      1.0  0.45560  0.81368  0.64390  1.0000
  H   H977      1.0  0.44694  0.83218  0.60215  1.0000
  H   H978      1.0  0.52502  0.77126  0.81624  1.0000
  H   H979      1.0  0.48575  0.82221  0.68675  1.0000
  H   H980      1.0  0.49545  0.80704  0.66677  1.0000
  N   N78       1.0  0.47601  0.82743  0.64884  1.0000
  H   H981      1.0  0.37295  0.79378  0.84502  1.0000
  H   H982      1.0  0.51043  0.87923  0.54006  1.0000
  H   H983      1.0  0.47831  0.83054  0.84557  1.0000
  S   S337      1.0  0.37830  0.81778  0.74630  1.0000
  N   N79       1.0  0.37439  0.92071  0.63068  1.0000
  C   C973      1.0  0.39428  0.91861  0.63382  1.0000
  C   C974      1.0  0.36942  0.91206  0.61545  1.0000
  C   C975      1.0  0.40972  0.90737  0.62197  1.0000
  C   C976      1.0  0.38439  0.90059  0.60363  1.0000
  C   C977      1.0  0.40465  0.89824  0.60696  1.0000
  H   H984      1.0  0.63852  0.84540  0.91051  1.0000
  H   H985      1.0  0.37112  0.93595  0.78841  1.0000
  H   H986      1.0  0.48412  0.92840  0.51247  1.0000
  H   H987      1.0  0.42555  0.90603  0.62397  1.0000
  N   N80       1.0  0.38422  0.79100  0.58453  1.0000
  H   H988      1.0  0.35905  0.84375  0.97249  1.0000
  C   C978      1.0  0.38197  0.88098  0.98340  1.0000
  C   C979      1.0  0.38629  0.93011  0.82242  1.0000
  H   H989      1.0  0.37303  0.80529  0.81066  1.0000
  C   C980      1.0  0.48668  0.87528  0.52312  1.0000
  C   C981      1.0  0.40133  0.79365  0.56129  1.0000
  C   C982      1.0  0.37383  0.82915  0.59406  1.0000
  H   H990      1.0  0.61362  0.83376  0.89738  1.0000
  H   H991      1.0  0.49739  0.86865  0.50884  1.0000
  H   H992      1.0  0.55657  0.98145  0.63594  1.0000
  H   H993      1.0  0.58384  0.82089  0.91171  1.0000
  C   C983      1.0  0.58956  0.88842  0.96197  1.0000
  H   H994      1.0  0.45108  0.78103  0.82689  1.0000
  Fe  Fe170     1.0  0.42263  0.87923  0.50228  1.0000
  H   H995      1.0  0.61674  0.87995  0.78492  1.0000
  H   H996      1.0  0.65757  0.77198  0.69887  1.0000
  H   H997      1.0  0.37482  0.77027  0.64958  1.0000
  C   C984      1.0  0.61677  0.74905  0.66972  1.0000
  C   C985      1.0  0.58586  0.84073  0.95794  1.0000
  N   N81       1.0  0.50258  0.81435  0.82712  1.0000
  C   C986      1.0  0.49413  0.80791  0.81200  1.0000
  C   C987      1.0  0.51897  0.80566  0.83843  1.0000
  C   C988      1.0  0.50194  0.79230  0.80806  1.0000
  C   C989      1.0  0.52728  0.79004  0.83471  1.0000
  C   C990      1.0  0.51859  0.78331  0.81957  1.0000
  C   C991      1.0  0.49359  0.83054  0.83157  1.0000
  H   H998      1.0  0.48141  0.81495  0.80262  1.0000
  H   H999      1.0  0.52589  0.81091  0.84998  1.0000
  H   H1000     1.0  0.49537  0.78731  0.79573  1.0000
  H   H1001     1.0  0.54054  0.78328  0.84318  1.0000
  S   S338      1.0  0.52410  0.92827  0.54015  1.0000
  C   C992      1.0  0.39262  0.94866  0.57470  1.0000
  C   C993      1.0  0.36446  0.79809  0.58191  1.0000
  C   C994      1.0  0.43760  0.78092  0.81944  1.0000
  H   H1002     1.0  0.46887  0.80975  0.68496  1.0000
  H   H1003     1.0  0.39833  0.92578  0.64526  1.0000
  S   S339      1.0  0.43168  0.90724  0.79921  1.0000
  S   S340      1.0  0.42366  0.79416  0.69828  1.0000
  C   C995      1.0  0.41794  0.91341  0.77276  1.0000
  H   H1004     1.0  0.38701  0.95811  0.58599  1.0000
  C   C996      1.0  0.48505  0.84068  0.63839  1.0000
  C   C997      1.0  0.62787  0.76624  0.72019  1.0000
  H   H1005     1.0  0.49597  0.84301  0.64836  1.0000
  H   H1006     1.0  0.60761  0.80417  0.64267  1.0000
  H   H1007     1.0  0.36250  0.94796  0.56916  1.0000
  C   C998      1.0  0.40928  0.93350  0.73364  1.0000
  C   C999      1.0  0.42084  0.92766  0.75404  1.0000
  H   H1008     1.0  0.46326  0.85634  0.58280  1.0000
  C   C1000     1.0  0.37880  0.94303  0.56493  1.0000
  H   H1009     1.0  0.41185  0.94444  0.71928  1.0000
  H   H1010     1.0  0.43199  0.93430  0.75527  1.0000
  H   H1011     1.0  0.52706  0.92668  0.64330  1.0000
  C   C1001     1.0  0.48051  0.85134  0.61460  1.0000
  S   S341      1.0  0.36838  0.92298  0.54002  1.0000
  H   H1012     1.0  0.60250  0.89938  0.50032  1.0000
  C   C1002     1.0  0.34120  0.75170  0.69157  1.0000
  H   H1013     1.0  0.35777  0.88301  0.85293  1.0000
  H   H1014     1.0  0.60772  0.74408  0.68986  1.0000
  S   S342      1.0  0.38854  0.77350  0.73863  1.0000
  S   S343      1.0  0.36591  0.84843  0.54609  1.0000
  C   C1003     1.0  0.49425  0.74555  0.76479  1.0000
  C   C1004     1.0  0.35170  0.78551  0.62833  1.0000
  H   H1015     1.0  0.41573  0.79308  0.56824  1.0000
  H   H1016     1.0  0.35728  0.83061  0.60099  1.0000
  H   H1017     1.0  0.35391  0.91428  0.61173  1.0000
  H   H1018     1.0  0.38027  0.81295  0.63079  1.0000
  S   S344      1.0  0.42694  0.94444  0.65800  1.0000
  S   S345      1.0  0.45859  0.96434  0.68607  1.0000
  C   C1005     1.0  0.34858  0.89478  0.85661  1.0000
  H   H1019     1.0  0.48776  0.86183  0.60633  1.0000
  C   C1006     1.0  0.64904  0.76247  0.70941  1.0000
  C   C1007     1.0  0.54609  0.98672  0.55313  1.0000
  H   H1020     1.0  0.56170  0.78066  0.63382  1.0000
  C   C1008     1.0  0.37183  0.77810  0.63060  1.0000
  Fe  Fe171     1.0  0.42772  0.88357  0.82707  1.0000
  C   C1009     1.0  0.51073  0.92558  0.65255  1.0000
  C   C1010     1.0  0.42092  0.93050  0.55368  1.0000
  H   H1021     1.0  0.39803  0.80577  0.54824  1.0000
  H   H1022     1.0  0.41778  0.79796  0.84213  1.0000
  H   H1023     1.0  0.34425  0.88237  0.94985  1.0000
  H   H1024     1.0  0.38447  0.81158  0.83265  1.0000
  C   C1011     1.0  0.43909  0.77159  0.80067  1.0000
  H   H1025     1.0  0.45194  0.92439  0.50263  1.0000
  H   H1026     1.0  0.35784  0.94450  0.62678  1.0000
  C   C1012     1.0  0.40711  0.92471  0.54419  1.0000
  H   H1027     1.0  0.56612  0.82289  0.94316  1.0000
  H   H1028     1.0  0.47395  0.93220  0.58562  1.0000
  H   H1029     1.0  0.40955  0.86603  0.92793  1.0000
  H   H1030     1.0  0.63112  0.98168  0.76344  1.0000
  H   H1031     1.0  0.57498  0.80556  0.62796  1.0000
  H   H1032     1.0  0.41643  0.88960  0.59738  1.0000
  S   S346      1.0  0.44462  0.74992  0.73258  1.0000
  C   C1013     1.0  0.41868  0.79044  0.82804  1.0000
  H   H1033     1.0  0.37422  0.84054  0.77907  1.0000
  C   C1014     1.0  0.46587  0.75469  0.74074  1.0000
  H   H1034     1.0  0.50945  0.91274  0.65706  1.0000
  C   C1015     1.0  0.38601  0.93091  0.54997  1.0000
  H   H1035     1.0  0.62983  0.85372  0.95482  1.0000
  H   H1036     1.0  0.49006  0.96956  0.70805  1.0000
  C   C1016     1.0  0.37535  0.90857  0.85864  1.0000
  H   H1037     1.0  0.47433  0.89495  0.79177  1.0000
  H   H1038     1.0  0.46610  0.96176  0.58072  1.0000
  C   C1017     1.0  0.42173  0.77187  0.79078  1.0000
  C   C1018     1.0  0.38985  0.83387  0.77702  1.0000
  H   H1039     1.0  0.39787  0.84444  0.80534  1.0000
  H   H1040     1.0  0.64055  0.88415  0.96143  1.0000
  H   H1041     1.0  0.52465  0.91095  0.82919  1.0000
  H   H1042     1.0  0.63201  0.74992  0.67284  1.0000
  Fe  Fe172     1.0  0.55245  0.91624  0.51523  1.0000
  H   H1043     1.0  0.44534  0.80918  0.77110  1.0000
  C   C1019     1.0  0.57623  0.78006  0.63942  1.0000
  H   H1044     1.0  0.34335  0.89378  0.87898  1.0000
  C   C1020     1.0  0.62397  0.84368  0.92428  1.0000
  C   C1021     1.0  0.51259  0.89123  0.82519  1.0000
  H   H1045     1.0  0.49890  0.95712  0.64374  1.0000
  C   C1022     1.0  0.40345  0.90494  0.77091  1.0000
  S   S347      1.0  0.37932  0.93334  0.70715  1.0000
  Fe  Fe173     1.0  0.39422  0.95269  0.67697  1.0000
  H   H1046     1.0  0.36209  0.93505  0.66068  1.0000
  S   S348      1.0  0.40016  0.97437  0.68706  1.0000
  C   C1023     1.0  0.48787  0.97917  0.69064  1.0000
  S   S349      1.0  0.43130  0.94860  0.58198  1.0000
  Fe  Fe174     1.0  0.38368  0.90244  0.51938  1.0000
  C   C1024     1.0  0.40323  0.83613  0.79181  1.0000
  Fe  Fe175     1.0  0.43248  0.96694  0.66521  1.0000
  C   C1025     1.0  0.57602  0.82938  0.92539  1.0000
  C   C1026     1.0  0.35955  0.88023  0.95407  1.0000
  C   C1027     1.0  0.61077  0.88707  0.95165  1.0000
  C   C1028     1.0  0.50118  0.91880  0.80477  1.0000
  C   C1029     1.0  0.39633  0.82246  0.76061  1.0000
  C   C1030     1.0  0.51401  0.90734  0.82036  1.0000
  H   H1047     1.0  0.50220  0.93133  0.80141  1.0000
  C   C1031     1.0  0.49077  0.92838  0.61760  1.0000
  C   C1032     1.0  0.39150  0.91102  0.75075  1.0000
  C   C1033     1.0  0.49318  0.95160  0.63130  1.0000
  C   C1034     1.0  0.48177  0.96134  0.61227  1.0000
  S   S350      1.0  0.40930  0.76634  0.67750  1.0000
  H   H1048     1.0  0.40118  0.89390  0.78518  1.0000
  N   N82       1.0  0.48749  0.91427  0.79411  1.0000
  H   H1049     1.0  0.47841  0.97420  0.61036  1.0000
  N   N83       1.0  0.59108  0.83560  0.93389  1.0000
  C   C1035     1.0  0.41367  0.94229  0.56928  1.0000
  C   C1036     1.0  0.65922  0.74643  0.71194  1.0000
  H   H1050     1.0  0.52231  0.88226  0.83740  1.0000
  Fe  Fe176     1.0  0.41851  0.95929  0.61912  1.0000
  C   C1037     1.0  0.39633  0.87117  0.94152  1.0000
  H   H1051     1.0  0.38040  0.89401  0.59115  1.0000
  C   C1038     1.0  0.59981  0.84711  0.96602  1.0000
  S   S351      1.0  0.42657  0.84292  0.87830  1.0000
  H   H1052     1.0  0.39964  0.92073  0.85811  1.0000
  C   C1039     1.0  0.47492  0.95436  0.59564  1.0000
  Fe  Fe177     1.0  0.39096  0.79917  0.72070  1.0000
  C   C1040     1.0  0.48562  0.89852  0.79945  1.0000
  Fe  Fe178     1.0  0.40296  0.86551  0.87689  1.0000
  N   N84       1.0  0.49755  0.93535  0.63374  1.0000
  Fe  Fe179     1.0  0.42940  0.84800  0.83314  1.0000
  C   C1041     1.0  0.49811  0.88678  0.81508  1.0000
  C   C1042     1.0  0.46551  0.87801  0.52375  1.0000
  C   C1043     1.0  0.37659  0.87381  0.93603  1.0000
  Fe  Fe180     1.0  0.38172  0.86837  0.52005  1.0000
  C   C1044     1.0  0.47935  0.93777  0.59835  1.0000
  H   H1053     1.0  0.49631  0.87434  0.81979  1.0000
  N   N85       1.0  0.40182  0.79086  0.81781  1.0000
  S   S352      1.0  0.34661  0.76696  0.70387  1.0000
  C   C1045     1.0  0.42309  0.82699  0.79009  1.0000
  C   C1046     1.0  0.61903  0.84844  0.94914  1.0000
  S   S353      1.0  0.40330  0.86914  0.83228  1.0000
  H   H1054     1.0  0.41275  0.91536  0.53267  1.0000
  S   S354      1.0  0.38505  0.96580  0.63740  1.0000
  C   C1047     1.0  0.62411  0.88532  0.96931  1.0000
  Fe  Fe181     1.0  0.37740  0.77384  0.70113  1.0000
  H   H1055     1.0  0.49429  0.91552  0.61931  1.0000
  H   H1056     1.0  0.43311  0.82352  0.56880  1.0000
  S   S355      1.0  0.42483  0.80340  0.62169  1.0000
  C   C1048     1.0  0.41654  0.81392  0.75790  1.0000
  H   H1057     1.0  0.43721  0.92565  0.54947  1.0000
  H   H1058     1.0  0.45956  0.93087  0.79221  1.0000
  H   H1059     1.0  0.38015  0.90457  0.74948  1.0000
  C   C1049     1.0  0.40826  0.81710  0.60202  1.0000
  C   C1050     1.0  0.47386  0.92647  0.77830  1.0000
  C   C1051     1.0  0.60974  0.83722  0.91693  1.0000
  S   S356      1.0  0.43866  0.82720  0.81217  1.0000
  C   C1052     1.0  0.41659  0.82525  0.57613  1.0000
  C   C1053     1.0  0.37202  0.92857  0.80851  1.0000
  C   C1054     1.0  0.38687  0.81926  0.61108  1.0000
  C   C1055     1.0  0.42993  0.81623  0.77254  1.0000
  C   C1056     1.0  0.40357  0.83533  0.55925  1.0000
  H   H1060     1.0  0.41009  0.84138  0.53908  1.0000
  H   H1061     1.0  0.42161  0.80501  0.74554  1.0000
  H   H1062     1.0  0.42275  0.76473  0.77607  1.0000
  S   S357      1.0  0.37732  0.80015  0.68521  1.0000
  H   H1063     1.0  0.48151  0.93672  0.76657  1.0000
  C   C1057     1.0  0.38217  0.83703  0.56803  1.0000
  S   S358      1.0  0.55807  0.98527  0.76110  1.0000
  H   H1064     1.0  0.36147  0.80619  0.56309  1.0000
  H   H1065     1.0  0.46934  0.92146  0.76341  1.0000
  S   S359      1.0  0.37303  0.86879  0.90703  1.0000
  S   S360      1.0  0.42752  0.98119  0.62421  1.0000
  N   N86       1.0  0.36127  0.90721  0.84497  1.0000
  H   H1066     1.0  0.57917  0.88977  0.94847  1.0000
  C   C1058     1.0  0.39901  0.87481  0.96509  1.0000
  Fe  Fe182     1.0  0.58322  0.98926  0.65995  1.0000
  H   H1067     1.0  0.41432  0.87259  0.96936  1.0000
  H   H1068     1.0  0.40398  0.78449  0.54889  1.0000
  H   H1069     1.0  0.60028  0.87110  0.50386  1.0000
  C   C1059     1.0  0.47305  0.97965  0.67592  1.0000
  C   C1060     1.0  0.58365  0.79409  0.63625  1.0000
  H   H1070     1.0  0.62695  0.77793  0.66170  1.0000
  N   N87       1.0  0.60553  0.76465  0.65803  1.0000
  H   H1071     1.0  0.40371  0.77551  0.61061  1.0000
  H   H1072     1.0  0.54641  0.97785  0.54170  1.0000
  H   H1073     1.0  0.51311  0.99060  0.56652  1.0000
  Fe  Fe183     1.0  0.39444  0.98682  0.64547  1.0000
  H   H1074     1.0  0.57901  0.98412  0.54543  1.0000
  C   C1061     1.0  0.48492  0.92122  0.49787  1.0000
  H   H1075     1.0  0.59560  0.85141  0.98490  1.0000
  C   C1062     1.0  0.46687  0.91897  0.49241  1.0000
  C   C1063     1.0  0.56449  0.99030  0.55537  1.0000
  H   H1076     1.0  0.34322  0.92948  0.64812  1.0000
  C   C1064     1.0  0.49978  0.99118  0.68315  1.0000
  H   H1077     1.0  0.51066  0.99097  0.69522  1.0000
  C   C1065     1.0  0.47004  0.99223  0.65369  1.0000
  C   C1066     1.0  0.47750  0.74257  0.75698  1.0000
  C   C1067     1.0  0.89911  0.21865  0.72682  1.0000
  C   C1068     1.0  0.69763  0.21544  0.62075  1.0000
  C   C1069     1.0  0.82141  0.22775  0.73692  1.0000
  C   C1070     1.0  0.72987  0.15060  0.61906  1.0000
  C   C1071     1.0  0.69547  0.16532  0.76623  1.0000
  C   C1072     1.0  0.69392  0.12253  0.76907  1.0000
  C   C1073     1.0  0.81307  0.22138  0.72062  1.0000
  C   C1074     1.0  0.67552  0.17276  0.76291  1.0000
  H   H1078     1.0  0.75641  0.15917  0.63814  1.0000
  H   H1079     1.0  0.90341  0.23792  0.81449  1.0000
  H   H1080     1.0  0.68923  0.11857  0.75312  1.0000
  C   C1075     1.0  0.74766  0.16997  0.62666  1.0000
  H   H1081     1.0  0.90890  0.22448  0.70809  1.0000
  C   C1076     1.0  0.84555  0.23839  0.69735  1.0000
  C   C1077     1.0  0.88591  0.22720  0.79682  1.0000
  H   H1082     1.0  0.70014  0.23501  0.66239  1.0000
  S   S361      1.0  0.70566  0.12116  0.67333  1.0000
  C   C1078     1.0  0.70516  0.15885  0.58974  1.0000
  H   H1083     1.0  0.68624  0.11647  0.78935  1.0000
  N   N88       1.0  0.73331  0.16597  0.61359  1.0000
  C   C1079     1.0  0.71524  0.22204  0.60729  1.0000
  C   C1080     1.0  0.83745  0.23179  0.68115  1.0000
  Fe  Fe184     1.0  0.77919  0.20906  0.68282  1.0000
  S   S362      1.0  0.75390  0.22785  0.66720  1.0000
  S   S363      1.0  0.81048  0.21643  0.67103  1.0000
  Fe  Fe185     1.0  0.75077  0.18429  0.70552  1.0000
  S   S364      1.0  0.72337  0.20128  0.69211  1.0000
  S   S365      1.0  0.74799  0.15884  0.72674  1.0000
  Fe  Fe186     1.0  0.74578  0.20833  0.65363  1.0000
  S   S366      1.0  0.73978  0.21159  0.61189  1.0000
  Fe  Fe187     1.0  0.73428  0.21895  0.70723  1.0000
  N   N89       1.0  0.68791  0.13994  0.76618  1.0000
  S   S367      1.0  0.77264  0.19005  0.66568  1.0000
  S   S368      1.0  0.75996  0.20146  0.72423  1.0000
  H   H1084     1.0  0.71677  0.14309  0.77133  1.0000
  C   C1081     1.0  0.69532  0.22591  0.75614  1.0000
  H   H1085     1.0  0.93170  0.24012  0.77355  1.0000
  H   H1086     1.0  0.71905  0.20535  0.76429  1.0000
  C   C1082     1.0  0.70861  0.17450  0.58444  1.0000
  C   C1083     1.0  0.71542  0.13167  0.69053  1.0000
  C   C1084     1.0  0.71171  0.14846  0.68436  1.0000
  C   C1085     1.0  0.72175  0.15693  0.69518  1.0000
  C   C1086     1.0  0.73550  0.14864  0.71227  1.0000
  C   C1087     1.0  0.73876  0.13188  0.71894  1.0000
  C   C1088     1.0  0.72884  0.12341  0.70800  1.0000
  H   H1087     1.0  0.87333  0.22636  0.81438  1.0000
  H   H1088     1.0  0.71881  0.16984  0.69035  1.0000
  H   H1089     1.0  0.74935  0.12540  0.73218  1.0000
  H   H1090     1.0  0.73205  0.11045  0.71246  1.0000
  C   C1089     1.0  0.82099  0.22348  0.69262  1.0000
  H   H1091     1.0  0.71277  0.13468  0.61215  1.0000
  C   C1090     1.0  0.70290  0.21048  0.76947  1.0000
  H   H1092     1.0  0.70135  0.15490  0.67084  1.0000
  H   H1093     1.0  0.84370  0.23338  0.65950  1.0000
  C   C1091     1.0  0.68960  0.20171  0.78986  1.0000
  H   H1094     1.0  0.75895  0.17658  0.61117  1.0000
  C   C1092     1.0  0.71571  0.14683  0.60731  1.0000
  H   H1095     1.0  0.72559  0.19002  0.59214  1.0000
  C   C1093     1.0  0.88514  0.22215  0.77366  1.0000
  C   C1094     1.0  0.91861  0.23494  0.77390  1.0000
  H   H1096     1.0  0.92943  0.23133  0.73300  1.0000
  C   C1095     1.0  0.72289  0.17785  0.59653  1.0000
  H   H1097     1.0  0.69554  0.18990  0.80050  1.0000
  H   H1098     1.0  0.80064  0.21474  0.72972  1.0000
  H   H1099     1.0  0.69901  0.20417  0.63529  1.0000
  C   C1096     1.0  0.71346  0.23649  0.58824  1.0000
  N   N90       1.0  0.90043  0.22391  0.75090  1.0000
  C   C1097     1.0  0.67832  0.22323  0.61468  1.0000
  H   H1100     1.0  0.70014  0.18396  0.57115  1.0000
  H   H1101     1.0  0.69425  0.15611  0.58029  1.0000
  C   C1098     1.0  0.90276  0.23368  0.79686  1.0000
  H   H1102     1.0  0.73781  0.14117  0.63294  1.0000
  H   H1103     1.0  0.81524  0.22608  0.75858  1.0000
  C   C1099     1.0  0.91719  0.22998  0.75094  1.0000
  H   H1104     1.0  0.87188  0.21727  0.77367  1.0000
  H   H1105     1.0  0.73903  0.17777  0.64116  1.0000
  S   S369      1.0  0.71146  0.23649  0.72926  1.0000
  H   H1106     1.0  0.68155  0.22483  0.70911  1.0000
  H   H1107     1.0  0.88302  0.22195  0.72340  1.0000
  C   C1100     1.0  0.67657  0.23779  0.59571  1.0000
  H   H1108     1.0  0.90402  0.20546  0.72958  1.0000
  C   C1101     1.0  0.83748  0.23644  0.72527  1.0000
  C   C1102     1.0  0.68398  0.23988  0.66903  1.0000
  S   S370      1.0  0.68007  0.08822  0.73663  1.0000
  C   C1103     1.0  0.67444  0.23252  0.76308  1.0000
  Fe  Fe188     1.0  0.68050  0.10796  0.69924  1.0000
  H   H1109     1.0  0.77092  0.23459  0.71164  1.0000
  H   H1110     1.0  0.71084  0.11852  0.76699  1.0000
  C   C1104     1.0  0.70130  0.14876  0.76838  1.0000
  H   H1111     1.0  0.70643  0.17227  0.76716  1.0000
  H   H1112     1.0  0.72708  0.24149  0.57754  1.0000
  C   C1105     1.0  0.67355  0.23417  0.69524  1.0000
  Fe  Fe189     1.0  0.82876  0.39466  0.30997  1.0000
  S   S371      1.0  0.84462  0.36916  0.31988  1.0000
  S   S372      1.0  0.79499  0.40074  0.30912  1.0000
  Fe  Fe190     1.0  0.86857  0.40728  0.29710  1.0000
  S   S373      1.0  0.88799  0.38279  0.30424  1.0000
  S   S374      1.0  0.88013  0.43010  0.29104  1.0000
  Fe  Fe191     1.0  0.86769  0.37628  0.28205  1.0000
  S   S375      1.0  0.87497  0.35976  0.25282  1.0000
  Fe  Fe192     1.0  0.86312  0.37800  0.34128  1.0000
  S   S376      1.0  0.87375  0.36412  0.37983  1.0000
  S   S377      1.0  0.85082  0.40139  0.27094  1.0000
  S   S378      1.0  0.84475  0.40294  0.33533  1.0000
  Fe  Fe193     1.0  0.89573  0.38771  0.10149  1.0000
  S   S379      1.0  0.86129  0.39282  0.11038  1.0000
  S   S380      1.0  0.91141  0.39158  0.13193  1.0000
  Fe  Fe194     1.0  0.89817  0.38324  0.04434  1.0000
  S   S381      1.0  0.86375  0.38839  0.04854  1.0000
  H   H1113     1.0  0.68608  0.45597  0.21037  1.0000
  Fe  Fe195     1.0  0.86458  0.40797  0.06842  1.0000
  S   S382      1.0  0.84562  0.43263  0.06270  1.0000
  Fe  Fe196     1.0  0.86397  0.37273  0.09002  1.0000
  S   S383      1.0  0.84248  0.35554  0.11050  1.0000
  S   S384      1.0  0.89889  0.40433  0.06071  1.0000
  S   S385      1.0  0.89848  0.36596  0.08464  1.0000
  C   C1106     1.0  0.73963  0.46376  0.26634  1.0000
  H   H1114     1.0  0.78281  0.45332  0.31156  1.0000
  H   H1115     1.0  0.85748  0.40841  0.19000  1.0000
  Fe  Fe197     1.0  0.81847  0.47003  0.18635  1.0000
  H   H1116     1.0  0.79190  0.41569  0.21971  1.0000
  S   S386      1.0  0.84305  0.44995  0.17399  1.0000
  C   C1107     1.0  0.79390  0.33502  0.28926  1.0000
  C   C1108     1.0  0.84108  0.39262  0.18125  1.0000
  H   H1117     1.0  0.78864  0.45318  0.12814  1.0000
  H   H1118     1.0  0.88272  0.36831  0.01068  1.0000
  S   S387      1.0  0.79106  0.46489  0.21910  1.0000
  Fe  Fe198     1.0  0.73583  0.38355  0.16482  1.0000
  S   S388      1.0  0.70262  0.39008  0.18440  1.0000
  S   S389      1.0  0.74886  0.38862  0.12002  1.0000
  Fe  Fe199     1.0  0.74999  0.37087  0.21823  1.0000
  S   S390      1.0  0.71807  0.37591  0.24305  1.0000
  S   S391      1.0  0.78013  0.36133  0.23175  1.0000
  Fe  Fe200     1.0  0.70809  0.36620  0.21295  1.0000
  C   C1109     1.0  0.73497  0.43638  0.28412  1.0000
  Fe  Fe201     1.0  0.71542  0.39925  0.21253  1.0000
  S   S392      1.0  0.70162  0.42291  0.22478  1.0000
  S   S393      1.0  0.74057  0.35904  0.19107  1.0000
  S   S394      1.0  0.74797  0.39485  0.19018  1.0000
  C   C1110     1.0  0.71705  0.35658  0.13599  1.0000
  H   H1119     1.0  0.84709  0.32227  0.23847  1.0000
  H   H1120     1.0  0.80158  0.40950  0.12877  1.0000
  H   H1121     1.0  0.84830  0.34323  0.23366  1.0000
  S   S395      1.0  0.82701  0.48644  0.20649  1.0000
  C   C1111     1.0  0.82480  0.41368  0.20588  1.0000
  C   C1112     1.0  0.75622  0.46062  0.27948  1.0000
  H   H1122     1.0  0.75301  0.46806  0.13842  1.0000
  N   N91       1.0  0.87843  0.47560  0.17701  1.0000
  H   H1123     1.0  0.78253  0.34259  0.32752  1.0000
  H   H1124     1.0  0.80686  0.42601  0.10096  1.0000
  N   N92       1.0  0.82234  0.38866  0.18364  1.0000
  C   C1113     1.0  0.76323  0.42373  0.13324  1.0000
  H   H1125     1.0  0.84729  0.34028  0.29476  1.0000
  H   H1126     1.0  0.88261  0.45010  0.18378  1.0000
  H   H1127     1.0  0.77880  0.33432  0.28677  1.0000
  C   C1114     1.0  0.85630  0.41737  0.99356  1.0000
  H   H1128     1.0  0.81703  0.34539  0.33156  1.0000
  H   H1129     1.0  0.80930  0.32914  0.25070  1.0000
  N   N93       1.0  0.76196  0.44573  0.29465  1.0000
  H   H1130     1.0  0.86270  0.32826  0.25602  1.0000
  C   C1115     1.0  0.72886  0.45157  0.26891  1.0000
  H   H1131     1.0  0.72692  0.42674  0.28571  1.0000
  C   C1116     1.0  0.73300  0.46677  0.19737  1.0000
  C   C1117     1.0  0.71178  0.46820  0.19984  1.0000
  C   C1118     1.0  0.70261  0.45461  0.20795  1.0000
  C   C1119     1.0  0.71457  0.43931  0.21288  1.0000
  C   C1120     1.0  0.73599  0.43768  0.21001  1.0000
  C   C1121     1.0  0.74519  0.45146  0.20257  1.0000
  H   H1132     1.0  0.79007  0.39341  0.19972  1.0000
  H   H1133     1.0  0.88312  0.48753  0.13529  1.0000
  H   H1134     1.0  0.74529  0.42588  0.21422  1.0000
  H   H1135     1.0  0.76164  0.45024  0.20051  1.0000
  H   H1136     1.0  0.83461  0.37198  0.15716  1.0000
  N   N94       1.0  0.77942  0.43130  0.12972  1.0000
  H   H1137     1.0  0.82025  0.36421  0.19028  1.0000
  H   H1138     1.0  0.68743  0.32793  0.16053  1.0000
  C   C1122     1.0  0.82106  0.37489  0.17338  1.0000
  C   C1123     1.0  0.84653  0.43958  0.09117  1.0000
  C   C1124     1.0  0.86158  0.43172  0.10647  1.0000
  C   C1125     1.0  0.86059  0.43523  0.13161  1.0000
  C   C1126     1.0  0.84470  0.44684  0.14144  1.0000
  C   C1127     1.0  0.83022  0.45538  0.12556  1.0000
  C   C1128     1.0  0.83118  0.45180  0.10030  1.0000
  H   H1139     1.0  0.87400  0.42275  0.09919  1.0000
  H   H1140     1.0  0.87207  0.42873  0.14353  1.0000
  H   H1141     1.0  0.81801  0.46443  0.13294  1.0000
  H   H1142     1.0  0.81967  0.45807  0.08833  1.0000
  C   C1129     1.0  0.77487  0.37920  0.11555  1.0000
  C   C1130     1.0  0.78039  0.36352  0.12958  1.0000
  C   C1131     1.0  0.80117  0.35626  0.12753  1.0000
  C   C1132     1.0  0.81658  0.36473  0.11174  1.0000
  C   C1133     1.0  0.81114  0.38048  0.09773  1.0000
  C   C1134     1.0  0.79026  0.38764  0.09931  1.0000
  H   H1143     1.0  0.76867  0.35679  0.14164  1.0000
  H   H1144     1.0  0.80532  0.34408  0.13834  1.0000
  H   H1145     1.0  0.82298  0.38709  0.08554  1.0000
  H   H1146     1.0  0.78609  0.39975  0.08831  1.0000
  C   C1135     1.0  0.86660  0.37390  0.40733  1.0000
  C   C1136     1.0  0.87770  0.36885  0.42837  1.0000
  C   C1137     1.0  0.87346  0.37750  0.44912  1.0000
  C   C1138     1.0  0.85793  0.39111  0.44893  1.0000
  C   C1139     1.0  0.84619  0.39566  0.42867  1.0000
  C   C1140     1.0  0.85055  0.38711  0.40786  1.0000
  H   H1147     1.0  0.89000  0.35852  0.42815  1.0000
  H   H1148     1.0  0.88251  0.37391  0.46478  1.0000
  H   H1149     1.0  0.83394  0.40603  0.42877  1.0000
  H   H1150     1.0  0.84146  0.39073  0.39230  1.0000
  C   C1141     1.0  0.88506  0.36871  0.21929  1.0000
  C   C1142     1.0  0.89228  0.38310  0.21370  1.0000
  C   C1143     1.0  0.90063  0.38997  0.18681  1.0000
  C   C1144     1.0  0.90126  0.38270  0.16543  1.0000
  C   C1145     1.0  0.89373  0.36845  0.17097  1.0000
  C   C1146     1.0  0.88585  0.36137  0.19792  1.0000
  H   H1151     1.0  0.89185  0.38875  0.23014  1.0000
  H   H1152     1.0  0.90651  0.40098  0.18254  1.0000
  H   H1153     1.0  0.89434  0.36274  0.15451  1.0000
  H   H1154     1.0  0.88051  0.35016  0.20214  1.0000
  C   C1147     1.0  0.85849  0.44511  0.28739  1.0000
  C   C1148     1.0  0.84580  0.44432  0.27059  1.0000
  C   C1149     1.0  0.82796  0.45577  0.26819  1.0000
  C   C1150     1.0  0.82237  0.46783  0.28313  1.0000
  C   C1151     1.0  0.83504  0.46871  0.30001  1.0000
  C   C1152     1.0  0.85334  0.45746  0.30180  1.0000
  H   H1155     1.0  0.84993  0.43504  0.25895  1.0000
  H   H1156     1.0  0.81842  0.45504  0.25499  1.0000
  C   C1153     1.0  0.84258  0.40525  0.19210  1.0000
  H   H1157     1.0  0.86322  0.45814  0.31473  1.0000
  C   C1154     1.0  0.79066  0.39021  0.28709  1.0000
  C   C1155     1.0  0.80730  0.38101  0.27265  1.0000
  C   C1156     1.0  0.80394  0.37230  0.25552  1.0000
  C   C1157     1.0  0.78394  0.37273  0.25270  1.0000
  C   C1158     1.0  0.76729  0.38225  0.26651  1.0000
  C   C1159     1.0  0.77063  0.39089  0.28388  1.0000
  H   H1158     1.0  0.82282  0.38049  0.27467  1.0000
  H   H1159     1.0  0.81694  0.36536  0.24426  1.0000
  H   H1160     1.0  0.75178  0.38267  0.26432  1.0000
  H   H1161     1.0  0.75763  0.39779  0.29516  1.0000
  N   N95       1.0  0.87926  0.41684  0.37869  1.0000
  C   C1160     1.0  0.88991  0.40599  0.36300  1.0000
  C   C1161     1.0  0.88423  0.41624  0.40296  1.0000
  C   C1162     1.0  0.90604  0.39417  0.37148  1.0000
  C   C1163     1.0  0.90047  0.40472  0.41187  1.0000
  C   C1164     1.0  0.91135  0.39357  0.39606  1.0000
  C   C1165     1.0  0.86138  0.42835  0.37057  1.0000
  H   H1162     1.0  0.88569  0.40619  0.34409  1.0000
  H   H1163     1.0  0.87508  0.42424  0.41617  1.0000
  H   H1164     1.0  0.91381  0.38518  0.35951  1.0000
  H   H1165     1.0  0.90381  0.40396  0.43161  1.0000
  H   H1166     1.0  0.92337  0.38414  0.40331  1.0000
  H   H1167     1.0  0.86272  0.43100  0.34816  1.0000
  H   H1168     1.0  0.84713  0.42332  0.38030  1.0000
  H   H1169     1.0  0.85995  0.43987  0.37666  1.0000
  C   C1166     1.0  0.83239  0.33845  0.29336  1.0000
  C   C1167     1.0  0.70814  0.36499  0.11385  1.0000
  C   C1168     1.0  0.80482  0.39690  0.19703  1.0000
  H   H1170     1.0  0.87999  0.42810  0.01399  1.0000
  H   H1171     1.0  0.88479  0.46896  0.25130  1.0000
  H   H1172     1.0  0.76461  0.47012  0.27724  1.0000
  C   C1169     1.0  0.75165  0.43366  0.29694  1.0000
  C   C1170     1.0  0.77590  0.44709  0.13116  1.0000
  C   C1171     1.0  0.79597  0.33980  0.31198  1.0000
  H   H1173     1.0  0.71388  0.37551  0.10088  1.0000
  C   C1172     1.0  0.88452  0.45778  0.21900  1.0000
  C   C1173     1.0  0.75576  0.45561  0.13676  1.0000
  C   C1174     1.0  0.74290  0.43181  0.13920  1.0000
  Fe  Fe202     1.0  0.79769  0.48363  0.23650  1.0000
  C   C1175     1.0  0.80576  0.40949  0.20843  1.0000
  H   H1174     1.0  0.72971  0.36051  0.14003  1.0000
  H   H1175     1.0  0.87987  0.46711  0.14117  1.0000
  N   N96       1.0  0.68469  0.34652  0.12521  1.0000
  C   C1176     1.0  0.87716  0.48852  0.18795  1.0000
  S   S396      1.0  0.85410  0.40371  0.47182  1.0000
  C   C1177     1.0  0.73917  0.44785  0.14103  1.0000
  H   H1176     1.0  0.85503  0.38598  0.17102  1.0000
  H   H1177     1.0  0.83085  0.47816  0.31137  1.0000
  C   C1178     1.0  0.80065  0.42270  0.12318  1.0000
  H   H1178     1.0  0.73013  0.42560  0.14257  1.0000
  H   H1179     1.0  0.71600  0.45381  0.25877  1.0000
  S   S397      1.0  0.68876  0.34664  0.22621  1.0000
  S   S398      1.0  0.80002  0.48207  0.27925  1.0000
  H   H1180     1.0  0.79393  0.43739  0.29313  1.0000
  S   S399      1.0  0.92008  0.38038  0.00465  1.0000
  H   H1181     1.0  0.75636  0.42184  0.30874  1.0000
  H   H1182     1.0  0.76597  0.41132  0.13171  1.0000
  H   H1183     1.0  0.81075  0.42571  0.13431  1.0000
  C   C1179     1.0  0.81534  0.34144  0.31417  1.0000
  H   H1184     1.0  0.72348  0.45419  0.14617  1.0000
  C   C1180     1.0  0.84792  0.33172  0.24872  1.0000
  H   H1185     1.0  0.88713  0.44569  0.23108  1.0000
  C   C1181     1.0  0.78005  0.44235  0.30707  1.0000
  C   C1182     1.0  0.81128  0.33208  0.26888  1.0000
  N   N97       1.0  0.83022  0.33372  0.27119  1.0000
  H   H1186     1.0  0.82586  0.42335  0.21470  1.0000
  H   H1187     1.0  0.80709  0.37725  0.16454  1.0000
  H   H1188     1.0  0.77810  0.43339  0.32656  1.0000
  H   H1189     1.0  0.71593  0.33690  0.17074  1.0000
  H   H1190     1.0  0.84910  0.42165  0.01219  1.0000
  C   C1183     1.0  0.70953  0.34320  0.15291  1.0000
  C   C1184     1.0  0.87473  0.47825  0.14940  1.0000
  C   C1185     1.0  0.69333  0.33823  0.14706  1.0000
  C   C1186     1.0  0.88201  0.46037  0.19218  1.0000
  C   C1187     1.0  0.69181  0.35979  0.10876  1.0000
  C   C1188     1.0  0.88319  0.47087  0.23035  1.0000
  H   H1191     1.0  0.68483  0.36644  0.09161  1.0000
  C   C1189     1.0  0.87954  0.48636  0.21476  1.0000
  H   H1192     1.0  0.73533  0.47549  0.25384  1.0000
  H   H1193     1.0  0.70227  0.47994  0.19581  1.0000
  H   H1194     1.0  0.85794  0.48217  0.14967  1.0000
  S   S400      1.0  0.74324  0.48456  0.18683  1.0000
  Fe  Fe203     1.0  0.77416  0.48575  0.19348  1.0000
  S   S401      1.0  0.80125  0.48985  0.15918  1.0000
  H   H1195     1.0  0.90256  0.41549  0.99922  1.0000
  C   C1190     1.0  0.88886  0.42463  0.99457  1.0000
  H   H1196     1.0  0.96444  0.36498  0.00204  1.0000
  H   H1197     1.0  0.82895  0.40952  0.99181  1.0000
  Fe  Fe204     1.0  0.93321  0.46463  0.70482  1.0000
  S   S402      1.0  0.92893  0.45628  0.75009  1.0000
  S   S403      1.0  0.93208  0.43248  0.64018  1.0000
  S   S404      1.0  0.95782  0.45232  0.67551  1.0000
  Fe  Fe205     1.0  0.88807  0.41467  0.53692  1.0000
  S   S405      1.0  0.90163  0.39171  0.56192  1.0000
  S   S406      1.0  0.88799  0.43900  0.54411  1.0000
  Fe  Fe206     1.0  0.87313  0.38295  0.56371  1.0000
  S   S407      1.0  0.85952  0.37192  0.60663  1.0000
  S   S408      1.0  0.85824  0.40661  0.54199  1.0000
  Fe  Fe207     1.0  0.88293  0.28733  0.67737  1.0000
  S   S409      1.0  0.89565  0.26154  0.69304  1.0000
  S   S410      1.0  0.88234  0.29665  0.63311  1.0000
  Fe  Fe208     1.0  0.87252  0.29546  0.73284  1.0000
  S   S411      1.0  0.88398  0.27037  0.75322  1.0000
  S   S412      1.0  0.85995  0.31482  0.75672  1.0000
  Fe  Fe209     1.0  0.91070  0.27147  0.71770  1.0000
  S   S413      1.0  0.94370  0.26186  0.72272  1.0000
  Fe  Fe210     1.0  0.86771  0.26312  0.72675  1.0000
  S   S414      1.0  0.90026  0.29714  0.69899  1.0000
  S   S415      1.0  0.85394  0.28828  0.70930  1.0000
  Fe  Fe211     1.0  0.91797  0.33696  0.84353  1.0000
  S   S416      1.0  0.89024  0.35650  0.84634  1.0000
  S   S417      1.0  0.92116  0.31360  0.83124  1.0000
  Fe  Fe212     1.0  0.94581  0.35732  0.85105  1.0000
  S   S418      1.0  0.92081  0.37890  0.85388  1.0000
  S   S419      1.0  0.97946  0.35558  0.84827  1.0000
  Fe  Fe213     1.0  0.90183  0.36077  0.88041  1.0000
  S   S420      1.0  0.88007  0.36471  0.91937  1.0000
  Fe  Fe214     1.0  0.91153  0.37270  0.81973  1.0000
  S   S421      1.0  0.90504  0.38774  0.77989  1.0000
  S   S422      1.0  0.92778  0.33957  0.88016  1.0000
  S   S423      1.0  0.93842  0.35290  0.81448  1.0000
  C   C1191     1.0  0.98592  0.36685  0.86718  1.0000
  H   H1198     1.0  0.90169  0.41303  0.94959  1.0000
  C   C1192     1.0  0.98895  0.28056  0.73560  1.0000
  C   C1193     1.0  0.98090  0.37871  0.52793  1.0000
  C   C1194     1.0  0.99038  0.34807  0.93753  1.0000
  C   C1195     1.0  0.97079  0.37608  0.88348  1.0000
  C   C1196     1.0  0.89056  0.36979  0.98963  1.0000
  C   C1197     1.0  0.86525  0.43474  0.62755  1.0000
  H   H1199     1.0  0.93438  0.38056  0.94775  1.0000
  H   H1200     1.0  0.95466  0.37626  0.88480  1.0000
  C   C1198     1.0  0.87644  0.31410  0.77832  1.0000
  C   C1199     1.0  0.87117  0.32459  0.79627  1.0000
  C   C1200     1.0  0.88471  0.32437  0.81289  1.0000
  C   C1201     1.0  0.90351  0.31364  0.81162  1.0000
  C   C1202     1.0  0.90866  0.30308  0.79381  1.0000
  C   C1203     1.0  0.89524  0.30341  0.77706  1.0000
  H   H1201     1.0  0.85659  0.33283  0.79742  1.0000
  H   H1202     1.0  0.88038  0.33229  0.82700  1.0000
  H   H1203     1.0  0.92309  0.29470  0.79273  1.0000
  H   H1204     1.0  0.89952  0.29540  0.76311  1.0000
  C   C1204     1.0  0.86394  0.35096  0.61396  1.0000
  C   C1205     1.0  0.86908  0.34243  0.59311  1.0000
  C   C1206     1.0  0.87373  0.32565  0.59926  1.0000
  C   C1207     1.0  0.87375  0.31741  0.62617  1.0000
  C   C1208     1.0  0.86824  0.32593  0.64710  1.0000
  C   C1209     1.0  0.86319  0.34269  0.64100  1.0000
  H   H1205     1.0  0.86928  0.34874  0.57229  1.0000
  H   H1206     1.0  0.87772  0.31908  0.58308  1.0000
  H   H1207     1.0  0.86797  0.31962  0.66795  1.0000
  H   H1208     1.0  0.85902  0.34927  0.65718  1.0000
  C   C1210     1.0  0.84476  0.41061  0.98204  1.0000
  C   C1211     1.0  0.92212  0.43559  0.61095  1.0000
  C   C1212     1.0  0.92570  0.42286  0.59785  1.0000
  C   C1213     1.0  0.91633  0.42436  0.57605  1.0000
  C   C1214     1.0  0.90281  0.43835  0.56776  1.0000
  C   C1215     1.0  0.90004  0.45147  0.57991  1.0000
  C   C1216     1.0  0.90979  0.45012  0.60151  1.0000
  H   H1209     1.0  0.93553  0.41170  0.60473  1.0000
  H   H1210     1.0  0.91966  0.41467  0.56566  1.0000
  H   H1211     1.0  0.88982  0.46245  0.57325  1.0000
  C   C1217     1.0  0.92299  0.43698  0.75864  1.0000
  C   C1218     1.0  0.92182  0.42967  0.73820  1.0000
  C   C1219     1.0  0.91620  0.41458  0.74495  1.0000
  C   C1220     1.0  0.91212  0.40658  0.77214  1.0000
  C   C1221     1.0  0.91364  0.41372  0.79265  1.0000
  C   C1222     1.0  0.91902  0.42896  0.78590  1.0000
  H   H1212     1.0  0.92520  0.43559  0.71711  1.0000
  H   H1213     1.0  0.91515  0.40907  0.72902  1.0000
  H   H1214     1.0  0.91011  0.40773  0.81371  1.0000
  H   H1215     1.0  0.91984  0.43462  0.80177  1.0000
  C   C1223     1.0  0.89212  0.36770  0.94334  1.0000
  C   C1224     1.0  0.91131  0.37251  0.93525  1.0000
  H   H1216     1.0  0.86705  0.36242  0.97688  1.0000
  H   H1217     1.0  0.91924  0.37373  0.91423  1.0000
  H   H1218     1.0  0.96120  0.38223  0.80070  1.0000
  C   C1225     1.0  0.99215  0.36192  0.97131  1.0000
  C   C1226     1.0  0.80642  0.27138  0.70511  1.0000
  C   C1227     1.0  0.99927  0.47836  0.67953  1.0000
  H   H1219     1.0  0.68160  0.25613  0.63091  1.0000
  H   H1220     1.0  0.81317  0.27615  0.71755  1.0000
  H   H1221     1.0  0.76058  0.24675  0.73662  1.0000
  C   C1228     1.0  0.97935  0.42643  0.60308  1.0000
  H   H1222     1.0  0.99774  0.37314  0.78437  1.0000
  C   C1229     1.0  0.97201  0.36007  0.98409  1.0000
  H   H1223     1.0  0.95542  0.28357  0.82860  1.0000
  H   H1224     1.0  0.99151  0.40657  0.63240  1.0000
  C   C1230     1.0  0.92297  0.31557  0.59288  1.0000
  H   H1225     1.0  0.78465  0.26126  0.73892  1.0000
  C   C1231     1.0  0.76559  0.24713  0.71442  1.0000
  C   C1232     1.0  0.96436  0.39419  0.80006  1.0000
  C   C1233     1.0  0.00158  0.35558  0.94822  1.0000
  H   H1226     1.0  0.95488  0.42283  0.52963  1.0000
  H   H1227     1.0  0.86123  0.44754  0.62658  1.0000
  C   C1234     1.0  0.97422  0.31451  0.80817  1.0000
  H   H1228     1.0  0.89520  0.40174  0.65772  1.0000
  H   H1229     1.0  0.93614  0.40471  0.52038  1.0000
  H   H1230     1.0  0.85797  0.24503  0.68818  1.0000
  H   H1231     1.0  0.96223  0.40219  0.78019  1.0000
  C   C1235     1.0  0.98508  0.32425  0.81461  1.0000
  H   H1232     1.0  0.92586  0.33603  0.76562  1.0000
  C   C1236     1.0  0.96671  0.28810  0.81037  1.0000
  C   C1237     1.0  0.95151  0.40019  0.52412  1.0000
  C   C1238     1.0  0.95835  0.30114  0.73609  1.0000
  N   N98       1.0  0.97036  0.34683  0.94962  1.0000
  H   H1233     1.0  0.92133  0.35444  0.56301  1.0000
  C   C1239     1.0  0.97664  0.38496  0.89843  1.0000
  H   H1234     1.0  0.96502  0.39193  0.91140  1.0000
  H   H1235     1.0  0.94184  0.34306  0.94418  1.0000
  C   C1240     1.0  0.92244  0.34167  0.56514  1.0000
  C   C1241     1.0  0.88183  0.36626  0.97055  1.0000
  C   C1242     1.0  0.98218  0.40498  0.53411  1.0000
  N   N99       1.0  0.98533  0.39295  0.80394  1.0000
  H   H1236     1.0  0.82717  0.27935  0.66776  1.0000
  C   C1243     1.0  0.96218  0.41049  0.52939  1.0000
  S   S424      1.0  0.99064  0.48423  0.62874  1.0000
  H   H1237     1.0  0.95921  0.44117  0.56519  1.0000
  N   N100      1.0  0.89949  0.34954  0.74942  1.0000
  C   C1244     1.0  0.90214  0.34012  0.73102  1.0000
  C   C1245     1.0  0.88195  0.36074  0.75354  1.0000
  C   C1246     1.0  0.88673  0.34155  0.71662  1.0000
  C   C1247     1.0  0.86612  0.36233  0.73975  1.0000
  C   C1248     1.0  0.86852  0.35258  0.72131  1.0000
  C   C1249     1.0  0.91570  0.34800  0.76439  1.0000
  H   H1238     1.0  0.91587  0.33104  0.72812  1.0000
  N   N101      1.0  0.97810  0.29826  0.81724  1.0000
  H   H1239     1.0  0.88836  0.33353  0.70309  1.0000
  C   C1250     1.0  0.79028  0.26288  0.71711  1.0000
  H   H1240     1.0  0.85607  0.35321  0.71126  1.0000
  H   H1241     1.0  0.90871  0.34927  0.78567  1.0000
  N   N102      1.0  0.97837  0.44236  0.59150  1.0000
  H   H1242     1.0  0.96287  0.31998  0.79555  1.0000
  C   C1251     1.0  0.86336  0.41184  0.61253  1.0000
  C   C1252     1.0  0.87666  0.40213  0.62925  1.0000
  C   C1253     1.0  0.88440  0.40900  0.64522  1.0000
  H   H1243     1.0  0.85741  0.40639  0.60022  1.0000
  H   H1244     1.0  0.88105  0.38940  0.62949  1.0000
  H   H1245     1.0  0.98362  0.47636  0.68739  1.0000
  H   H1246     1.0  0.88593  0.47056  0.74268  1.0000
  Fe  Fe215     1.0  0.96055  0.47698  0.65122  1.0000
  C   C1254     1.0  0.96141  0.35220  0.97317  1.0000
  C   C1255     1.0  0.80608  0.26628  0.66170  1.0000
  N   N103      1.0  0.85821  0.42798  0.61138  1.0000
  S   S425      1.0  0.99513  0.41864  0.53943  1.0000
  H   H1247     1.0  0.90739  0.35013  0.61253  1.0000
  S   S426      1.0  0.94679  0.37152  0.51713  1.0000
  H   H1248     1.0  0.93332  0.34028  0.61647  1.0000
  C   C1256     1.0  0.95720  0.27516  0.72865  1.0000
  Fe  Fe216     1.0  0.93234  0.45461  0.65385  1.0000
  Fe  Fe217     1.0  0.87317  0.39709  0.50407  1.0000
  S   S427      1.0  0.90734  0.46503  0.68502  1.0000
  C   C1257     1.0  0.00080  0.44441  0.61914  1.0000
  H   H1249     1.0  0.95308  0.45914  0.57833  1.0000
  H   H1250     1.0  0.99759  0.34369  0.91900  1.0000
  H   H1251     1.0  0.95061  0.31310  0.73838  1.0000
  H   H1252     1.0  0.97748  0.27799  0.80230  1.0000
  Fe  Fe218     1.0  0.91355  0.38372  0.52249  1.0000
  C   C1258     1.0  0.99231  0.29137  0.83330  1.0000
  H   H1253     1.0  0.00036  0.36847  0.97898  1.0000
  H   H1254     1.0  0.96236  0.34277  0.91504  1.0000
  H   H1255     1.0  0.98805  0.46401  0.59032  1.0000
  H   H1256     1.0  0.75189  0.25248  0.70499  1.0000
  H   H1257     1.0  0.95793  0.29489  0.79435  1.0000
  C   C1259     1.0  0.90940  0.37510  0.98142  1.0000
  C   C1260     1.0  0.95877  0.33925  0.93765  1.0000
  H   H1258     1.0  0.97699  0.41249  0.82434  1.0000
  C   C1261     1.0  0.00093  0.38164  0.79402  1.0000
  H   H1259     1.0  0.92586  0.29636  0.57246  1.0000
  H   H1260     1.0  0.84537  0.43266  0.57593  1.0000
  H   H1261     1.0  0.92796  0.31436  0.52652  1.0000
  H   H1262     1.0  0.97577  0.45560  0.55179  1.0000
  C   C1262     1.0  0.92527  0.30909  0.57007  1.0000
  H   H1263     1.0  0.90708  0.46004  0.61154  1.0000
  S   S428      1.0  0.88610  0.37259  0.52621  1.0000
  S   S429      1.0  0.93869  0.48924  0.68285  1.0000
  H   H1264     1.0  0.88474  0.43086  0.65662  1.0000
  C   C1263     1.0  0.96597  0.45000  0.57070  1.0000
  C   C1264     1.0  0.99160  0.38905  0.53348  1.0000
  H   H1265     1.0  0.95266  0.39908  0.81650  1.0000
  C   C1265     1.0  0.91983  0.37638  0.95422  1.0000
  N   N104      1.0  0.92109  0.33173  0.59027  1.0000
  S   S430      1.0  0.99180  0.30971  0.74465  1.0000
  C   C1266     1.0  0.92628  0.31919  0.54440  1.0000
  H   H1266     1.0  0.88151  0.40185  0.92756  1.0000
  C   C1267     1.0  0.87847  0.42537  0.64467  1.0000
  C   C1268     1.0  0.97912  0.29612  0.73818  1.0000
  H   H1267     1.0  0.69282  0.25574  0.56817  1.0000
  H   H1268     1.0  0.82827  0.43966  0.60504  1.0000
  C   C1269     1.0  0.98885  0.45137  0.59935  1.0000
  C   C1270     1.0  0.98933  0.40351  0.81649  1.0000
  H   H1269     1.0  0.93147  0.29471  0.72993  1.0000
  S   S431      1.0  0.93701  0.47837  0.62695  1.0000
  H   H1270     1.0  0.94576  0.35081  0.98334  1.0000
  C   C1271     1.0  0.96075  0.38429  0.52335  1.0000
  C   C1272     1.0  0.84442  0.43805  0.59354  1.0000
  H   H1271     1.0  0.98564  0.25808  0.72880  1.0000
  N   N105      1.0  0.78223  0.25629  0.70172  1.0000
  H   H1272     1.0  0.85193  0.37081  0.74382  1.0000
  C   C1273     1.0  0.94745  0.29072  0.73135  1.0000
  C   C1274     1.0  0.99951  0.31736  0.83104  1.0000
  H   H1273     1.0  0.92607  0.34358  0.52198  1.0000
  H   H1274     1.0  0.99535  0.27850  0.84050  1.0000
  H   H1275     1.0  0.84910  0.44991  0.58458  1.0000
  C   C1275     1.0  0.87134  0.48859  0.76643  1.0000
  H   H1276     1.0  0.98814  0.36642  0.52731  1.0000
  C   C1276     1.0  0.91827  0.33846  0.61434  1.0000
  H   H1277     1.0  0.91144  0.33046  0.63310  1.0000
  C   C1277     1.0  0.88554  0.41274  0.95846  1.0000
  C   C1278     1.0  0.87427  0.40633  0.94600  1.0000
  C   C1279     1.0  0.92506  0.33558  0.54184  1.0000
  C   C1280     1.0  0.78997  0.25783  0.67438  1.0000
  H   H1278     1.0  0.78416  0.25204  0.66238  1.0000
  H   H1279     1.0  0.00495  0.27656  0.73726  1.0000
  H   H1280     1.0  0.81251  0.26711  0.64015  1.0000
  H   H1281     1.0  0.87997  0.36827  0.76802  1.0000
  H   H1282     1.0  0.97107  0.41928  0.59686  1.0000
  H   H1283     1.0  0.92504  0.35752  0.75461  1.0000
  H   H1284     1.0  0.92189  0.30764  0.61279  1.0000
  C   C1281     1.0  0.97798  0.27010  0.73085  1.0000
  H   H1285     1.0  0.84533  0.39938  0.94923  1.0000
  Fe  Fe219     1.0  0.91461  0.48873  0.66067  1.0000
  S   S432      1.0  0.84704  0.24478  0.74612  1.0000
  C   C1282     1.0  0.99088  0.41916  0.62323  1.0000
  H   H1286     1.0  0.88155  0.48385  0.78080  1.0000
  H   H1287     1.0  0.96270  0.32603  0.94388  1.0000
  H   H1288     1.0  0.98235  0.33707  0.80694  1.0000
  C   C1283     1.0  0.99756  0.38477  0.89665  1.0000
  C   C1284     1.0  0.00322  0.30081  0.84047  1.0000
  C   C1285     1.0  0.86145  0.48735  0.72558  1.0000
  C   C1286     1.0  0.81432  0.27310  0.67721  1.0000
  C   C1287     1.0  0.85388  0.40500  0.95815  1.0000
  C   C1288     1.0  0.87395  0.48103  0.74479  1.0000
  H   H1289     1.0  0.89411  0.43543  0.98062  1.0000
  H   H1290     1.0  0.86377  0.48196  0.70815  1.0000
  N   N106      1.0  0.87653  0.41811  0.98196  1.0000
  S   S433      1.0  0.90181  0.40730  0.49697  1.0000
  C   C1289     1.0  0.00171  0.42822  0.63120  1.0000
  S   S434      1.0  0.00514  0.39517  0.91609  1.0000
  C   C1290     1.0  0.69412  0.24449  0.58282  1.0000
  H   H1291     1.0  0.00598  0.47479  0.71934  1.0000
  C   C1291     1.0  0.67342  0.25189  0.65133  1.0000
  S   S435      1.0  0.81889  0.52937  0.16293  1.0000
  Fe  Fe220     1.0  0.88121  0.57811  0.20854  1.0000
  S   S436      1.0  0.86158  0.60245  0.20988  1.0000
  S   S437      1.0  0.86948  0.55468  0.22526  1.0000
  Fe  Fe221     1.0  0.92079  0.59158  0.18769  1.0000
  S   S438      1.0  0.90470  0.61699  0.18672  1.0000
  S   S439      1.0  0.95528  0.58537  0.17651  1.0000
  Fe  Fe222     1.0  0.88614  0.60730  0.22725  1.0000
  S   S440      1.0  0.87855  0.61903  0.26359  1.0000
  Fe  Fe223     1.0  0.88188  0.61013  0.16934  1.0000
  S   S441      1.0  0.86989  0.62780  0.13464  1.0000
  S   S442      1.0  0.90403  0.58225  0.22960  1.0000
  S   S443      1.0  0.89964  0.58541  0.16647  1.0000
  H   H1292     1.0  0.96773  0.56807  0.27637  1.0000
  H   H1293     1.0  0.98132  0.64220  0.26209  1.0000
  H   H1294     1.0  0.82351  0.57297  0.24403  1.0000
  Fe  Fe224     1.0  0.92707  0.68063  0.01646  1.0000
  S   S444      1.0  0.89394  0.68956  0.01387  1.0000
  S   S445      1.0  0.93907  0.65990  0.04775  1.0000
  C   C1292     1.0  0.79416  0.54712  0.22260  1.0000
  Fe  Fe225     1.0  0.90131  0.71396  0.00797  1.0000
  C   C1293     1.0  0.93836  0.73887  0.20148  1.0000
  H   H1295     1.0  0.97231  0.64629  0.19123  1.0000
  S   S446      1.0  0.93383  0.70477  0.01322  1.0000
  Fe  Fe226     1.0  0.91750  0.68254  0.36047  1.0000
  S   S447      1.0  0.94157  0.69703  0.35650  1.0000
  Fe  Fe227     1.0  0.93618  0.67324  0.30536  1.0000
  S   S448      1.0  0.96180  0.68689  0.29768  1.0000
  S   S449      1.0  0.94012  0.66117  0.27033  1.0000
  Fe  Fe228     1.0  0.96365  0.67661  0.34111  1.0000
  S   S450      1.0  0.99399  0.66506  0.35292  1.0000
  Fe  Fe229     1.0  0.93725  0.70596  0.31342  1.0000
  H   H1296     1.0  0.94034  0.64363  0.17887  1.0000
  S   S451      1.0  0.94012  0.66123  0.34787  1.0000
  S   S452      1.0  0.91117  0.69322  0.31823  1.0000
  C   C1294     1.0  0.99655  0.69224  0.36851  1.0000
  C   C1295     1.0  0.92954  0.69678  0.07967  1.0000
  H   H1297     1.0  0.93567  0.65592  0.42429  1.0000
  C   C1296     1.0  0.99182  0.64664  0.26980  1.0000
  C   C1297     1.0  0.93832  0.72357  0.21809  1.0000
  C   C1298     1.0  0.93860  0.72113  0.24580  1.0000
  H   H1298     1.0  0.90831  0.60876  0.30555  1.0000
  H   H1299     1.0  0.80821  0.58372  0.20283  1.0000
  C   C1299     1.0  0.88780  0.73506  0.27577  1.0000
  H   H1300     1.0  0.93772  0.70943  0.25872  1.0000
  C   C1300     1.0  0.95657  0.68560  0.43224  1.0000
  H   H1301     1.0  0.93978  0.71199  0.45892  1.0000
  C   C1301     1.0  0.90156  0.70333  0.41626  1.0000
  C   C1302     1.0  0.81471  0.56596  0.23828  1.0000
  S   S453      1.0  0.77832  0.50429  0.21386  1.0000
  H   H1302     1.0  0.98149  0.69734  0.36390  1.0000
  C   C1303     1.0  0.79576  0.56254  0.20722  1.0000
  H   H1303     1.0  0.90274  0.58726  0.28718  1.0000
  H   H1304     1.0  0.89892  0.71009  0.09070  1.0000
  C   C1304     1.0  0.88207  0.69356  0.47047  1.0000
  H   H1305     1.0  0.88488  0.62034  0.07499  1.0000
  H   H1306     1.0  0.84777  0.65635  0.05696  1.0000
  H   H1307     1.0  0.81518  0.51934  0.26991  1.0000
  C   C1305     1.0  0.97592  0.61936  0.14135  1.0000
  C   C1306     1.0  0.88948  0.63772  0.11346  1.0000
  C   C1307     1.0  0.88429  0.65281  0.09715  1.0000
  C   C1308     1.0  0.89961  0.66003  0.07777  1.0000
  C   C1309     1.0  0.92013  0.65211  0.07438  1.0000
  C   C1310     1.0  0.92547  0.63735  0.09160  1.0000
  C   C1311     1.0  0.91015  0.63015  0.11114  1.0000
  H   H1308     1.0  0.86836  0.65883  0.09927  1.0000
  H   H1309     1.0  0.89544  0.67165  0.06538  1.0000
  H   H1310     1.0  0.94135  0.63121  0.08915  1.0000
  H   H1311     1.0  0.91422  0.61843  0.12360  1.0000
  C   C1312     1.0  0.89440  0.63220  0.26403  1.0000
  C   C1313     1.0  0.91199  0.63423  0.24377  1.0000
  C   C1314     1.0  0.92551  0.64354  0.24571  1.0000
  C   C1315     1.0  0.92166  0.65081  0.26799  1.0000
  C   C1316     1.0  0.90390  0.64907  0.28815  1.0000
  C   C1317     1.0  0.89025  0.63981  0.28609  1.0000
  H   H1312     1.0  0.91540  0.62839  0.22685  1.0000
  H   H1313     1.0  0.93925  0.64483  0.23015  1.0000
  H   H1314     1.0  0.90080  0.65469  0.30540  1.0000
  H   H1315     1.0  0.87664  0.63830  0.30187  1.0000
  H   H1316     1.0  0.93778  0.60422  0.21747  1.0000
  C   C1318     1.0  0.83537  0.53540  0.17837  1.0000
  C   C1319     1.0  0.84114  0.52613  0.20243  1.0000
  C   C1320     1.0  0.85250  0.53189  0.21587  1.0000
  C   C1321     1.0  0.85810  0.54699  0.20546  1.0000
  C   C1322     1.0  0.85304  0.55605  0.18086  1.0000
  C   C1323     1.0  0.84171  0.55024  0.16734  1.0000
  C   C1324     1.0  0.91535  0.71007  0.08676  1.0000
  H   H1317     1.0  0.85730  0.56772  0.17270  1.0000
  H   H1318     1.0  0.83733  0.55748  0.14870  1.0000
  S   S454      1.0  0.88094  0.72953  0.03630  1.0000
  C   C1325     1.0  0.95723  0.58913  0.29387  1.0000
  C   C1326     1.0  0.91709  0.63647  0.01871  1.0000
  N   N107      1.0  0.87594  0.64083  0.04504  1.0000
  N   N108      1.0  0.99333  0.62063  0.14870  1.0000
  Fe  Fe230     1.0  0.80751  0.50606  0.18239  1.0000
  C   C1327     1.0  0.93133  0.67793  0.47138  1.0000
  H   H1319     1.0  0.88638  0.71935  0.22294  1.0000
  N   N109      1.0  0.94551  0.68745  0.45751  1.0000
  H   H1320     1.0  0.78661  0.53970  0.21577  1.0000
  C   C1328     1.0  0.99683  0.59332  0.21294  1.0000
  H   H1321     1.0  0.92422  0.68631  0.07837  1.0000
  C   C1329     1.0  0.89232  0.70659  0.46325  1.0000
  C   C1330     1.0  0.90273  0.64876  0.00728  1.0000
  H   H1322     1.0  0.96160  0.68722  0.06646  1.0000
  C   C1331     1.0  0.95453  0.57670  0.28345  1.0000
  H   H1323     1.0  0.94286  0.62631  0.14655  1.0000
  C   C1332     1.0  0.93886  0.66444  0.43395  1.0000
  C   C1333     1.0  0.88208  0.65078  0.02076  1.0000
  C   C1334     1.0  0.92783  0.66628  0.45983  1.0000
  S   S455      1.0  0.99569  0.61054  0.25100  1.0000
  H   H1324     1.0  0.95475  0.61041  0.32436  1.0000
  C   C1335     1.0  0.94442  0.61438  0.30948  1.0000
  H   H1325     1.0  0.83620  0.51482  0.21133  1.0000
  C   C1336     1.0  0.92248  0.72352  0.08798  1.0000
  H   H1326     1.0  0.84517  0.63755  0.05081  1.0000
  H   H1327     1.0  0.92162  0.61656  0.05223  1.0000
  H   H1328     1.0  0.93733  0.71371  0.20978  1.0000
  H   H1329     1.0  0.99932  0.71313  0.38125  1.0000
  N   N110      1.0  0.80296  0.54119  0.24499  1.0000
  C   C1337     1.0  0.92140  0.59977  0.29954  1.0000
  H   H1330     1.0  0.82009  0.54577  0.27067  1.0000
  H   H1331     1.0  0.90935  0.72182  0.43024  1.0000
  H   H1332     1.0  0.99462  0.62599  0.30256  1.0000
  H   H1333     1.0  0.96224  0.67260  0.40009  1.0000
  C   C1338     1.0  0.88696  0.72366  0.26181  1.0000
  C   C1339     1.0  0.95713  0.71108  0.07395  1.0000
  C   C1340     1.0  0.97318  0.63889  0.17699  1.0000
  H   H1334     1.0  0.87826  0.49664  0.22347  1.0000
  C   C1341     1.0  0.95528  0.63742  0.17003  1.0000
  H   H1335     1.0  0.96460  0.70093  0.46588  1.0000
  C   C1342     1.0  0.85432  0.64335  0.05919  1.0000
  H   H1336     1.0  0.97671  0.61146  0.12795  1.0000
  C   C1343     1.0  0.98469  0.60325  0.23039  1.0000
  C   C1344     1.0  0.88975  0.62829  0.05577  1.0000
  H   H1337     1.0  0.99720  0.58003  0.18302  1.0000
  H   H1338     1.0  0.85277  0.63830  0.08146  1.0000
  C   C1345     1.0  0.93907  0.73397  0.25687  1.0000
  C   C1346     1.0  0.98775  0.58765  0.19660  1.0000
  C   C1347     1.0  0.94998  0.73824  0.08305  1.0000
  H   H1339     1.0  0.85630  0.52489  0.23497  1.0000
  H   H1340     1.0  0.78737  0.52500  0.27683  1.0000
  H   H1341     1.0  0.90863  0.70746  0.39538  1.0000
  H   H1342     1.0  0.93260  0.56670  0.27219  1.0000
  N   N111      1.0  0.94081  0.60060  0.30136  1.0000
  C   C1348     1.0  0.81283  0.55049  0.25319  1.0000
  H   H1343     1.0  0.87379  0.50061  0.17617  1.0000
  S   S456      1.0  0.89373  0.67835  0.39946  1.0000
  C   C1349     1.0  0.88187  0.68530  0.45055  1.0000
  C   C1350     1.0  0.95425  0.60126  0.21600  1.0000
  H   H1344     1.0  0.87427  0.67506  0.45624  1.0000
  C   C1351     1.0  0.95056  0.69729  0.07302  1.0000
  H   H1345     1.0  0.87112  0.66055  0.01184  1.0000
  H   H1346     1.0  0.96760  0.69327  0.42107  1.0000
  C   C1352     1.0  0.91055  0.62602  0.04293  1.0000
  H   H1347     1.0  0.80096  0.51694  0.24721  1.0000
  H   H1348     1.0  0.95168  0.62251  0.29122  1.0000
  H   H1349     1.0  0.92983  0.62143  0.31898  1.0000
  C   C1353     1.0  0.80621  0.57196  0.21508  1.0000
  C   C1354     1.0  0.96339  0.60719  0.23187  1.0000
  C   C1355     1.0  0.90171  0.71160  0.43604  1.0000
  S   S457      1.0  0.93701  0.73160  0.29194  1.0000
  H   H1350     1.0  0.95392  0.61481  0.24534  1.0000
  N   N112      1.0  0.94312  0.72384  0.08189  1.0000
  C   C1356     1.0  0.89208  0.68993  0.42349  1.0000
  C   C1357     1.0  0.96645  0.59170  0.19802  1.0000
  C   C1358     1.0  0.80148  0.52488  0.26056  1.0000
  C   C1359     1.0  0.91813  0.58751  0.28930  1.0000
  C   C1360     1.0  0.95666  0.62772  0.15189  1.0000
  C   C1361     1.0  0.93485  0.57599  0.28098  1.0000
  H   H1351     1.0  0.97269  0.58996  0.29474  1.0000
  H   H1352     1.0  0.78961  0.56687  0.18876  1.0000
  H   H1353     1.0  0.97716  0.68071  0.23960  1.0000
  H   H1354     1.0  0.88709  0.71126  0.27229  1.0000
  H   H1355     1.0  0.98259  0.66360  0.22436  1.0000
  H   H1356     1.0  0.91597  0.65923  0.47039  1.0000
  H   H1357     1.0  0.97346  0.71154  0.06814  1.0000
  C   C1362     1.0  0.99918  0.63745  0.29287  1.0000
  C   C1363     1.0  0.95355  0.67398  0.42020  1.0000
  C   C1364     1.0  0.99223  0.63048  0.16583  1.0000
  C   C1365     1.0  0.94804  0.70036  0.46892  1.0000
  S   S458      1.0  0.99923  0.73483  0.03381  1.0000
  C   C1366     1.0  0.88654  0.72820  0.23412  1.0000
  H   H1358     1.0  0.93329  0.63523  0.00906  1.0000
  S   S459      1.0  0.89532  0.71610  0.48774  1.0000
  C   C1367     1.0  0.99228  0.73033  0.00671  1.0000
  H   H1359     1.0  0.96678  0.73597  0.08277  1.0000
  H   H1360     1.0  0.88883  0.73155  0.29711  1.0000
  H   H1361     1.0  0.91140  0.73378  0.09363  1.0000
  C   C1368     1.0  0.97172  0.73488  0.00402  1.0000
  C   C1369     1.0  0.98948  0.67077  0.23342  1.0000
  H   H1362     1.0  0.00192  0.67573  0.21743  1.0000
  N   N113      1.0  0.99770  0.66103  0.25717  1.0000
  H   H1363     1.0  0.94185  0.74239  0.10216  1.0000
  H   H1364     1.0  0.96056  0.74145  0.01799  1.0000
  S   S460      1.0  0.93518  0.74211  0.16783  1.0000
  S   S461      1.0  0.92891  0.66952  0.72760  1.0000
  C   C1370     1.0  0.75321  0.69652  0.60610  1.0000
  C   C1371     1.0  0.76609  0.68209  0.60202  1.0000
  H   H1365     1.0  0.81796  0.71393  0.62713  1.0000
  H   H1366     1.0  0.91099  0.54142  0.65879  1.0000
  H   H1367     1.0  0.80689  0.71310  0.69433  1.0000
  S   S462      1.0  0.88958  0.50995  0.65234  1.0000
  C   C1372     1.0  0.79324  0.69669  0.57695  1.0000
  S   S463      1.0  0.97033  0.71483  0.94312  1.0000
  S   S464      1.0  0.74456  0.73928  0.64418  1.0000
  Fe  Fe231     1.0  0.86493  0.66820  0.80145  1.0000
  S   S465      1.0  0.89629  0.67242  0.80085  1.0000
  S   S466      1.0  0.85316  0.64801  0.83302  1.0000
  Fe  Fe232     1.0  0.88082  0.69807  0.79831  1.0000
  H   H1368     1.0  0.71679  0.62921  0.70794  1.0000
  Fe  Fe233     1.0  0.89980  0.67781  0.75552  1.0000
  C   C1373     1.0  0.95634  0.52617  0.67962  1.0000
  S   S467      1.0  0.84902  0.69359  0.80195  1.0000
  S   S468      1.0  0.87008  0.67089  0.75634  1.0000
  Fe  Fe234     1.0  0.85768  0.71955  0.58329  1.0000
  S   S469      1.0  0.89058  0.71894  0.56151  1.0000
  H   H1369     1.0  0.92501  0.63901  0.72378  1.0000
  Fe  Fe235     1.0  0.85783  0.68653  0.57765  1.0000
  S   S470      1.0  0.89072  0.68265  0.55534  1.0000
  S   S471      1.0  0.83773  0.66813  0.58993  1.0000
  Fe  Fe236     1.0  0.89618  0.69407  0.58647  1.0000
  S   S472      1.0  0.92539  0.68538  0.60273  1.0000
  Fe  Fe237     1.0  0.88229  0.70770  0.53225  1.0000
  H   H1370     1.0  0.92400  0.68571  0.83374  1.0000
  S   S473      1.0  0.86395  0.69576  0.61092  1.0000
  S   S474      1.0  0.84867  0.71063  0.55189  1.0000
  Fe  Fe238     1.0  0.83874  0.57279  0.73850  1.0000
  S   S475      1.0  0.84721  0.59106  0.75508  1.0000
  S   S476      1.0  0.85688  0.54775  0.74759  1.0000
  Fe  Fe239     1.0  0.80472  0.59683  0.71426  1.0000
  S   S477      1.0  0.81037  0.61711  0.72849  1.0000
  S   S478      1.0  0.77952  0.59931  0.69178  1.0000
  Fe  Fe240     1.0  0.84364  0.60712  0.71499  1.0000
  S   S479      1.0  0.86611  0.62338  0.69417  1.0000
  Fe  Fe241     1.0  0.81331  0.59930  0.76711  1.0000
  S   S480      1.0  0.79910  0.60676  0.80665  1.0000
  S   S481      1.0  0.83806  0.58829  0.69695  1.0000
  S   S482      1.0  0.80478  0.57953  0.75445  1.0000
  S   S483      1.0  0.88826  0.71332  0.82242  1.0000
  C   C1374     1.0  0.75299  0.72506  0.76651  1.0000
  Fe  Fe242     1.0  0.85714  0.69679  0.75643  1.0000
  H   H1371     1.0  0.79637  0.67096  0.58410  1.0000
  S   S484      1.0  0.75161  0.69297  0.67730  1.0000
  C   C1375     1.0  0.78570  0.72463  0.63639  1.0000
  H   H1372     1.0  0.89230  0.68634  0.65117  1.0000
  C   C1376     1.0  0.76691  0.61859  0.67865  1.0000
  C   C1377     1.0  0.76743  0.63204  0.68819  1.0000
  C   C1378     1.0  0.75491  0.64683  0.67989  1.0000
  C   C1379     1.0  0.74219  0.64821  0.66165  1.0000
  C   C1380     1.0  0.74227  0.63494  0.65141  1.0000
  C   C1381     1.0  0.75445  0.62016  0.66006  1.0000
  H   H1373     1.0  0.77676  0.63090  0.70280  1.0000
  H   H1374     1.0  0.75474  0.65705  0.68796  1.0000
  H   H1375     1.0  0.78066  0.71331  0.64519  1.0000
  H   H1376     1.0  0.75394  0.60982  0.65264  1.0000
  Fe  Fe243     1.0  0.69407  0.70762  0.70934  1.0000
  Fe  Fe244     1.0  0.72332  0.68500  0.67524  1.0000
  S   S485      1.0  0.93763  0.68131  0.97179  1.0000
  C   C1382     1.0  0.81016  0.69066  0.75759  1.0000
  C   C1383     1.0  0.89036  0.71367  0.87435  1.0000
  H   H1377     1.0  0.70625  0.61521  0.73744  1.0000
  N   N114      1.0  0.76381  0.73438  0.74163  1.0000
  S   S486      1.0  0.70544  0.70983  0.66432  1.0000
  C   C1384     1.0  0.90776  0.67843  0.68529  1.0000
  C   C1385     1.0  0.72906  0.63756  0.74585  1.0000
  C   C1386     1.0  0.84677  0.65398  0.61675  1.0000
  C   C1387     1.0  0.83439  0.64332  0.63401  1.0000
  C   C1388     1.0  0.84066  0.63342  0.65745  1.0000
  C   C1389     1.0  0.85923  0.63425  0.66356  1.0000
  C   C1390     1.0  0.87192  0.64446  0.64576  1.0000
  C   C1391     1.0  0.86572  0.65428  0.62233  1.0000
  H   H1378     1.0  0.81977  0.64300  0.62969  1.0000
  H   H1379     1.0  0.83091  0.62539  0.67096  1.0000
  H   H1380     1.0  0.88644  0.64495  0.65023  1.0000
  H   H1381     1.0  0.87563  0.66214  0.60869  1.0000
  H   H1382     1.0  0.96659  0.51641  0.61784  1.0000
  C   C1392     1.0  0.80682  0.72498  0.62609  1.0000
  C   C1393     1.0  0.72070  0.61873  0.72428  1.0000
  C   C1394     1.0  0.78623  0.68214  0.58739  1.0000
  H   H1383     1.0  0.80893  0.69656  0.56546  1.0000
  H   H1384     1.0  0.76049  0.67087  0.61007  1.0000
  C   C1395     1.0  0.93754  0.70827  0.84475  1.0000
  C   C1396     1.0  0.88583  0.70522  0.85759  1.0000
  C   C1397     1.0  0.89138  0.70649  0.90159  1.0000
  C   C1398     1.0  0.88750  0.69093  0.91233  1.0000
  C   C1399     1.0  0.88201  0.68278  0.89593  1.0000
  C   C1400     1.0  0.88122  0.68989  0.86860  1.0000
  H   H1385     1.0  0.89530  0.71296  0.91420  1.0000
  H   H1386     1.0  0.87872  0.67082  0.90422  1.0000
  H   H1387     1.0  0.87742  0.68336  0.85597  1.0000
  C   C1401     1.0  0.92684  0.67302  0.69335  1.0000
  C   C1402     1.0  0.90687  0.68172  0.65750  1.0000
  C   C1403     1.0  0.92507  0.67971  0.63787  1.0000
  C   C1404     1.0  0.94396  0.67400  0.64615  1.0000
  C   C1405     1.0  0.94483  0.67060  0.67374  1.0000
  H   H1388     1.0  0.95806  0.67244  0.63108  1.0000
  H   H1389     1.0  0.95959  0.66639  0.67981  1.0000
  C   C1406     1.0  0.83712  0.63781  0.82463  1.0000
  C   C1407     1.0  0.83792  0.63733  0.79760  1.0000
  C   C1408     1.0  0.82639  0.62769  0.79185  1.0000
  C   C1409     1.0  0.81345  0.61908  0.81310  1.0000
  C   C1410     1.0  0.81218  0.62003  0.83994  1.0000
  C   C1411     1.0  0.82427  0.62914  0.84572  1.0000
  H   H1390     1.0  0.84794  0.64391  0.78131  1.0000
  H   H1391     1.0  0.82751  0.62689  0.77107  1.0000
  H   H1392     1.0  0.80224  0.61338  0.85639  1.0000
  H   H1393     1.0  0.82363  0.62947  0.86663  1.0000
  H   H1394     1.0  0.82002  0.68734  0.77229  1.0000
  H   H1395     1.0  0.78753  0.67686  0.78325  1.0000
  C   C1412     1.0  0.88120  0.52106  0.67808  1.0000
  C   C1413     1.0  0.88993  0.51647  0.70119  1.0000
  C   C1414     1.0  0.88316  0.52534  0.72167  1.0000
  C   C1415     1.0  0.86718  0.53861  0.71957  1.0000
  C   C1416     1.0  0.85857  0.54339  0.69632  1.0000
  C   C1417     1.0  0.86567  0.53466  0.67550  1.0000
  H   H1396     1.0  0.93651  0.53704  0.59419  1.0000
  H   H1397     1.0  0.88990  0.52160  0.73959  1.0000
  H   H1398     1.0  0.84604  0.55352  0.69469  1.0000
  H   H1399     1.0  0.85883  0.53829  0.65765  1.0000
  H   H1400     1.0  0.94971  0.69868  0.91647  1.0000
  H   H1401     1.0  0.75059  0.72203  0.59887  1.0000
  H   H1402     1.0  0.94943  0.73425  0.98155  1.0000
  H   H1403     1.0  0.83586  0.65711  0.73773  1.0000
  H   H1404     1.0  0.87429  0.61251  0.79667  1.0000
  H   H1405     1.0  0.72947  0.60880  0.71392  1.0000
  C   C1418     1.0  0.77123  0.73892  0.63424  1.0000
  C   C1419     1.0  0.79169  0.68481  0.76387  1.0000
  H   H1406     1.0  0.89382  0.68045  0.70033  1.0000
  H   H1407     1.0  0.76396  0.71632  0.77821  1.0000
  N   N115      1.0  0.78054  0.71080  0.58112  1.0000
  H   H1408     1.0  0.86665  0.65980  0.69789  1.0000
  S   S487      1.0  0.90912  0.71791  0.96212  1.0000
  H   H1409     1.0  0.83302  0.51922  0.75166  1.0000
  C   C1420     1.0  0.91902  0.71659  0.64713  1.0000
  C   C1421     1.0  0.74752  0.61081  0.75159  1.0000
  C   C1422     1.0  0.93324  0.68058  0.84989  1.0000
  H   H1410     1.0  0.93539  0.71162  0.64343  1.0000
  H   H1411     1.0  0.92845  0.51798  0.61046  1.0000
  C   C1423     1.0  0.88665  0.72226  0.67812  1.0000
  H   H1412     1.0  0.78828  0.72891  0.54654  1.0000
  C   C1424     1.0  0.78412  0.69952  0.72018  1.0000
  H   H1413     1.0  0.87802  0.72184  0.69882  1.0000
  Fe  Fe245     1.0  0.94125  0.70650  0.96815  1.0000
  H   H1414     1.0  0.92406  0.67262  0.86620  1.0000
  H   H1415     1.0  0.94930  0.72610  0.88872  1.0000
  S   S488      1.0  0.83939  0.74074  0.60045  1.0000
  H   H1416     1.0  0.90151  0.50585  0.70375  1.0000
  H   H1417     1.0  0.98333  0.51376  0.65628  1.0000
  C   C1425     1.0  0.92821  0.53019  0.61317  1.0000
  H   H1418     1.0  0.77808  0.73599  0.57788  1.0000
  N   N116      1.0  0.87679  0.72810  0.65668  1.0000
  C   C1426     1.0  0.78799  0.72592  0.56874  1.0000
  H   H1419     1.0  0.91712  0.72168  0.60485  1.0000
  H   H1420     1.0  0.91175  0.53619  0.61671  1.0000
  C   C1427     1.0  0.81338  0.73966  0.61430  1.0000
  C   C1428     1.0  0.97943  0.72172  0.96598  1.0000
  H   H1421     1.0  0.80055  0.65121  0.75000  1.0000
  S   S489      1.0  0.88739  0.70392  0.75257  1.0000
  H   H1422     1.0  0.89361  0.72563  0.86604  1.0000
  C   C1429     1.0  0.80702  0.65624  0.72906  1.0000
  C   C1430     1.0  0.82694  0.65966  0.72203  1.0000
  C   C1431     1.0  0.88561  0.61880  0.75363  1.0000
  C   C1432     1.0  0.89994  0.62622  0.73302  1.0000
  H   H1423     1.0  0.87467  0.61342  0.74853  1.0000
  H   H1424     1.0  0.90033  0.62655  0.71184  1.0000
  S   S490      1.0  0.75554  0.68190  0.75342  1.0000
  H   H1425     1.0  0.73725  0.65332  0.76587  1.0000
  H   H1426     1.0  0.71737  0.64677  0.73735  1.0000
  H   H1427     1.0  0.86162  0.67309  0.66704  1.0000
  C   C1433     1.0  0.95793  0.52153  0.63519  1.0000
  C   C1434     1.0  0.91381  0.63323  0.73974  1.0000
  C   C1435     1.0  0.79531  0.65970  0.70906  1.0000
  C   C1436     1.0  0.85565  0.67024  0.68933  1.0000
  H   H1428     1.0  0.94132  0.67782  0.89876  1.0000
  N   N117      1.0  0.83497  0.66634  0.69579  1.0000
  H   H1429     1.0  0.77973  0.65733  0.71446  1.0000
  C   C1437     1.0  0.94624  0.70144  0.89633  1.0000
  C   C1438     1.0  0.91306  0.63284  0.76709  1.0000
  C   C1439     1.0  0.88549  0.61836  0.78080  1.0000
  C   C1440     1.0  0.74025  0.64132  0.76194  1.0000
  C   C1441     1.0  0.77860  0.68929  0.74524  1.0000
  C   C1442     1.0  0.94170  0.68969  0.88605  1.0000
  C   C1443     1.0  0.94612  0.71688  0.88059  1.0000
  H   H1430     1.0  0.75074  0.59889  0.74732  1.0000
  N   N118      1.0  0.89907  0.62540  0.78721  1.0000
  H   H1431     1.0  0.92374  0.63858  0.77205  1.0000
  H   H1432     1.0  0.91348  0.61646  0.82128  1.0000
  H   H1433     1.0  0.73248  0.63595  0.63729  1.0000
  N   N119      1.0  0.93786  0.52907  0.63605  1.0000
  C   C1444     1.0  0.94173  0.72037  0.85460  1.0000
  C   C1445     1.0  0.81555  0.70100  0.73266  1.0000
  C   C1446     1.0  0.82356  0.66987  0.67604  1.0000
  C   C1447     1.0  0.89931  0.62451  0.81574  1.0000
  H   H1434     1.0  0.89864  0.63662  0.81917  1.0000
  H   H1435     1.0  0.73747  0.69655  0.61736  1.0000
  H   H1436     1.0  0.76396  0.63215  0.78578  1.0000
  H   H1437     1.0  0.85531  0.68071  0.69788  1.0000
  N   N120      1.0  0.93732  0.69321  0.86060  1.0000
  C   C1448     1.0  0.80364  0.66645  0.68231  1.0000
  C   C1449     1.0  0.76072  0.71087  0.59549  1.0000
  S   S491      1.0  0.83750  0.70961  0.72580  1.0000
  C   C1450     1.0  0.75520  0.62948  0.77310  1.0000
  H   H1438     1.0  0.82990  0.67513  0.65520  1.0000
  H   H1439     1.0  0.91568  0.71165  0.69072  1.0000
  Fe  Fe246     1.0  0.90491  0.69242  0.96871  1.0000
  C   C1451     1.0  0.85480  0.51007  0.79118  1.0000
  H   H1440     1.0  0.79478  0.66898  0.66651  1.0000
  C   C1452     1.0  0.00020  0.71748  0.96812  1.0000
  C   C1453     1.0  0.80274  0.70516  0.71371  1.0000
  S   S492      1.0  0.70997  0.68200  0.71978  1.0000
  C   C1454     1.0  0.90794  0.71658  0.67367  1.0000
  H   H1441     1.0  0.88568  0.61999  0.82979  1.0000
  C   C1455     1.0  0.96538  0.73073  0.98350  1.0000
  H   H1442     1.0  0.94799  0.67340  0.84127  1.0000
  C   C1456     1.0  0.90876  0.72223  0.62546  1.0000
  H   H1443     1.0  0.92699  0.53872  0.69787  1.0000
  N   N121      1.0  0.73295  0.62251  0.74062  1.0000
  C   C1457     1.0  0.84642  0.50100  0.72834  1.0000
  C   C1458     1.0  0.93592  0.53396  0.68024  1.0000
  H   H1444     1.0  0.79205  0.72957  0.75561  1.0000
  C   C1459     1.0  0.75878  0.61411  0.76803  1.0000
  H   H1445     1.0  0.77400  0.70327  0.70586  1.0000
  H   H1446     1.0  0.93372  0.71114  0.82475  1.0000
  H   H1447     1.0  0.87960  0.73230  0.61370  1.0000
  Fe  Fe247     1.0  0.73266  0.71759  0.67089  1.0000
  H   H1448     1.0  0.83718  0.50637  0.71293  1.0000
  H   H1449     1.0  0.80380  0.72499  0.57194  1.0000
  H   H1450     1.0  0.74354  0.71787  0.76144  1.0000
  C   C1460     1.0  0.96749  0.52000  0.65690  1.0000
  S   S493      1.0  0.71978  0.71754  0.71513  1.0000
  C   C1461     1.0  0.85448  0.73392  0.66154  1.0000
  S   S494      1.0  0.72536  0.66614  0.65222  1.0000
  Fe  Fe248     1.0  0.73678  0.69222  0.72114  1.0000
  S   S495      1.0  0.89028  0.68104  0.94566  1.0000
  H   H1451     1.0  0.77024  0.60480  0.77679  1.0000
  C   C1462     1.0  0.92690  0.53540  0.65806  1.0000
  H   H1452     1.0  0.96350  0.52478  0.69679  1.0000
  C   C1463     1.0  0.78388  0.73560  0.73926  1.0000
  H   H1453     1.0  0.84651  0.72487  0.65894  1.0000
  H   H1454     1.0  0.94127  0.73239  0.84230  1.0000
  H   H1455     1.0  0.84053  0.51931  0.79327  1.0000
  C   C1464     1.0  0.88751  0.72800  0.63063  1.0000
  C   C1465     1.0  0.84412  0.50819  0.75035  1.0000
  H   H1456     1.0  0.84839  0.73628  0.68236  1.0000
  H   H1457     1.0  0.74280  0.73317  0.77963  1.0000
  H   H1458     1.0  0.87468  0.68967  0.49142  1.0000
  H   H1459     1.0  0.90759  0.65688  0.98832  1.0000
  C   C1466     1.0  0.75356  0.74212  0.72104  1.0000
  H   H1460     1.0  0.73744  0.74172  0.72325  1.0000
  H   H1461     1.0  0.86804  0.51635  0.78684  1.0000
  N   N122      1.0  0.85649  0.50194  0.76907  1.0000
  H   H1462     1.0  0.85457  0.50136  0.81091  1.0000
  H   H1463     1.0  0.00495  0.72879  0.90254  1.0000
  H   H1464     1.0  0.94141  0.69869  0.49113  1.0000
  H   H1465     1.0  0.92202  0.67976  0.49101  1.0000
  H   H1466     1.0  0.73912  0.93570  0.19680  1.0000
  Fe  Fe249     1.0  0.91953  0.78742  0.09194  1.0000
  S   S496      1.0  0.91819  0.81090  0.10281  1.0000
  S   S497      1.0  0.91893  0.78558  0.04977  1.0000
  Fe  Fe250     1.0  0.92886  0.76781  0.14630  1.0000
  S   S498      1.0  0.92848  0.78945  0.16191  1.0000
  C   C1467     1.0  0.70194  0.83275  0.11262  1.0000
  Fe  Fe251     1.0  0.90039  0.79992  0.14346  1.0000
  S   S499      1.0  0.87135  0.80945  0.17095  1.0000
  Fe  Fe252     1.0  0.94625  0.79831  0.12033  1.0000
  S   S500      1.0  0.97729  0.80569  0.10938  1.0000
  S   S501      1.0  0.89952  0.77745  0.13092  1.0000
  S   S502      1.0  0.94884  0.77573  0.10619  1.0000
  Fe  Fe253     1.0  0.77769  0.87626  0.15091  1.0000
  S   S503      1.0  0.76036  0.89884  0.16541  1.0000
  S   S504      1.0  0.81044  0.87185  0.12693  1.0000
  H   H1467     1.0  0.98237  0.78962  0.20836  1.0000
  C   C1468     1.0  0.69546  0.88650  0.04820  1.0000
  S   S505      1.0  0.75316  0.87548  0.12944  1.0000
  S   S506      1.0  0.76602  0.85956  0.18940  1.0000
  H   H1468     1.0  0.73653  0.93172  0.14460  1.0000
  C   C1469     1.0  0.85564  0.82765  0.15909  1.0000
  C   C1470     1.0  0.83699  0.83271  0.17607  1.0000
  C   C1471     1.0  0.82336  0.84653  0.16669  1.0000
  C   C1472     1.0  0.82821  0.85540  0.14022  1.0000
  C   C1473     1.0  0.84718  0.85062  0.12348  1.0000
  C   C1474     1.0  0.86085  0.83674  0.13284  1.0000
  H   H1469     1.0  0.83298  0.82585  0.19652  1.0000
  H   H1470     1.0  0.80914  0.85032  0.18005  1.0000
  H   H1471     1.0  0.85114  0.85750  0.10305  1.0000
  H   H1472     1.0  0.87525  0.83300  0.11965  1.0000
  H   H1473     1.0  0.72532  0.91943  0.20403  1.0000
  C   C1475     1.0  0.97451  0.81764  0.15473  1.0000
  H   H1474     1.0  0.71778  0.86468  0.05306  1.0000
  H   H1475     1.0  0.73937  0.87591  0.07328  1.0000
  H   H1476     1.0  0.69680  0.84577  0.25803  1.0000
  C   C1476     1.0  0.97864  0.80681  0.04409  1.0000
  H   H1477     1.0  0.95794  0.81937  0.15723  1.0000
  C   C1477     1.0  0.71354  0.87704  0.05544  1.0000
  C   C1478     1.0  0.70497  0.85745  0.13568  1.0000
  H   H1478     1.0  0.74187  0.91988  0.22600  1.0000
  Fe  Fe254     1.0  0.73468  0.89628  0.14769  1.0000
  H   H1479     1.0  0.97328  0.81761  0.05224  1.0000
  C   C1479     1.0  0.00520  0.78518  0.03317  1.0000
  C   C1480     1.0  0.90871  0.76960  0.04692  1.0000
  C   C1481     1.0  0.89181  0.76451  0.06604  1.0000
  H   H1480     1.0  0.68576  0.88150  0.04002  1.0000
  H   H1481     1.0  0.72725  0.85852  0.23673  1.0000
  H   H1482     1.0  0.88499  0.77029  0.08308  1.0000
  C   C1482     1.0  0.68565  0.93498  0.26971  1.0000
  S   S507      1.0  0.73854  0.88645  0.24434  1.0000
  C   C1483     1.0  0.98318  0.82243  0.17266  1.0000
  N   N123      1.0  0.71311  0.93586  0.23024  1.0000
  C   C1484     1.0  0.70722  0.95211  0.22312  1.0000
  H   H1483     1.0  0.99685  0.76779  0.01697  1.0000
  H   H1484     1.0  0.67738  0.92815  0.28803  1.0000
  S   S508      1.0  0.69099  0.98062  0.16705  1.0000
  H   H1485     1.0  0.97478  0.77031  0.21483  1.0000
  C   C1485     1.0  0.73070  0.92738  0.21336  1.0000
  C   C1486     1.0  0.88316  0.75234  0.06243  1.0000
  H   H1486     1.0  0.96041  0.78161  0.01950  1.0000
  C   C1487     1.0  0.89182  0.74487  0.04023  1.0000
  C   C1488     1.0  0.68667  0.94336  0.13726  1.0000
  H   H1487     1.0  0.68400  0.92434  0.08829  1.0000
  C   C1489     1.0  0.97118  0.78658  0.02583  1.0000
  H   H1488     1.0  0.70810  0.92987  0.06904  1.0000
  C   C1490     1.0  0.69082  0.84815  0.10509  1.0000
  S   S509      1.0  0.71986  0.88085  0.18529  1.0000
  C   C1491     1.0  0.99297  0.77064  0.15687  1.0000
  H   H1489     1.0  0.94038  0.75904  0.24858  1.0000
  C   C1492     1.0  0.69229  0.86050  0.11671  1.0000
  H   H1490     1.0  0.84937  0.79422  0.13674  1.0000
  C   C1493     1.0  0.68185  0.95778  0.14640  1.0000
  C   C1494     1.0  0.88822  0.77196  0.22046  1.0000
  N   N124      1.0  0.70171  0.90835  0.06322  1.0000
  H   H1491     1.0  0.84135  0.83304  0.06833  1.0000
  C   C1495     1.0  0.90901  0.74971  0.02152  1.0000
  S   S510      1.0  0.67578  0.85179  0.08048  1.0000
  H   H1492     1.0  0.72868  0.95797  0.15817  1.0000
  C   C1496     1.0  0.91724  0.76223  0.02462  1.0000
  H   H1493     1.0  0.94864  0.80671  0.03723  1.0000
  C   C1497     1.0  0.69689  0.96294  0.15447  1.0000
  H   H1494     1.0  0.72882  0.90384  0.07962  1.0000
  C   C1498     1.0  0.70245  0.92726  0.25304  1.0000
  C   C1499     1.0  0.70469  0.88099  0.28448  1.0000
  C   C1500     1.0  0.71875  0.87585  0.26231  1.0000
  S   S511      1.0  0.73088  0.83784  0.16806  1.0000
  C   C1501     1.0  0.98735  0.81113  0.13311  1.0000
  H   H1495     1.0  0.72246  0.81760  0.13823  1.0000
  C   C1502     1.0  0.71605  0.86293  0.25321  1.0000
  Fe  Fe255     1.0  0.74663  0.88184  0.20210  1.0000
  H   H1496     1.0  0.78878  0.82853  0.16710  1.0000
  H   H1497     1.0  0.81546  0.80540  0.16212  1.0000
  H   H1498     1.0  0.78614  0.84499  0.13914  1.0000
  Fe  Fe256     1.0  0.74052  0.86029  0.16886  1.0000
  H   H1499     1.0  0.97741  0.77093  0.15485  1.0000
  C   C1503     1.0  0.84004  0.80489  0.12703  1.0000
  C   C1504     1.0  0.78935  0.83170  0.14480  1.0000
  C   C1505     1.0  0.82089  0.81133  0.14135  1.0000
  H   H1500     1.0  0.77694  0.82703  0.14048  1.0000
  H   H1501     1.0  0.86977  0.74866  0.07685  1.0000
  C   C1506     1.0  0.83559  0.82672  0.08870  1.0000
  N   N125      1.0  0.99868  0.79906  0.04268  1.0000
  N   N126      1.0  0.80952  0.82523  0.12970  1.0000
  H   H1502     1.0  0.91554  0.74411  0.00423  1.0000
  C   C1507     1.0  0.81655  0.83288  0.10366  1.0000
  H   H1503     1.0  0.71554  0.95901  0.20508  1.0000
  H   H1504     1.0  0.80772  0.84408  0.09466  1.0000
  C   C1508     1.0  0.72124  0.93888  0.14530  1.0000
  S   S512      1.0  0.71144  0.91517  0.12758  1.0000
  C   C1509     1.0  0.71675  0.95369  0.15310  1.0000
  C   C1510     1.0  0.69878  0.85568  0.26531  1.0000
  H   H1505     1.0  0.94019  0.76323  0.19966  1.0000
  C   C1511     1.0  0.71943  0.89910  0.07056  1.0000
  C   C1512     1.0  0.70616  0.93365  0.13749  1.0000
  C   C1513     1.0  0.84740  0.81264  0.10053  1.0000
  C   C1514     1.0  0.71412  0.82959  0.13217  1.0000
  H   H1506     1.0  0.68989  0.83467  0.20555  1.0000
  H   H1507     1.0  0.86240  0.80792  0.08939  1.0000
  H   H1508     1.0  0.70705  0.89059  0.29226  1.0000
  H   H1509     1.0  0.89255  0.77319  0.19801  1.0000
  H   H1510     1.0  0.93020  0.76622  0.00964  1.0000
  C   C1515     1.0  0.68714  0.87400  0.29615  1.0000
  N   N127      1.0  0.99632  0.77568  0.17805  1.0000
  C   C1516     1.0  0.72558  0.88332  0.06685  1.0000
  C   C1517     1.0  0.71572  0.84195  0.14359  1.0000
  H   H1511     1.0  0.70630  0.86706  0.14431  1.0000
  C   C1518     1.0  0.88823  0.75090  0.26178  1.0000
  H   H1512     1.0  0.87273  0.77942  0.22538  1.0000
  H   H1513     1.0  0.67529  0.90933  0.04741  1.0000
  C   C1519     1.0  0.96460  0.80069  0.03571  1.0000
  H   H1514     1.0  0.97323  0.82778  0.18907  1.0000
  H   H1515     1.0  0.70093  0.82320  0.10356  1.0000
  C   C1520     1.0  0.69492  0.92462  0.06836  1.0000
  C   C1521     1.0  0.93968  0.75153  0.21236  1.0000
  H   H1516     1.0  0.70709  0.91437  0.25846  1.0000
  N   N128      1.0  0.88798  0.75523  0.23457  1.0000
  C   C1522     1.0  0.68963  0.90217  0.05249  1.0000
  H   H1517     1.0  0.88935  0.75959  0.27270  1.0000
  C   C1523     1.0  0.69031  0.96018  0.23903  1.0000
  H   H1518     1.0  0.89967  0.77682  0.22650  1.0000
  C   C1524     1.0  0.99161  0.77879  0.02448  1.0000
  C   C1525     1.0  0.88703  0.74414  0.22074  1.0000
  C   C1526     1.0  0.93996  0.74911  0.24003  1.0000
  H   H1519     1.0  0.96513  0.78696  0.18971  1.0000
  H   H1520     1.0  0.88724  0.74746  0.19906  1.0000
  C   C1527     1.0  0.97878  0.78084  0.19883  1.0000
  H   H1521     1.0  0.67603  0.87827  0.31284  1.0000
  C   C1528     1.0  0.00465  0.82032  0.16940  1.0000
  C   C1529     1.0  0.67331  0.83823  0.20712  1.0000
  C   C1530     1.0  0.68394  0.86159  0.28615  1.0000
  H   H1522     1.0  0.68552  0.97305  0.23295  1.0000
  H   H1523     1.0  0.94676  0.74794  0.06532  1.0000
  H   H1524     1.0  0.67472  0.87271  0.19269  1.0000
  H   H1525     1.0  0.68695  0.93270  0.05234  1.0000
  H   H1526     1.0  0.68426  0.87251  0.11038  1.0000
  C   C1531     1.0  0.67965  0.95157  0.26263  1.0000
  H   H1527     1.0  0.67521  0.93970  0.13021  1.0000
  H   H1528     1.0  0.67418  0.83619  0.16623  1.0000
  H   H1529     1.0  0.80396  0.76524  0.60410  1.0000
  C   C1532     1.0  0.79895  0.75388  0.61322  1.0000
  C   C1533     1.0  0.78450  0.75116  0.69351  1.0000
  H   H1530     1.0  0.76684  0.76457  0.62091  1.0000
  C   C1534     1.0  0.77795  0.75350  0.62275  1.0000
  H   H1531     1.0  0.79270  0.75727  0.67437  1.0000
  H   H1532     1.0  0.75567  0.75620  0.68009  1.0000
  C   C1535     1.0  0.79458  0.74388  0.71510  1.0000
  C   C1536     1.0  0.76377  0.75048  0.69662  1.0000
  H   H1533     1.0  0.85063  0.74532  0.64695  1.0000
  H   H1534     1.0  0.81074  0.74419  0.71299  1.0000
  H   H1535     1.0  0.67550  0.74362  0.70337  1.0000
  H   H1536     1.0  0.00369  0.74568  0.93237  1.0000
