data_image0
_chemical_formula_structural       FeCS2HCSC6H2CHC2HC3HCH2SCNH3C3H2NC2H3FeHCH3CHSNCHC3HFeSHFeSCHFe2S2CFeSNSFeS2C2SCSC6H5C6H2CFeNC6H10FeSHFeSHS2CH5S2CSHCHC2H2C2HFeHC3H2CHCSHCHFeCH2SC4HCNH3CH5CHC3NCSCHFeS2FeS2FeCFeS2FeS2CHFeS2CHC2H3C6H4C7HCH2CHNC3HC4SHSHCSNH2CH3CH4CH2CFeS2HC2H3CH2NHFeS2HSHSHFeSFeSC5H3CH3SC7H4NC6H6CH7C3HC2HCH2SH3C2FeC2NH2CHSCHC3H2CHFeS2FeSHFeHFeS4C6H4NCH2C2H5CHNC2HCHCHC4SHCHNSCHCH2CH2C2HFeH3CNC2SH2C3FeCHCFeS2FeS2FeHFeS2C7H4C6HCHC2SFeC4H5NH3C2HC3H3NHNS2H5CHC2H2CH2CFeS2HC2H2CSCH3C5H2C2HSCNHSFeS2FeS2FeCFeS3H2C4H3C6H4C4HCH4C2SFeHC3HC2HCH6C3HSC2HCFeHNH2CH9CHCNHC4HCHFeSHFe2S2FeS2FeHFeHS2HC3H4CHC7H3C6H5C2HC2NSCHSHCH2C2H4SNHSHS2CSHC2
_chemical_formula_sum              "Fe48 C288 S96 H288 N24"
_cell_length_a       30.6034
_cell_length_b       30.325
_cell_length_c       39.482
_cell_angle_alpha    89.9926
_cell_angle_beta     88.8252
_cell_angle_gamma    88.5282

_space_group_name_H-M_alt    "P 1"
_space_group_IT_number       1

loop_
  _space_group_symop_operation_xyz
  'x, y, z'

loop_
  _atom_site_type_symbol
  _atom_site_label
  _atom_site_symmetry_multiplicity
  _atom_site_fract_x
  _atom_site_fract_y
  _atom_site_fract_z
  _atom_site_occupancy
  Fe  Fe1       1.0  0.44635  0.52280  0.25869  1.0000
  C   C1        1.0  0.37607  0.03836  0.24919  1.0000
  S   S1        1.0  0.41134  0.09588  0.33683  1.0000
  S   S2        1.0  0.34057  0.06549  0.18872  1.0000
  H   H1        1.0  0.22063  0.21464  0.34858  1.0000
  C   C2        1.0  0.28641  0.12651  0.33647  1.0000
  S   S3        1.0  0.41566  0.45599  0.25468  1.0000
  C   C3        1.0  0.45802  0.35036  0.33109  1.0000
  C   C4        1.0  0.42133  0.34422  0.31121  1.0000
  C   C5        1.0  0.40917  0.37633  0.28718  1.0000
  C   C6        1.0  0.43335  0.41480  0.28319  1.0000
  C   C7        1.0  0.47041  0.42043  0.30266  1.0000
  C   C8        1.0  0.48280  0.38822  0.32639  1.0000
  H   H2        1.0  0.40216  0.31504  0.31457  1.0000
  H   H3        1.0  0.38065  0.37166  0.27198  1.0000
  C   C9        1.0  0.42475  0.06714  0.12651  1.0000
  H   H4        1.0  0.31682  0.14296  0.33109  1.0000
  C   C10       1.0  0.39223  0.08860  0.29535  1.0000
  C   C11       1.0  0.20942  0.12917  0.34557  1.0000
  H   H5        1.0  0.24266  0.20513  0.30608  1.0000
  C   C12       1.0  0.36014  0.07371  0.22993  1.0000
  C   C13       1.0  0.36045  0.11656  0.24342  1.0000
  C   C14       1.0  0.37652  0.12405  0.27603  1.0000
  H   H6        1.0  0.38839  0.06640  0.06776  1.0000
  C   C15       1.0  0.28745  0.08078  0.34113  1.0000
  H   H7        1.0  0.37707  0.15723  0.28603  1.0000
  H   H8        1.0  0.43925  0.05969  0.04448  1.0000
  S   S4        1.0  0.37534  0.22589  0.35003  1.0000
  C   C16       1.0  0.36607  0.44388  0.35010  1.0000
  N   N1        1.0  0.37498  0.48776  0.34783  1.0000
  H   H9        1.0  0.35018  0.50089  0.29889  1.0000
  H   H10       1.0  0.18785  0.03807  0.04049  1.0000
  H   H11       1.0  0.17881  0.14787  0.34802  1.0000
  C   C17       1.0  0.39201  0.04582  0.28178  1.0000
  C   C18       1.0  0.44777  0.06889  0.15673  1.0000
  C   C19       1.0  0.20928  0.08349  0.35059  1.0000
  H   H12       1.0  0.34844  0.14409  0.22852  1.0000
  H   H13       1.0  0.48979  0.44943  0.29932  1.0000
  N   N2        1.0  0.24778  0.15013  0.33904  1.0000
  C   C20       1.0  0.24719  0.19791  0.33337  1.0000
  C   C21       1.0  0.34974  0.51575  0.32466  1.0000
  H   H14       1.0  0.34160  0.42974  0.33417  1.0000
  H   H15       1.0  0.39094  0.07890  0.12652  1.0000
  H   H16       1.0  0.27815  0.21258  0.34159  1.0000
  Fe  Fe2       1.0  0.40628  0.16080  0.36503  1.0000
  H   H17       1.0  0.43203  0.08210  0.17958  1.0000
  C   C22       1.0  0.24861  0.05921  0.34831  1.0000
  H   H18       1.0  0.51135  0.39302  0.34155  1.0000
  H   H19       1.0  0.17896  0.06730  0.35701  1.0000
  H   H20       1.0  0.31549  0.51990  0.33412  1.0000
  C   C23       1.0  0.41977  0.04713  0.06631  1.0000
  H   H21       1.0  0.31831  0.06232  0.33926  1.0000
  S   S5        1.0  0.47243  0.31335  0.36365  1.0000
  N   N3        1.0  0.44436  0.05029  0.09767  1.0000
  C   C24       1.0  0.49076  0.05263  0.15747  1.0000
  H   H22       1.0  0.50855  0.05307  0.18096  1.0000
  C   C25       1.0  0.48664  0.03456  0.09813  1.0000
  C   C26       1.0  0.51041  0.03526  0.12801  1.0000
  C   C27       1.0  0.40652  0.50543  0.36741  1.0000
  H   H23       1.0  0.05185  0.10885  0.03895  1.0000
  Fe  Fe3       1.0  0.42470  0.19160  0.43736  1.0000
  S   S6        1.0  0.39551  0.25882  0.42815  1.0000
  H   H24       1.0  0.47957  0.14412  0.55303  1.0000
  Fe  Fe4       1.0  0.34258  0.22378  0.40161  1.0000
  S   S7        1.0  0.27284  0.24567  0.41306  1.0000
  C   C28       1.0  0.34300  0.47446  0.69150  1.0000
  H   H25       1.0  0.18201  0.25084  0.43233  1.0000
  Fe  Fe5       1.0  0.43114  0.25530  0.37790  1.0000
  Fe  Fe6       1.0  0.09339  0.09597  0.48232  1.0000
  S   S8        1.0  0.12561  0.06724  0.52807  1.0000
  S   S9        1.0  0.13381  0.09820  0.43428  1.0000
  C   C29       1.0  0.14648  0.45926  0.52672  1.0000
  Fe  Fe7       1.0  0.08755  0.12061  0.55616  1.0000
  S   S10       1.0  0.11526  0.16005  0.59887  1.0000
  N   N4        1.0  0.08106  0.50011  0.54295  1.0000
  S   S11       1.0  0.05956  0.15231  0.50982  1.0000
  Fe  Fe8       1.0  0.16524  0.40964  0.62508  1.0000
  S   S12       1.0  0.11125  0.44926  0.65104  1.0000
  S   S13       1.0  0.14977  0.36439  0.58141  1.0000
  C   C30       1.0  0.11215  0.46835  0.54979  1.0000
  C   C31       1.0  0.04523  0.50917  0.56737  1.0000
  S   S14       1.0  0.20207  0.46926  0.60869  1.0000
  C   C32       1.0  0.38779  0.48238  0.68740  1.0000
  S   S15       1.0  0.44071  0.16683  0.48972  1.0000
  C   C33       1.0  0.12420  0.21702  0.59398  1.0000
  C   C34       1.0  0.13778  0.24166  0.62178  1.0000
  C   C35       1.0  0.14535  0.28708  0.61850  1.0000
  C   C36       1.0  0.13969  0.30792  0.58725  1.0000
  C   C37       1.0  0.12608  0.28326  0.55949  1.0000
  C   C38       1.0  0.11808  0.23808  0.56288  1.0000
  H   H26       1.0  0.14260  0.22561  0.64596  1.0000
  H   H27       1.0  0.15592  0.30583  0.64003  1.0000
  H   H28       1.0  0.12160  0.29927  0.53527  1.0000
  H   H29       1.0  0.10747  0.21968  0.54135  1.0000
  H   H30       1.0  0.40152  0.48706  0.66222  1.0000
  C   C39       1.0  0.23542  0.20441  0.42311  1.0000
  C   C40       1.0  0.24788  0.15980  0.42160  1.0000
  C   C41       1.0  0.21684  0.12726  0.42693  1.0000
  C   C42       1.0  0.17308  0.13916  0.43362  1.0000
  C   C43       1.0  0.16070  0.18373  0.43646  1.0000
  C   C44       1.0  0.19189  0.21634  0.43116  1.0000
  H   H31       1.0  0.28096  0.15012  0.41504  1.0000
  H   H32       1.0  0.22648  0.09277  0.42474  1.0000
  C   C45       1.0  0.14856  0.48255  0.49629  1.0000
  Fe  Fe9       1.0  0.23700  0.46340  0.65809  1.0000
  N   N5        1.0  0.24042  0.18452  0.51163  1.0000
  C   C46       1.0  0.27493  0.15545  0.50675  1.0000
  C   C47       1.0  0.24680  0.22902  0.51113  1.0000
  C   C48       1.0  0.31712  0.17076  0.50063  1.0000
  C   C49       1.0  0.28852  0.24544  0.50484  1.0000
  C   C50       1.0  0.32386  0.21603  0.49967  1.0000
  C   C51       1.0  0.19676  0.16789  0.51923  1.0000
  H   H33       1.0  0.26993  0.12019  0.50747  1.0000
  H   H34       1.0  0.21954  0.25208  0.51545  1.0000
  H   H35       1.0  0.34457  0.14780  0.49666  1.0000
  H   H36       1.0  0.29338  0.28073  0.50381  1.0000
  H   H37       1.0  0.35650  0.22820  0.49504  1.0000
  H   H38       1.0  0.19166  0.16484  0.54710  1.0000
  H   H39       1.0  0.17102  0.19040  0.50907  1.0000
  H   H40       1.0  0.19225  0.13521  0.50724  1.0000
  H   H41       1.0  0.02937  0.20410  0.57964  1.0000
  H   H42       1.0  0.51658  0.20998  0.46087  1.0000
  Fe  Fe10      1.0  0.15313  0.44437  0.69703  1.0000
  S   S16       1.0  0.20474  0.39990  0.67205  1.0000
  H   H43       1.0  0.05452  0.49921  0.59344  1.0000
  Fe  Fe11      1.0  0.15081  0.50846  0.63737  1.0000
  S   S17       1.0  0.31004  0.47509  0.65535  1.0000
  H   H44       1.0  0.11090  0.45019  0.57342  1.0000
  S   S18       1.0  0.03012  0.07752  0.56652  1.0000
  S   S19       1.0  0.18817  0.50739  0.68591  1.0000
  C   C52       1.0  0.42275  0.43366  0.39116  1.0000
  H   H45       1.0  0.45735  0.49241  0.40350  1.0000
  H   H46       1.0  0.17145  0.43455  0.53272  1.0000
  H   H47       1.0  0.12679  0.19306  0.44138  1.0000
  H   H48       1.0  0.17554  0.47655  0.47851  1.0000
  H   H49       1.0  0.44242  0.41200  0.40701  1.0000
  S   S20       1.0  0.36915  0.15674  0.41435  1.0000
  S   S21       1.0  0.03526  0.05267  0.48545  1.0000
  C   C53       1.0  0.49305  0.17649  0.50547  1.0000
  S   S22       1.0  0.46482  0.19009  0.38921  1.0000
  H   H50       1.0  0.03637  0.18130  0.63931  1.0000
  C   C54       1.0  0.11614  0.51418  0.48913  1.0000
  H   H51       1.0  0.47837  0.09581  0.42103  1.0000
  C   C55       1.0  0.43132  0.47856  0.38897  1.0000
  C   C56       1.0  0.51438  0.41898  0.68721  1.0000
  H   H52       1.0  0.51337  0.45473  0.68666  1.0000
  H   H53       1.0  0.49122  0.26509  0.68457  1.0000
  C   C57       1.0  0.50391  0.16056  0.53769  1.0000
  C   C58       1.0  0.08234  0.52250  0.51286  1.0000
  H   H54       1.0  0.48104  0.06752  0.47998  1.0000
  Fe  Fe12      1.0  0.06510  0.02740  0.53315  1.0000
  H   H55       1.0  0.38304  0.38129  0.37331  1.0000
  C   C59       1.0  0.51042  0.07964  0.46770  1.0000
  C   C60       1.0  0.50882  0.09593  0.43471  1.0000
  C   C61       1.0  0.38941  0.41632  0.37210  1.0000
  H   H56       1.0  0.08832  0.50023  0.87897  1.0000
  H   H57       1.0  0.48938  0.02701  0.75598  1.0000
  C   C62       1.0  0.35251  0.47127  0.75245  1.0000
  H   H58       1.0  0.29096  0.46225  0.72754  1.0000
  C   C63       1.0  0.04546  0.14278  0.03146  1.0000
  S   S23       1.0  0.13130  0.42900  0.75095  1.0000
  H   H59       1.0  0.47952  0.41436  0.73509  1.0000
  C   C64       1.0  0.07571  0.42548  0.76310  1.0000
  H   H60       1.0  0.12132  0.11737  0.99786  1.0000
  Fe  Fe13      1.0  0.50016  0.50652  0.77926  1.0000
  C   C65       1.0  0.49585  0.39632  0.71447  1.0000
  H   H61       1.0  0.33869  0.46693  0.77764  1.0000
  H   H62       1.0  0.09082  0.39716  0.81168  1.0000
  S   S24       1.0  0.42953  0.48650  0.78450  1.0000
  C   C66       1.0  0.06511  0.40956  0.79556  1.0000
  C   C67       1.0  0.32544  0.46851  0.72413  1.0000
  C   C68       1.0  0.39711  0.48029  0.74835  1.0000
  C   C69       1.0  0.04230  0.44139  0.74239  1.0000
  H   H63       1.0  0.01960  0.50237  0.91363  1.0000
  C   C70       1.0  0.09392  0.13029  0.98231  1.0000
  N   N6        1.0  0.06494  0.15932  0.00285  1.0000
  H   H64       1.0  0.10797  0.14742  0.95991  1.0000
  H   H65       1.0  0.11709  0.48332  0.81801  1.0000
  H   H66       1.0  0.07551  0.10160  0.97315  1.0000
  C   C71       1.0  0.05679  0.20210  0.99324  1.0000
  H   H67       1.0  0.05019  0.45400  0.71744  1.0000
  H   H68       1.0  0.07121  0.21509  0.97011  1.0000
  H   H69       1.0  0.02048  0.26274  0.00394  1.0000
  H   H70       1.0  0.44866  0.49303  0.71218  1.0000
  H   H71       1.0  0.09168  0.51390  0.78500  1.0000
  C   C72       1.0  0.02825  0.22941  0.01242  1.0000
  H   H72       1.0  0.48479  0.33279  0.73649  1.0000
  C   C73       1.0  0.41464  0.48566  0.71569  1.0000
  C   C74       1.0  0.05744  0.50710  0.86679  1.0000
  C   C75       1.0  0.49904  0.35021  0.71515  1.0000
  N   N7        1.0  0.05627  0.51409  0.83257  1.0000
  C   C76       1.0  0.02154  0.41011  0.80751  1.0000
  S   S25       1.0  0.09805  0.02764  0.02284  1.0000
  C   C77       1.0  0.09736  0.51380  0.81275  1.0000
  H   H73       1.0  0.50164  0.01976  0.07555  1.0000
  Fe  Fe14      1.0  0.29433  0.93010  0.12581  1.0000
  S   S26       1.0  0.33694  0.98678  0.11077  1.0000
  S   S27       1.0  0.22893  0.90704  0.10776  1.0000
  Fe  Fe15      1.0  0.35617  0.89760  0.18014  1.0000
  S   S28       1.0  0.40302  0.95190  0.17056  1.0000
  S   S29       1.0  0.36708  0.84813  0.22207  1.0000
  Fe  Fe16      1.0  0.34390  0.99636  0.16703  1.0000
  C   C78       1.0  0.09929  0.63869  0.25164  1.0000
  Fe  Fe17      1.0  0.39322  0.93779  0.11536  1.0000
  S   S30       1.0  0.29747  0.94340  0.18167  1.0000
  S   S31       1.0  0.35019  0.88022  0.12541  1.0000
  Fe  Fe18      1.0  0.45461  0.61444  0.22674  1.0000
  S   S32       1.0  0.48698  0.64236  0.27216  1.0000
  S   S33       1.0  0.44156  0.65838  0.18192  1.0000
  C   C79       1.0  0.50105  0.79954  0.14059  1.0000
  H   H74       1.0  0.25909  0.81459  0.13004  1.0000
  Fe  Fe19      1.0  0.43579  0.60564  0.30146  1.0000
  S   S34       1.0  0.39541  0.63120  0.34608  1.0000
  S   S35       1.0  0.40102  0.58190  0.25597  1.0000
  C   C80       1.0  0.20623  0.98180  0.07104  1.0000
  H   H75       1.0  0.48975  0.81377  0.23747  1.0000
  C   C81       1.0  0.28598  0.66808  0.29554  1.0000
  C   C82       1.0  0.32944  0.65633  0.30293  1.0000
  H   H76       1.0  0.27695  0.67419  0.26959  1.0000
  H   H77       1.0  0.35378  0.65476  0.28279  1.0000
  H   H78       1.0  0.30782  0.75046  0.26390  1.0000
  C   C83       1.0  0.38571  0.79480  0.21040  1.0000
  C   C84       1.0  0.39238  0.78306  0.17641  1.0000
  C   C85       1.0  0.40826  0.74063  0.16779  1.0000
  C   C86       1.0  0.41755  0.70970  0.19312  1.0000
  C   C87       1.0  0.40966  0.72096  0.22710  1.0000
  C   C88       1.0  0.39418  0.76354  0.23571  1.0000
  H   H79       1.0  0.38612  0.80673  0.15670  1.0000
  H   H80       1.0  0.41418  0.73204  0.14146  1.0000
  H   H81       1.0  0.41597  0.69708  0.24682  1.0000
  H   H82       1.0  0.38903  0.77230  0.26210  1.0000
  C   C89       1.0  0.28309  0.76611  0.16578  1.0000
  C   C90       1.0  0.19262  0.94213  0.08537  1.0000
  C   C91       1.0  0.49360  0.80972  0.21027  1.0000
  C   C92       1.0  0.28856  0.75638  0.20013  1.0000
  C   C93       1.0  0.13363  0.99482  0.04770  1.0000
  C   C94       1.0  0.26621  0.66360  0.35501  1.0000
  C   C95       1.0  0.25539  0.82528  0.21574  1.0000
  H   H83       1.0  0.23953  0.99199  0.07406  1.0000
  C   C96       1.0  0.24891  0.83578  0.18167  1.0000
  H   H84       1.0  0.40411  0.01825  0.29659  1.0000
  H   H85       1.0  0.46609  0.87450  0.19977  1.0000
  C   C97       1.0  0.11979  0.95561  0.06263  1.0000
  H   H86       1.0  0.12322  0.63731  0.30249  1.0000
  N   N8        1.0  0.50963  0.77078  0.19689  1.0000
  C   C98       1.0  0.34137  0.64759  0.33635  1.0000
  C   C99       1.0  0.48038  0.84434  0.18907  1.0000
  C   C100      1.0  0.17690  0.00784  0.05201  1.0000
  H   H87       1.0  0.29490  0.74305  0.14646  1.0000
  C   C101      1.0  0.28160  0.77598  0.26047  1.0000
  C   C102      1.0  0.09691  0.62839  0.28602  1.0000
  C   C103      1.0  0.14932  0.92918  0.08111  1.0000
  C   C104      1.0  0.48411  0.83911  0.15402  1.0000
  S   S36       1.0  0.45937  0.93338  0.08848  1.0000
  H   H88       1.0  0.24511  0.84897  0.23505  1.0000
  S   S37       1.0  0.20047  0.68885  0.31158  1.0000
  H   H89       1.0  0.05794  0.60043  0.32604  1.0000
  C   C105      1.0  0.02889  0.60612  0.24451  1.0000
  S   S38       1.0  0.49665  0.55261  0.22383  1.0000
  N   N9        1.0  0.27542  0.78621  0.22455  1.0000
  H   H90       1.0  0.29200  0.80572  0.27433  1.0000
  H   H91       1.0  0.12743  0.65576  0.24150  1.0000
  C   C106      1.0  0.25433  0.67221  0.32156  1.0000
  H   H92       1.0  0.25075  0.76375  0.27204  1.0000
  H   H93       1.0  0.06609  0.63605  0.20398  1.0000
  H   H94       1.0  0.30467  0.72547  0.20707  1.0000
  C   C107      1.0  0.46873  0.92810  0.04436  1.0000
  H   H95       1.0  0.23345  0.86701  0.17468  1.0000
  H   H96       1.0  0.50421  0.73536  0.24344  1.0000
  H   H97       1.0  0.37595  0.00522  0.23905  1.0000
  H   H98       1.0  0.36365  0.54905  0.32207  1.0000
  C   C108      1.0  0.06512  0.62746  0.23065  1.0000
  H   H99       1.0  0.50359  0.79508  0.11334  1.0000
  H   H100      1.0  0.13865  0.89847  0.09201  1.0000
  C   C109      1.0  0.26320  0.80616  0.15657  1.0000
  Fe  Fe20      1.0  0.15474  0.69917  0.35665  1.0000
  S   S39       1.0  0.47800  0.54440  0.30628  1.0000
  S   S40       1.0  0.09821  0.74745  0.35425  1.0000
  H   H101      1.0  0.47326  0.86540  0.13729  1.0000
  C   C110      1.0  0.30964  0.65142  0.36238  1.0000
  C   C111      1.0  0.06009  0.60730  0.29909  1.0000
  H   H102      1.0  0.08661  0.94520  0.05935  1.0000
  H   H103      1.0  0.41222  0.01207  0.06137  1.0000
  H   H104      1.0  0.41326  0.54036  0.36599  1.0000
  C   C112      1.0  0.51386  0.76553  0.16254  1.0000
  H   H105      1.0  0.03709  0.71451  0.30402  1.0000
  H   H106      1.0  0.24902  0.02380  0.35228  1.0000
  N   N10       1.0  0.02652  0.59686  0.27842  1.0000
  H   H107      1.0  0.36248  0.58284  0.66764  1.0000
  Fe  Fe21      1.0  0.13206  0.67134  0.42908  1.0000
  S   S41       1.0  0.17592  0.72265  0.40708  1.0000
  S   S42       1.0  0.16582  0.62388  0.46500  1.0000
  H   H108      1.0  0.05756  0.86085  0.52943  1.0000
  S   S43       1.0  0.11487  0.64462  0.37814  1.0000
  H   H109      1.0  0.21027  0.57169  0.51364  1.0000
  S   S44       1.0  0.06284  0.95407  0.54305  1.0000
  H   H110      1.0  0.26124  0.77834  0.42384  1.0000
  Fe  Fe22      1.0  0.11607  0.76675  0.40709  1.0000
  S   S45       1.0  0.12701  0.83918  0.41662  1.0000
  Fe  Fe23      1.0  0.05948  0.69468  0.37961  1.0000
  S   S46       1.0  0.07305  0.71729  0.43307  1.0000
  C   C113      1.0  0.13133  0.58728  0.57467  1.0000
  C   C114      1.0  0.18052  0.58455  0.52571  1.0000
  C   C115      1.0  0.15239  0.61276  0.50770  1.0000
  C   C116      1.0  0.11421  0.62952  0.52360  1.0000
  C   C117      1.0  0.10386  0.61694  0.55714  1.0000
  H   H111      1.0  0.19185  0.54974  0.57236  1.0000
  H   H112      1.0  0.09238  0.65141  0.50992  1.0000
  H   H113      1.0  0.07402  0.62939  0.56929  1.0000
  C   C118      1.0  0.16999  0.57174  0.55896  1.0000
  H   H114      1.0  0.22039  0.82081  0.42954  1.0000
  H   H115      1.0  0.22935  0.67396  0.50741  1.0000
  H   H116      1.0  0.26947  0.82183  0.45437  1.0000
  S   S47       1.0  0.11560  0.56859  0.61540  1.0000
  C   C119      1.0  0.37615  0.59021  0.69212  1.0000
  C   C120      1.0  0.10766  0.86989  0.45191  1.0000
  C   C121      1.0  0.08653  0.85025  0.47960  1.0000
  C   C122      1.0  0.07368  0.87605  0.50793  1.0000
  C   C123      1.0  0.08117  0.92159  0.50833  1.0000
  C   C124      1.0  0.10185  0.94109  0.48048  1.0000
  C   C125      1.0  0.11535  0.91525  0.45254  1.0000
  H   H117      1.0  0.08046  0.81525  0.47926  1.0000
  H   H118      1.0  0.16646  0.70658  0.54022  1.0000
  H   H119      1.0  0.10789  0.97610  0.48058  1.0000
  H   H120      1.0  0.13188  0.93058  0.43126  1.0000
  N   N11       1.0  0.22356  0.77432  0.46995  1.0000
  C   C126      1.0  0.18950  0.79292  0.48836  1.0000
  C   C127      1.0  0.23848  0.73245  0.47705  1.0000
  C   C128      1.0  0.16836  0.76892  0.51385  1.0000
  C   C129      1.0  0.21833  0.70766  0.50254  1.0000
  C   C130      1.0  0.18284  0.72593  0.52085  1.0000
  C   C131      1.0  0.24492  0.80011  0.44321  1.0000
  H   H121      1.0  0.17817  0.82633  0.48303  1.0000
  H   H122      1.0  0.26537  0.71750  0.46243  1.0000
  H   H123      1.0  0.14074  0.78352  0.52786  1.0000
  H   H124      1.0  0.03746  0.54515  0.56871  1.0000
  H   H125      1.0  0.31858  0.64459  0.38826  1.0000
  H   H126      1.0  0.11807  0.53333  0.46592  1.0000
  C   C132      1.0  0.41782  0.60757  0.69427  1.0000
  H   H127      1.0  0.43674  0.61447  0.67143  1.0000
  H   H128      1.0  0.24194  0.66582  0.37520  1.0000
  H   H129      1.0  0.05790  0.54794  0.50751  1.0000
  H   H130      1.0  0.02645  0.94610  0.43416  1.0000
  H   H131      1.0  0.41712  0.92392  0.96882  1.0000
  H   H132      1.0  0.51593  0.99888  0.89953  1.0000
  H   H133      1.0  0.46354  0.62764  0.78655  1.0000
  C   C133      1.0  0.43448  0.92790  0.02147  1.0000
  C   C134      1.0  0.44371  0.92431  0.98646  1.0000
  C   C135      1.0  0.48711  0.92074  0.97420  1.0000
  H   H134      1.0  0.48082  0.95519  0.80068  1.0000
  C   C136      1.0  0.35257  0.58079  0.72172  1.0000
  C   C137      1.0  0.37126  0.58840  0.75317  1.0000
  H   H135      1.0  0.40906  0.63806  0.80277  1.0000
  C   C138      1.0  0.43016  0.61396  0.78844  1.0000
  H   H136      1.0  0.35348  0.57930  0.77607  1.0000
  H   H137      1.0  0.40095  0.93022  0.03067  1.0000
  S   S48       1.0  0.49766  0.91643  0.93014  1.0000
  H   H138      1.0  0.43236  0.58258  0.80297  1.0000
  H   H139      1.0  0.11662  0.54310  0.81901  1.0000
  H   H140      1.0  0.46772  0.62889  0.72760  1.0000
  C   C139      1.0  0.43526  0.61543  0.72615  1.0000
  C   C140      1.0  0.51208  0.92492  0.03207  1.0000
  Fe  Fe24      1.0  0.02557  0.01468  0.02523  1.0000
  C   C141      1.0  0.51693  0.00281  0.87219  1.0000
  C   C142      1.0  0.49501  0.97358  0.85167  1.0000
  N   N12       1.0  0.41194  0.60578  0.75505  1.0000
  H   H141      1.0  0.47690  0.94681  0.86307  1.0000
  H   H142      1.0  0.32070  0.56603  0.72025  1.0000
  C   C143      1.0  0.49745  0.97845  0.81646  1.0000
  H   H143      1.0  0.84731  0.46174  0.06711  1.0000
  S   S49       1.0  0.98705  0.04413  0.06904  1.0000
  C   C144      1.0  0.00773  0.21257  0.04135  1.0000
  H   H144      1.0  0.99961  0.15521  0.07290  1.0000
  C   C145      1.0  0.85887  0.48872  0.05170  1.0000
  C   C146      1.0  0.01640  0.16902  0.05103  1.0000
  C   C147      1.0  0.72154  0.51188  0.19745  1.0000
  H   H145      1.0  0.73646  0.48901  0.21518  1.0000
  H   H146      1.0  0.98398  0.23272  0.05557  1.0000
  C   C148      1.0  0.67635  0.52046  0.19876  1.0000
  H   H147      1.0  0.65651  0.50411  0.21787  1.0000
  Fe  Fe25      1.0  0.65182  0.16995  0.59638  1.0000
  S   S50       1.0  0.69762  0.21495  0.62313  1.0000
  S   S51       1.0  0.63267  0.18883  0.54317  1.0000
  Fe  Fe26      1.0  0.65139  0.10269  0.65390  1.0000
  S   S52       1.0  0.69666  0.14254  0.68432  1.0000
  H   H148      1.0  0.92374  0.22377  0.53811  1.0000
  Fe  Fe27      1.0  0.65545  0.20090  0.66887  1.0000
  H   H149      1.0  0.98020  0.21075  0.53139  1.0000
  Fe  Fe28      1.0  0.73446  0.15222  0.63586  1.0000
  S   S53       1.0  0.80721  0.13918  0.64089  1.0000
  S   S54       1.0  0.60692  0.16034  0.64140  1.0000
  S   S55       1.0  0.69196  0.10813  0.60598  1.0000
  S   S56       1.0  0.93374  0.12804  0.51184  1.0000
  C   C149      1.0  0.84024  0.13307  0.60407  1.0000
  C   C150      1.0  0.88241  0.11453  0.60694  1.0000
  C   C151      1.0  0.91098  0.11216  0.57870  1.0000
  C   C152      1.0  0.89765  0.12835  0.54732  1.0000
  C   C153      1.0  0.85504  0.14597  0.54423  1.0000
  C   C154      1.0  0.82632  0.14829  0.57254  1.0000
  H   H150      1.0  0.89335  0.10262  0.63126  1.0000
  H   H151      1.0  0.94342  0.09832  0.58151  1.0000
  H   H152      1.0  0.84435  0.15844  0.52000  1.0000
  H   H153      1.0  0.79380  0.16271  0.57011  1.0000
  N   N13       1.0  0.96026  0.21526  0.58333  1.0000
  C   C155      1.0  0.58482  0.11449  0.43810  1.0000
  H   H154      1.0  0.54865  0.26550  0.67298  1.0000
  H   H155      1.0  0.54515  0.12657  0.39417  1.0000
  C   C156      1.0  0.57809  0.18592  0.53011  1.0000
  C   C157      1.0  0.00031  0.20364  0.59582  1.0000
  H   H156      1.0  0.55019  0.06937  0.51127  1.0000
  H   H157      1.0  0.64472  0.13015  0.48389  1.0000
  H   H158      1.0  0.55092  0.41301  0.64019  1.0000
  H   H159      1.0  0.55461  0.15230  0.57465  1.0000
  H   H160      1.0  0.65740  0.38693  0.65416  1.0000
  C   C158      1.0  0.64743  0.32420  0.67876  1.0000
  H   H161      1.0  0.78006  0.09081  0.70162  1.0000
  N   N14       1.0  0.52036  0.32744  0.68954  1.0000
  C   C159      1.0  0.92380  0.21547  0.60401  1.0000
  C   C160      1.0  0.54625  0.11337  0.41970  1.0000
  H   H162      1.0  0.75853  0.06050  0.65010  1.0000
  C   C161      1.0  0.64518  0.37058  0.67667  1.0000
  H   H163      1.0  0.61363  0.12865  0.42645  1.0000
  C   C162      1.0  0.92673  0.20264  0.63795  1.0000
  H   H164      1.0  0.66133  0.30494  0.65796  1.0000
  C   C163      1.0  0.62715  0.09906  0.48892  1.0000
  C   C164      1.0  0.54956  0.08113  0.48534  1.0000
  C   C165      1.0  0.00447  0.19076  0.62965  1.0000
  C   C166      1.0  0.53796  0.34943  0.66246  1.0000
  S   S57       1.0  0.62126  0.45367  0.69940  1.0000
  H   H165      1.0  0.62130  0.09795  0.51682  1.0000
  C   C167      1.0  0.52466  0.19758  0.48573  1.0000
  H   H166      1.0  0.97015  0.17992  0.67699  1.0000
  N   N15       1.0  0.58600  0.09872  0.47055  1.0000
  S   S58       1.0  0.63000  0.03598  0.67322  1.0000
  C   C168      1.0  0.54634  0.16522  0.55001  1.0000
  H   H167      1.0  0.91003  0.03422  0.52994  1.0000
  C   C169      1.0  0.95684  0.22975  0.54805  1.0000
  H   H168      1.0  0.89195  0.22449  0.59415  1.0000
  H   H169      1.0  0.89744  0.20163  0.65393  1.0000
  C   C170      1.0  0.96738  0.19014  0.65077  1.0000
  H   H170      1.0  0.01578  0.49110  0.56013  1.0000
  H   H171      1.0  0.55527  0.33152  0.64230  1.0000
  C   C171      1.0  0.52318  0.27913  0.69090  1.0000
  C   C172      1.0  0.56708  0.20220  0.49803  1.0000
  H   H172      1.0  0.59154  0.21825  0.48253  1.0000
  Fe  Fe29      1.0  0.00431  0.10575  0.51830  1.0000
  H   H173      1.0  0.64837  0.07044  0.48124  1.0000
  H   H174      1.0  0.91026  0.05198  0.46863  1.0000
  H   H175      1.0  0.96378  0.26541  0.54606  1.0000
  C   C173      1.0  0.53535  0.39549  0.66095  1.0000
  N   N16       1.0  0.75210  0.02724  0.69774  1.0000
  C   C174      1.0  0.75257  0.02717  0.66061  1.0000
  C   C175      1.0  0.62647  0.39576  0.70335  1.0000
  S   S59       1.0  0.98277  0.04577  0.98561  1.0000
  H   H176      1.0  0.72230  0.49218  0.75862  1.0000
  H   H177      1.0  0.55894  0.05871  0.87305  1.0000
  C   C176      1.0  0.64420  0.05602  0.77382  1.0000
  C   C177      1.0  0.61078  0.37425  0.73224  1.0000
  C   C178      1.0  0.75791  0.02885  0.95389  1.0000
  Fe  Fe30      1.0  0.58615  0.49254  0.74120  1.0000
  C   C179      1.0  0.81595  0.38647  0.80324  1.0000
  H   H178      1.0  0.99003  0.19224  0.93147  1.0000
  C   C180      1.0  0.77313  0.05558  0.00981  1.0000
  Fe  Fe31      1.0  0.92975  0.34524  0.91508  1.0000
  S   S60       1.0  0.96271  0.40882  0.90161  1.0000
  S   S61       1.0  0.97071  0.28461  0.92779  1.0000
  Fe  Fe32      1.0  0.83999  0.38158  0.89734  1.0000
  S   S62       1.0  0.86559  0.44727  0.88276  1.0000
  S   S63       1.0  0.76937  0.36378  0.89216  1.0000
  Fe  Fe33      1.0  0.91985  0.40942  0.85619  1.0000
  H   H179      1.0  0.97297  0.45475  0.73838  1.0000
  Fe  Fe34      1.0  0.90551  0.44124  0.92947  1.0000
  S   S64       1.0  0.89121  0.34367  0.86734  1.0000
  S   S65       1.0  0.87580  0.37763  0.94655  1.0000
  C   C181      1.0  0.63992  0.06316  0.73898  1.0000
  C   C182      1.0  0.66683  0.46861  0.86351  1.0000
  C   C183      1.0  0.71115  0.47910  0.86302  1.0000
  C   C184      1.0  0.74310  0.44692  0.87096  1.0000
  C   C185      1.0  0.73080  0.40418  0.87955  1.0000
  C   C186      1.0  0.68662  0.39333  0.87876  1.0000
  C   C187      1.0  0.65467  0.42547  0.87081  1.0000
  H   H180      1.0  0.87990  0.22857  0.02156  1.0000
  H   H181      1.0  0.77690  0.45571  0.87131  1.0000
  H   H182      1.0  0.67691  0.36028  0.88531  1.0000
  H   H183      1.0  0.62041  0.41742  0.87189  1.0000
  C   C188      1.0  0.68287  0.50739  0.94012  1.0000
  C   C189      1.0  0.92220  0.17768  0.99979  1.0000
  C   C190      1.0  0.95254  0.16741  0.97386  1.0000
  C   C191      1.0  0.96547  0.20005  0.95080  1.0000
  C   C192      1.0  0.94805  0.24315  0.95338  1.0000
  C   C193      1.0  0.91628  0.25306  0.97840  1.0000
  H   H184      1.0  0.96728  0.13488  0.97214  1.0000
  C   C194      1.0  0.69520  0.39220  0.79023  1.0000
  H   H185      1.0  0.80898  0.03741  0.91655  1.0000
  C   C195      1.0  0.78786  0.45260  0.96592  1.0000
  C   C196      1.0  0.61346  0.32821  0.73454  1.0000
  S   S66       1.0  0.90933  0.13888  0.03153  1.0000
  Fe  Fe35      1.0  0.58750  0.51535  0.81532  1.0000
  C   C197      1.0  0.76761  0.06242  0.71512  1.0000
  C   C198      1.0  0.76680  0.06276  0.75057  1.0000
  C   C199      1.0  0.86857  0.07847  0.95197  1.0000
  C   C200      1.0  0.89030  0.51509  0.99860  1.0000
  H   H186      1.0  0.65142  0.08346  0.79015  1.0000
  H   H187      1.0  0.59631  0.39282  0.75286  1.0000
  H   H188      1.0  0.77780  0.09132  0.76423  1.0000
  H   H189      1.0  0.01384  0.39814  0.83268  1.0000
  H   H190      1.0  0.89082  0.08524  0.97308  1.0000
  N   N17       1.0  0.82605  0.06348  0.96451  1.0000
  H   H191      1.0  0.74071  0.34518  0.81130  1.0000
  H   H192      1.0  0.83441  0.08763  0.01472  1.0000
  H   H193      1.0  0.90285  0.28629  0.98069  1.0000
  C   C201      1.0  0.68997  0.43380  0.77560  1.0000
  C   C202      1.0  0.79877  0.04332  0.94266  1.0000
  H   H194      1.0  0.82040  0.39493  0.83024  1.0000
  C   C203      1.0  0.73703  0.37697  0.79889  1.0000
  C   C204      1.0  0.90348  0.22037  0.00160  1.0000
  C   C205      1.0  0.99864  0.44189  0.75434  1.0000
  H   H195      1.0  0.64906  0.49869  0.93651  1.0000
  H   H196      1.0  0.70291  0.44248  0.95616  1.0000
  H   H197      1.0  0.72059  0.51265  0.85792  1.0000
  N   N18       1.0  0.77268  0.40230  0.79269  1.0000
  H   H198      1.0  0.60098  0.31197  0.75701  1.0000
  N   N19       1.0  0.75650  0.48614  0.95404  1.0000
  S   S67       1.0  0.63097  0.24526  0.71137  1.0000
  S   S68       1.0  0.93381  0.43142  0.80244  1.0000
  H   H199      1.0  0.66695  0.37217  0.79532  1.0000
  H   H200      1.0  0.65773  0.44618  0.76894  1.0000
  H   H201      1.0  0.87571  0.44718  0.00861  1.0000
  H   H202      1.0  0.86431  0.10928  0.93708  1.0000
  H   H203      1.0  0.88513  0.05253  0.93601  1.0000
  C   C206      1.0  0.76776  0.44341  0.77876  1.0000
  H   H204      1.0  0.64287  0.09603  0.72892  1.0000
  C   C207      1.0  0.71351  0.47574  0.95104  1.0000
  C   C208      1.0  0.87479  0.48043  0.01851  1.0000
  H   H205      1.0  0.78637  0.45074  0.99402  1.0000
  H   H206      1.0  0.82179  0.46052  0.95792  1.0000
  C   C209      1.0  0.98820  0.42659  0.78702  1.0000
  H   H207      1.0  0.79590  0.46393  0.77464  1.0000
  H   H208      1.0  0.78085  0.41970  0.95509  1.0000
  C   C210      1.0  0.81324  0.07076  0.99751  1.0000
  Fe  Fe36      1.0  0.94210  0.07121  0.02944  1.0000
  S   S69       1.0  0.62694  0.51110  0.86265  1.0000
  S   S70       1.0  0.55731  0.45995  0.78725  1.0000
  H   H209      1.0  0.81960  0.35010  0.80041  1.0000
  C   C211      1.0  0.63142  0.30301  0.70777  1.0000
  C   C212      1.0  0.72636  0.45967  0.76981  1.0000
  H   H210      1.0  0.84261  0.40145  0.78788  1.0000
  H   H211      1.0  0.54612  0.04125  0.75658  1.0000
  C   C213      1.0  0.63181  0.02797  0.71740  1.0000
  S   S71       1.0  0.91052  0.50647  0.95676  1.0000
  C   C214      1.0  0.74547  0.03422  0.98783  1.0000
  H   H212      1.0  0.53293  0.26790  0.71655  1.0000
  H   H213      1.0  0.56092  0.06710  0.81090  1.0000
  H   H214      1.0  0.94876  0.51688  0.88593  1.0000
  C   C215      1.0  0.97896  0.51658  0.87097  1.0000
  C   C216      1.0  0.54071  0.03661  0.85738  1.0000
  C   C217      1.0  0.97806  0.52351  0.83607  1.0000
  C   C218      1.0  0.75114  0.02631  0.76818  1.0000
  C   C219      1.0  0.54192  0.04095  0.82211  1.0000
  H   H215      1.0  0.76388  0.05998  0.03628  1.0000
  H   H216      1.0  0.74924  0.02641  0.79569  1.0000
  C   C220      1.0  0.01885  0.50834  0.88651  1.0000
  C   C221      1.0  0.01726  0.52238  0.81715  1.0000
  H   H217      1.0  0.99515  0.53790  0.29247  1.0000
  S   S72       1.0  0.92586  0.94355  0.11111  1.0000
  C   C222      1.0  0.88527  0.83995  0.05631  1.0000
  N   N20       1.0  0.98734  0.83731  0.13771  1.0000
  H   H218      1.0  0.54350  0.02162  0.12838  1.0000
  S   S73       1.0  0.59862  0.57120  0.27796  1.0000
  Fe  Fe37      1.0  0.78487  0.67540  0.16839  1.0000
  S   S74       1.0  0.83161  0.62103  0.18446  1.0000
  S   S75       1.0  0.71453  0.69168  0.18325  1.0000
  Fe  Fe38      1.0  0.84669  0.70904  0.11334  1.0000
  S   S76       1.0  0.89755  0.65648  0.12376  1.0000
  S   S77       1.0  0.85559  0.75741  0.07021  1.0000
  Fe  Fe39      1.0  0.84194  0.61014  0.12829  1.0000
  C   C223      1.0  0.96202  0.76336  0.13236  1.0000
  Fe  Fe40      1.0  0.88388  0.67213  0.17890  1.0000
  S   S78       1.0  0.94692  0.68626  0.20629  1.0000
  S   S79       1.0  0.79226  0.66118  0.11282  1.0000
  S   S80       1.0  0.83595  0.72745  0.16785  1.0000
  H   H219      1.0  0.96609  0.79788  0.17949  1.0000
  H   H220      1.0  0.00197  0.59857  0.22816  1.0000
  C   C224      1.0  0.95505  0.68943  0.25042  1.0000
  C   C225      1.0  0.92531  0.67252  0.27412  1.0000
  C   C226      1.0  0.93626  0.67020  0.30862  1.0000
  C   C227      1.0  0.87389  0.56620  0.04527  1.0000
  H   H221      1.0  0.89453  0.66000  0.26577  1.0000
  H   H222      1.0  0.66791  0.59513  0.13616  1.0000
  H   H223      1.0  0.74767  0.57972  0.13215  1.0000
  C   C228      1.0  0.63113  0.60681  0.25362  1.0000
  C   C229      1.0  0.61185  0.63959  0.23356  1.0000
  C   C230      1.0  0.63804  0.66569  0.21244  1.0000
  C   C231      1.0  0.68356  0.65892  0.21099  1.0000
  C   C232      1.0  0.70297  0.62633  0.23119  1.0000
  C   C233      1.0  0.67676  0.60061  0.25274  1.0000
  H   H224      1.0  0.57673  0.64436  0.23403  1.0000
  H   H225      1.0  0.62302  0.69089  0.19680  1.0000
  H   H226      1.0  0.73808  0.62118  0.23035  1.0000
  H   H227      1.0  0.69179  0.57539  0.26837  1.0000
  C   C234      1.0  0.90088  0.89458  0.09911  1.0000
  C   C235      1.0  0.88416  0.86658  0.12408  1.0000
  C   C236      1.0  0.86890  0.82499  0.11527  1.0000
  C   C237      1.0  0.87020  0.81116  0.08148  1.0000
  H   H228      1.0  0.98701  0.80671  0.05528  1.0000
  C   C238      1.0  0.90055  0.88160  0.06510  1.0000
  H   H229      1.0  0.88377  0.87665  0.15037  1.0000
  H   H230      1.0  0.85664  0.80360  0.13477  1.0000
  H   H231      1.0  0.87378  0.59935  0.05542  1.0000
  H   H232      1.0  0.59487  0.53464  0.15885  1.0000
  C   C239      1.0  0.99476  0.70576  0.26167  1.0000
  C   C240      1.0  0.00575  0.70323  0.29601  1.0000
  S   S81       1.0  0.83889  0.54086  0.10717  1.0000
  Fe  Fe41      1.0  0.94851  0.98234  0.06596  1.0000
  H   H233      1.0  0.94880  0.73407  0.14398  1.0000
  C   C241      1.0  0.72779  0.56306  0.15099  1.0000
  C   C242      1.0  0.97187  0.79971  0.15232  1.0000
  C   C243      1.0  0.74731  0.53320  0.17324  1.0000
  H   H234      1.0  0.91364  0.65598  0.32672  1.0000
  C   C244      1.0  0.97700  0.68450  0.31955  1.0000
  C   C245      1.0  0.99331  0.83984  0.10330  1.0000
  H   H235      1.0  0.91310  0.90309  0.04563  1.0000
  C   C246      1.0  0.98380  0.80402  0.08261  1.0000
  H   H236      1.0  0.53876  0.92502  0.04962  1.0000
  H   H237      1.0  0.98119  0.58521  0.31898  1.0000
  H   H238      1.0  0.96347  0.89007  0.16854  1.0000
  H   H239      1.0  0.95849  0.73828  0.08148  1.0000
  H   H240      1.0  0.60092  0.59166  0.17121  1.0000
  H   H241      1.0  0.95881  0.58160  0.27775  1.0000
  C   C247      1.0  0.68263  0.57128  0.15324  1.0000
  C   C248      1.0  0.96784  0.76563  0.09729  1.0000
  C   C249      1.0  0.98862  0.57405  0.29256  1.0000
  H   H242      1.0  0.55901  0.73869  0.22555  1.0000
  S   S82       1.0  0.99267  0.67457  0.36186  1.0000
  C   C250      1.0  0.99522  0.87569  0.15911  1.0000
  C   C251      1.0  0.52398  0.73514  0.21950  1.0000
  H   H243      1.0  0.00380  0.87026  0.09153  1.0000
  C   C252      1.0  0.85858  0.53158  0.06527  1.0000
  Fe  Fe42      1.0  0.52557  0.57839  0.27149  1.0000
  H   H244      1.0  0.01214  0.90212  0.14482  1.0000
  N   N21       1.0  0.65752  0.54998  0.17687  1.0000
  H   H245      1.0  0.52627  0.73453  0.15195  1.0000
  H   H246      1.0  0.59560  0.55015  0.20295  1.0000
  C   C253      1.0  0.60991  0.55688  0.17738  1.0000
  H   H247      1.0  0.01787  0.71908  0.24353  1.0000
  H   H248      1.0  0.01568  0.86610  0.18095  1.0000
  H   H249      1.0  0.78239  0.52678  0.17163  1.0000
  H   H250      1.0  0.51955  0.70230  0.20767  1.0000
  H   H251      1.0  0.00540  0.89660  0.45256  1.0000
  H   H252      1.0  0.98762  0.91747  0.50870  1.0000
  H   H253      1.0  0.72040  0.01692  0.65111  1.0000
  H   H254      1.0  0.97680  0.92278  0.41856  1.0000
  H   H255      1.0  0.77872  0.00431  0.65076  1.0000
  C   C254      1.0  0.97008  0.94647  0.49957  1.0000
  H   H256      1.0  0.94988  0.96678  0.55000  1.0000
  C   C255      1.0  0.94842  0.97414  0.52314  1.0000
  N   N22       1.0  0.97041  0.95662  0.46580  1.0000
  H   H257      1.0  0.95020  0.00255  0.42792  1.0000
  C   C256      1.0  0.99591  0.92917  0.44159  1.0000
  C   C257      1.0  0.94901  0.99383  0.45456  1.0000
  C   C258      1.0  0.92634  0.01201  0.51191  1.0000
  C   C259      1.0  0.92637  0.02188  0.47739  1.0000
  H   H258      1.0  0.72435  0.96356  0.70101  1.0000
  C   C260      1.0  0.73713  0.99120  0.71480  1.0000
  H   H259      1.0  0.77530  0.78733  0.03202  1.0000
  Fe  Fe43      1.0  0.94273  0.98490  0.99023  1.0000
  S   S83       1.0  0.90958  0.95623  0.94494  1.0000
  H   H260      1.0  0.55480  0.91839  0.98796  1.0000
  Fe  Fe44      1.0  0.55756  0.58511  0.76568  1.0000
  Fe  Fe45      1.0  0.66472  0.90814  0.92870  1.0000
  S   S84       1.0  0.61589  0.96134  0.91553  1.0000
  S   S85       1.0  0.71018  0.91511  0.97262  1.0000
  Fe  Fe46      1.0  0.63323  0.84622  0.87448  1.0000
  S   S86       1.0  0.58204  0.89473  0.85581  1.0000
  S   S87       1.0  0.65347  0.77669  0.85917  1.0000
  Fe  Fe47      1.0  0.63400  0.94530  0.86138  1.0000
  H   H261      1.0  0.80221  0.83823  0.02350  1.0000
  Fe  Fe48      1.0  0.56780  0.90732  0.91141  1.0000
  H   H262      1.0  0.69827  0.79561  0.99079  1.0000
  S   S88       1.0  0.68658  0.89589  0.87509  1.0000
  S   S89       1.0  0.61489  0.85518  0.92950  1.0000
  H   H263      1.0  0.54308  0.75177  0.77223  1.0000
  C   C261      1.0  0.62980  0.97860  0.76634  1.0000
  C   C262      1.0  0.77200  0.81974  0.01901  1.0000
  C   C263      1.0  0.62610  0.98572  0.73121  1.0000
  H   H264      1.0  0.67320  0.57384  0.92213  1.0000
  H   H265      1.0  0.62611  0.94588  0.77682  1.0000
  H   H266      1.0  0.75118  0.59310  0.92961  1.0000
  H   H267      1.0  0.90170  0.58493  0.99690  1.0000
  C   C264      1.0  0.79789  0.81930  0.95961  1.0000
  H   H268      1.0  0.74446  0.83935  0.03073  1.0000
  C   C265      1.0  0.57639  0.69131  0.78653  1.0000
  C   C266      1.0  0.56745  0.73694  0.78842  1.0000
  C   C267      1.0  0.59003  0.76351  0.81118  1.0000
  C   C268      1.0  0.62223  0.74461  0.83172  1.0000
  C   C269      1.0  0.63105  0.69903  0.82978  1.0000
  C   C270      1.0  0.60794  0.67241  0.80757  1.0000
  C   C271      1.0  0.88968  0.55795  0.01209  1.0000
  H   H269      1.0  0.58312  0.79863  0.81240  1.0000
  H   H270      1.0  0.65590  0.68417  0.84553  1.0000
  H   H271      1.0  0.61505  0.63733  0.80641  1.0000
  C   C272      1.0  0.76606  0.92333  0.96411  1.0000
  C   C273      1.0  0.79421  0.92770  0.99134  1.0000
  C   C274      1.0  0.83857  0.93613  0.98557  1.0000
  C   C275      1.0  0.85503  0.94114  0.95255  1.0000
  C   C276      1.0  0.82721  0.93539  0.92520  1.0000
  C   C277      1.0  0.78278  0.92656  0.93096  1.0000
  H   H272      1.0  0.78167  0.92490  0.01707  1.0000
  H   H273      1.0  0.86000  0.93844  0.00677  1.0000
  H   H274      1.0  0.83984  0.93874  0.89956  1.0000
  H   H275      1.0  0.76147  0.92319  0.90977  1.0000
  H   H276      1.0  0.01606  0.52691  0.78992  1.0000
  C   C278      1.0  0.75008  0.80037  0.91421  1.0000
  C   C279      1.0  0.72464  0.80011  0.97246  1.0000
  H   H277      1.0  0.80402  0.53637  0.95031  1.0000
  C   C280      1.0  0.71681  0.79330  0.93808  1.0000
  C   C281      1.0  0.73680  0.99002  0.75023  1.0000
  N   N23       1.0  0.76469  0.81325  0.98278  1.0000
  S   S90       1.0  0.99021  0.95054  0.02489  1.0000
  C   C282      1.0  0.74029  0.56025  0.93577  1.0000
  H   H278      1.0  0.74387  0.79595  0.88744  1.0000
  S   S91       1.0  0.89925  0.01266  0.03152  1.0000
  H   H279      1.0  0.81697  0.81950  0.90663  1.0000
  C   C283      1.0  0.79096  0.81340  0.92497  1.0000
  H   H280      1.0  0.73667  0.01195  0.93672  1.0000
  H   H281      1.0  0.82960  0.82993  0.96776  1.0000
  C   C284      1.0  0.63968  0.01376  0.78758  1.0000
  C   C285      1.0  0.69651  0.54968  0.93196  1.0000
  H   H282      1.0  0.68496  0.78312  0.92985  1.0000
  H   H283      1.0  0.53215  0.98462  0.75302  1.0000
  H   H284      1.0  0.72402  0.96180  0.76374  1.0000
  H   H285      1.0  0.61947  0.95835  0.71465  1.0000
  S   S92       1.0  0.62008  0.54534  0.76987  1.0000
  N   N24       1.0  0.52079  0.01178  0.80212  1.0000
  H   H286      1.0  0.71474  0.02115  0.99708  1.0000
  S   S93       1.0  0.64807  0.00697  0.83121  1.0000
  H   H287      1.0  0.88645  0.82956  0.03009  1.0000
  S   S94       1.0  0.54839  0.65842  0.75747  1.0000
  S   S95       1.0  0.52706  0.55841  0.81308  1.0000
  C   C286      1.0  0.52208  0.01648  0.76514  1.0000
  S   S96       1.0  0.52694  0.53591  0.73144  1.0000
  H   H288      1.0  0.94707  0.52837  0.82354  1.0000
  C   C287      1.0  0.76999  0.52796  0.94723  1.0000
  C   C288      1.0  0.52128  0.92114  0.99714  1.0000
