data_image0
_chemical_formula_structural       CSC2S2HFeSCFeS2FeSFeS3HCSHCFeS2C2FeS2H2CHC4HC2HC7H5CHC5HCH2SCH4CNC2HNC2HC4HCH4NC6H8FeNH2CH3FeCSH2SC3SCHCHC2SFeSCHFeHCH2C2H3CH5C2H4SHSHFeS2CSH2FeS2HC2HSCNFeCSFeCS2FeS2FeSHFeSFeS3FeS2FeS2FeSFeS3H3C6H4C2FeH3NC6H6CH2C5HC7H4FeNH2C2HC2HC3HCH2C6H4CH5CHFeHC4FeCH2C3SH2C2HC3H5C2FeHCNH2NHC2HC2NH3CSH3CHNCNH2CNFeH2C2HCNC4HCH4CH2SH2C3H4C3SHS2CHCH2SFeSC2FeS2FeS2FeS2FeSFeS3FeSCHS2FeS2FeSCFeSFeS3FeS2FeSFeSFeS3C2H2C7H5C7H7CH2CH2C2SHSHCHC2H2C6H4CNC2H4C2H2SC7H4CHC4NHC3HNC6H4CH3C5H4C3H2NCH2CHCSHFeHCH3C4HNC6H8SH2C3SHCH2C3H2NH5CHSH2C2H3FeCNC4H4C2FeH2CH3NHC4H2CHC2SNCH2NCHC2HSHCHSFeHNH2C3FeCSC2HSNFeS2C2HFeS2FeS2FeSFeS3C10H4NH5CHCHNH2C3H3NC6H4CH2CH2NC3H2C2HCHCS2H4CHCHCH2C2H2SC2H2CFeC2H4SHCHSHCH2C2HCH2CH2C5H4CHFeH2CH2CH2FeCSH2CHCFeS2HCFeS2FeS2FeS2FeSFeS2FeS2FeCSFeCFeS3FeSHCSHFe2SCSC6H4C6H4NCHC2S2H11SC6H4C3FeSCH3CSC3H3C6H5C2HC3HNH3C2HC2HFeS2CSHSCN2C6H5CH4CHCSH2CSFeHFeH3CSH3CH2CHCHSNHCHSFeCSC3H3CHNHSHNCHC2H2CHCH2FeS2HSFeSCHSCHS2CHCNHFeS2FeS2FeCFeS3H3FeS2C2HSCFeS2FeS2FeSFeS3C6H4C6H4CH3C8FeNCH2C6H3C7H4C2H2CHC4FeH2C4HCH2C3NC4SH3NH3NC6H8FeCHCHCHCHFeSCH2SCSH2CHFe2SNC5SHCH2C2HCHFeCHCSH2CSC2FeSHCNC6H11S2FeHCHC2SC2HCH3NHSH2C2HC4HC2H2C2H2CHNH3NC2H6C2HCHC3H2C2H2C2SCSFeSCFeS2FeSFeS3FeS2FeS2FeSFeS3FeSFeS2FeSFeS3FeS3FeSFeS2H3CNC3HC2H3C6H4C6H4C6H4C2HC3HC2HC6H4C6H4C5H4CNHCH2FeC6H5CH5CH3SHCNHCH3C6HC3H2C2NC6H8FeH3CSH3C2HCHCH3CHCHCSNC3HC2H3C2H3CH4C2HCH2CNH2NH3C2HCH2CNHCHCSHCHSHC2HC2H2CSHFeSHFeSFeS2HCHSHNHCFeSHSCFeS2FeSCFeSFeS3C3SHCHCHC2H4C6H4CHC2H2SH4SHCHC11H5CSC2HCH2Fe2H2CNH2NCFeHSH2CH2CH2C3HCHFeH3CHSH2C7H4C2HC3FeSHFeS2FeSFeS3FeS2FeSCFeSFeS3FeSFeS2FeS3FeSFeS2FeSFeSFeS2C4H2C6H4C6H4C6H4C6H5C4HCH4C6H6CSCH2C4H2C2HC2SH2NCH3SCFeH2SCH3CHCSCSC2HCSHCH3SCH2NC6H8CHC2HNC6HSCH3SHC2NCH2C3NC6H8NCHCHC2H4CSH5NCFeH5C2HNH4C2FeC2SCHC4HCHCNC6H4SCHNCH3C3HCHC2SHCH2CSH3NHCH3CHC2H2C2H2C2HC2H2CH3C2H2CHCHNH2NFeC2H3NFeS2FeS2FeSFeS4FeS2FeSFeS2FeS2FeS2FeCFeS3HC2H2CFeSFeS2FeS4HC4SCNCNC2H2SH2C8H4C6H4C6H4C5H3CH2C5H4NC8H3CHNC7H3SCH4C4SCH2CHCHC3HCHC2H2C3H2CH2CHC2HC2H3NH3C3H3C2H3NC6H8SHSFeC3HSC3HNC3H4CH4CSH3CFeHCNHCHC2H2CHCHC2H2CHCHC2H4CHCHCNCHCHSH2CH3CHCSCHFeCHCHSHCSH3FeSCSHFeCSHFeS2CFeSCFeS2FeSFeS3HNH4C7H4CNH2CHC2SHC5H2CH2C6H7NHCSC3FeCSC2H2CH3FeCHCHC2HCH4CH2C2H3CSNCFeH2CH2CHC2HFeHCHC3H3CHFeCHSC2NH2SH5CSHNCHFeC2HCFeS2FeS2Fe2S3FeS2HC2HFeSC2FeSFeSFeSFeS3FeS2FeS2FeCFeS3FeS2FeSFeSCNHC6H2C3HC3H4SCH3C6H4CHCH3FeC7SH2C6H4C6H4C6H5SCNHC6NH3NHCHNCH5C3HCH2NHCHCHSCHNC6H9CH3C3H2C4HSHNHCNC6SHC2H4NC6H8CSH2SHSCH2CH2C3HSC2SCHCHC3HC4HC2H5CH3CH3C2HC2H2CH2C5H12CH6FeSH3CH2CS2CNHC3SCH3SCHCFeS2Fe2C2SHFeSC2SFeSFeHSHFeS2FeS2FeSFeS3C2HFeS2NHFeS3NHC2HCH3CHC5H2C6H4C6H4SHFeH2CNH2C4H2C9H2CS2CHC2FeC2NC6H10CHCSH4CHC3NC6HCH2CH3CSFeCH3CH2SHCHCHCH2C2FeH3CH3C2H2C3NHSCH2CHSC2HC2H3NCSHCH2CHC3SHCHC2H4CHSNH2NH2SH3FeSHFeS2FeSHFeHFeSHSHFeSFeNSHC2NSCSC2H2CH2SH3CSH2SH4CH3C8H4C2HC8H2SHSCFeHNFeCHC6H2C3SCSH5CH2C2HCH4NHC2SFeCHC3HCHFeCSCH2CH4C2H2S2FeS2FeSFeS3FeS2FeS2FeSFeS3FeS2FeS2FeSFeS3FeS3Fe2S2HSFeHC2HC4H2C2H2FeHC2H3NHC2HC6H4C4H2C6H4C5H3C2FeCHC4HCH4C6H5CS2C3H2CH2SCH3NCHC3HC2H2SC2HC2H2C2H2CHNHCHCHC2H3C2NC6H9CHC3H2C2HNFeCHCH2C2SHSFeSH2C3HNC3H6C2FeHCH4CH6SNC3H3CFe2HSC3HFeS2FeS2FeSC2S2FeS2FeCSHFeS2FeSHFeSFeS3FeS2FeSFeSFeS3CSH2CHCNCHSCHC6H4C4H5C7H2CH2CHC2HCSCHNHC2H5CH2CHCHC4HC3HNFeH2C6H5CHC2HCHC2HCH3CH5NHC4HC3HC2H2SCHCSH3FeHCHNCH2CH2CNH2CH2SC2HCHCHCH3CSHCH2CH2CHCHNH2SHC2H2C3HFeS2CH4SHSFeCSFeS2HCFeHS2FeSFeSHFeCFeS3H4CH2SHCH3C6H4SC2HNH2NHC6HCH2CHSC2SH4C2FeNCHCHC3HC2HSFe2HCSCH2C2H2C2HNH2C2HC2NCFeSHC2H3CH5CHCNCHC2HFeS2FeS2FeSFeS3FeS2FeS2FeSFeS3FeS2FeS2FeSFeS4HFeSFe2HSCHS2CH2C7HCH3C6H4C5H2C6H4C6H4SC4H2C6H6CH3C6H3C5SH3NC6H11C4HNC3HCHCHC2HSC2HCHCSCH2CNHCSHCNCHCHNC2SCH3CHFeNC6H13FeCH2CHNSHCFeNC2H3C4H4C2SH2NHC2H3CH6CHSHFeSCH2CHCHNHFeS2FeS2FeSFeS2FeS2FeS2FeSFeHS2HCHC2H4C7H5NSHNCH2SHC2HC2H3CHC4HCH2CHC5HC2HC6H3C3H2CH2CHSC3H2CSHCNC6H8CH2SCN2C6H8CHC4FeCHSCHNHC2H2SCHC2H2CH2CH2CHCHC4HC3SHSH3FeHCH4FeCSH2SCS2HCH2FeS2FeS2FeSFeCS2FeS2HSFeSFeS2FeHFeSFeS2FeS2FeCSHCH2C6H6CFeSH2CHC5H2C2HC3H4SCFeCHC8SH3C6H4C4HSH2CHC6H4SHC2HCHCHC2NHCH2C2NC5H8SFeCNHC5HSH2SFeH2CHSCHFeHC2H2C2HC2H2NHNH2CH3NHCNC2SH2NC3HC4HCFeH2CH3C3SC2HC5SH2SH3CH3SHCHNH3FeSFeS2FeSFeS3FeSHFeS2FeSFeS3CHS2HCHFeSHSFeSFeS2FeS2HCH2FeS3FeHFeCSCNSHC3H3FeH2CHC3HC7H4CHC7H4CHCSHC8H2FeH2C2HC3HCH2C6H4SNSHCNC5H6SHCNC6H2CH5NC6H9NC6HSH4CSC2H2CHC3HFeS2CHFeC2HCHC2H2CSCHCHC2HCHC2FeHCHCHSCHCH2C2HC2H6CH2C2HCSCHCH3C2HC2H2CH3CSH2NCHNC2HCH4C2HC2SHCHCSHNH2NH3NCHC2H2CHCH3CHCH3CSCSCFeS2FeSFeS3H2SHCFeS2FeS2FeSFeS3H3CNCH6NHC2NFeH2C7H5C4NC2H2C3HC3H2C4HCH4SHC6H7SFeSFeHC2HCH2SH2SHC3HCH4CH2C6HC2HC2HC2H3CH2NFeH2C2NC5HNC6H2CHCNHC5H2CNCH2SCSCSH3SH3C3H2CHCHCHC3H4C2HC4H2C4SH2FeSH2SCFeHFeSCSH5CHCNH3FeC2FeSCFeS2FeS2FeSFeS3CSCSCFeCFeSHCFeSHFeSFeH2NH2CH2CHCHC6H4C6H4SC2HCH3SHSC3SCSHSH2C6H4C3HNHCHNHCHC9HC2H3CSCHC2HCHCHCH6CFeCH2SH2SH2CHFeCHC3H3SNC6H3CHSHC4NHC2HCHC4HNH3CHCH3C2HSHCNSCNSH3FeCSHCH2FeHSCH2C4H4SHFeS2FeSFeSFeS2FeSFeS2Fe2S3FeSHSCFeS2FeHFeS2FeSFeS2FeSFeS3C6H4C6H4C2HC4H4CH2S2HSC7H4CHC4H2SC2HC6H2C2FeSH3C2H2CH2CHC2HC3HNC3H8SCHCHCH2CH2SCH3C2HCHCH2NC7H4CHSH2NSCHSCHC4H4NC6H8CNC2H2FeCNH7C2HSCHCHC2HCSCHCHC2H2CNH2CHCH2C2HC3HCH2Fe
_chemical_formula_sum              "C2304 S768 H2304 Fe384 N192"
_cell_length_a       73.3248
_cell_length_b       73.1659
_cell_length_c       73.0084
_cell_angle_alpha    74.9501
_cell_angle_beta     74.9526
_cell_angle_gamma    74.9015

_space_group_name_H-M_alt    "P 1"
_space_group_IT_number       1

loop_
  _space_group_symop_operation_xyz
  'x, y, z'

loop_
  _atom_site_type_symbol
  _atom_site_label
  _atom_site_symmetry_multiplicity
  _atom_site_fract_x
  _atom_site_fract_y
  _atom_site_fract_z
  _atom_site_occupancy
  C   C1        1.0  0.05361  0.32332  0.18849  1.0000
  S   S1        1.0  0.21689  0.27870  0.15655  1.0000
  C   C2        1.0  0.04620  0.27349  0.21338  1.0000
  C   C3        1.0  0.21131  0.23153  0.06311  1.0000
  S   S2        1.0  0.18348  0.30473  0.00411  1.0000
  S   S3        1.0  0.22142  0.25382  0.12420  1.0000
  H   H1        1.0  0.00460  0.29112  0.19654  1.0000
  Fe  Fe1       1.0  0.07540  0.30772  0.27406  1.0000
  S   S4        1.0  0.10417  0.29817  0.25571  1.0000
  C   C4        1.0  0.99304  0.30216  0.23787  1.0000
  Fe  Fe2       1.0  0.05674  0.28030  0.26301  1.0000
  S   S5        1.0  0.08436  0.26818  0.24406  1.0000
  S   S6        1.0  0.03165  0.26547  0.26896  1.0000
  Fe  Fe3       1.0  0.09864  0.26835  0.26758  1.0000
  S   S7        1.0  0.12203  0.24544  0.27917  1.0000
  Fe  Fe4       1.0  0.08753  0.29903  0.23362  1.0000
  S   S8        1.0  0.09862  0.31148  0.20223  1.0000
  S   S9        1.0  0.07100  0.27757  0.28764  1.0000
  S   S10       1.0  0.05870  0.31148  0.25085  1.0000
  H   H2        1.0  0.10978  0.29608  0.29649  1.0000
  C   C5        1.0  0.09122  0.33924  0.29072  1.0000
  S   S11       1.0  0.14030  0.37141  0.27890  1.0000
  H   H3        1.0  0.16518  0.27264  0.02679  1.0000
  C   C6        1.0  0.18324  0.25730  0.06687  1.0000
  Fe  Fe5       1.0  0.19700  0.27097  0.14261  1.0000
  S   S12       1.0  0.19479  0.29824  0.11972  1.0000
  S   S13       1.0  0.17253  0.25747  0.16216  1.0000
  C   C7        1.0  0.09441  0.20201  0.28680  1.0000
  C   C8        1.0  0.20948  0.39421  0.22655  1.0000
  Fe  Fe6       1.0  0.21647  0.30501  0.13277  1.0000
  S   S14       1.0  0.21377  0.33042  0.14605  1.0000
  S   S15       1.0  0.07274  0.32632  0.29532  1.0000
  H   H4        1.0  0.22672  0.34629  0.17134  1.0000
  H   H5        1.0  0.18856  0.02025  0.31012  1.0000
  C   C9        1.0  0.10949  0.35578  0.30244  1.0000
  H   H6        1.0  0.05727  0.22997  0.28872  1.0000
  C   C10       1.0  0.16264  0.26929  0.04286  1.0000
  C   C11       1.0  0.01154  0.27577  0.25790  1.0000
  C   C12       1.0  0.22459  0.38036  0.21890  1.0000
  C   C13       1.0  0.23539  0.33794  0.14363  1.0000
  H   H7        1.0  0.12670  0.35554  0.25452  1.0000
  C   C14       1.0  0.11387  0.22368  0.28815  1.0000
  C   C15       1.0  0.10146  0.21910  0.27914  1.0000
  H   H8        1.0  0.09744  0.22862  0.26615  1.0000
  C   C16       1.0  0.23398  0.20112  0.98317  1.0000
  C   C17       1.0  0.11841  0.29641  0.19011  1.0000
  C   C18       1.0  0.13159  0.30465  0.17452  1.0000
  C   C19       1.0  0.14817  0.29285  0.16558  1.0000
  C   C20       1.0  0.15131  0.27274  0.17187  1.0000
  C   C21       1.0  0.13770  0.26450  0.18690  1.0000
  C   C22       1.0  0.12145  0.27629  0.19616  1.0000
  H   H9        1.0  0.12929  0.32021  0.16969  1.0000
  H   H10       1.0  0.15855  0.29934  0.15394  1.0000
  H   H11       1.0  0.13995  0.24894  0.19167  1.0000
  H   H12       1.0  0.11128  0.26973  0.20791  1.0000
  H   H13       1.0  0.05572  0.32811  0.20093  1.0000
  C   C23       1.0  0.00872  0.29482  0.24731  1.0000
  H   H14       1.0  0.20233  0.24613  0.08712  1.0000
  C   C24       1.0  0.02726  0.30675  0.19195  1.0000
  C   C25       1.0  0.01883  0.29050  0.19884  1.0000
  C   C26       1.0  0.10301  0.34264  0.27230  1.0000
  C   C27       1.0  0.19405  0.36953  0.24774  1.0000
  C   C28       1.0  0.05435  0.28989  0.20598  1.0000
  H   H15       1.0  0.10038  0.33796  0.26052  1.0000
  C   C29       1.0  0.19127  0.24309  0.03926  1.0000
  H   H16       1.0  0.01947  0.31980  0.18399  1.0000
  H   H17       1.0  0.18421  0.40998  0.25778  1.0000
  S   S16       1.0  0.21793  0.21699  0.99720  1.0000
  C   C30       1.0  0.11783  0.35272  0.26890  1.0000
  H   H18       1.0  0.21005  0.40939  0.22137  1.0000
  H   H19       1.0  0.18222  0.36516  0.25912  1.0000
  H   H20       1.0  0.01869  0.30382  0.24624  1.0000
  H   H21       1.0  0.04461  0.33567  0.18017  1.0000
  C   C31       1.0  0.02834  0.27383  0.20972  1.0000
  N   N1        1.0  0.19436  0.38872  0.24060  1.0000
  C   C32       1.0  0.20910  0.35527  0.24062  1.0000
  C   C33       1.0  0.99836  0.26430  0.25934  1.0000
  H   H22       1.0  0.18838  0.24219  0.02573  1.0000
  N   N2        1.0  0.17962  0.25644  0.04967  1.0000
  C   C34       1.0  0.04826  0.22481  0.30301  1.0000
  C   C35       1.0  0.13528  0.31021  0.30407  1.0000
  H   H23       1.0  0.02155  0.26145  0.21587  1.0000
  C   C36       1.0  0.19674  0.29712  0.02277  1.0000
  C   C37       1.0  0.19040  0.30554  0.03919  1.0000
  C   C38       1.0  0.20045  0.29909  0.05450  1.0000
  C   C39       1.0  0.21709  0.28444  0.05322  1.0000
  H   H24       1.0  0.05344  0.26078  0.22229  1.0000
  C   C40       1.0  0.21325  0.28238  0.02170  1.0000
  H   H25       1.0  0.17764  0.31700  0.04010  1.0000
  H   H26       1.0  0.19544  0.30555  0.06715  1.0000
  H   H27       1.0  0.16611  0.39760  0.25728  1.0000
  H   H28       1.0  0.06800  0.31972  0.17892  1.0000
  N   N3        1.0  0.16463  0.27139  0.21347  1.0000
  C   C41       1.0  0.14917  0.28358  0.22208  1.0000
  C   C42       1.0  0.17856  0.27868  0.19904  1.0000
  C   C43       1.0  0.14698  0.30366  0.21574  1.0000
  C   C44       1.0  0.17690  0.29869  0.19242  1.0000
  C   C45       1.0  0.16091  0.31121  0.20075  1.0000
  C   C46       1.0  0.16659  0.25037  0.21991  1.0000
  H   H29       1.0  0.13815  0.27773  0.23347  1.0000
  H   H30       1.0  0.19066  0.26893  0.19217  1.0000
  H   H31       1.0  0.13421  0.31329  0.22190  1.0000
  H   H32       1.0  0.18762  0.30450  0.18051  1.0000
  H   H33       1.0  0.15913  0.32672  0.19529  1.0000
  H   H34       1.0  0.15250  0.24641  0.22768  1.0000
  H   H35       1.0  0.17176  0.24324  0.20721  1.0000
  H   H36       1.0  0.17696  0.24460  0.22975  1.0000
  Fe  Fe7       1.0  0.19068  0.38558  0.30122  1.0000
  N   N4        1.0  0.04483  0.30626  0.19553  1.0000
  H   H37       1.0  0.14991  0.26244  0.04878  1.0000
  H   H38       1.0  0.21828  0.27576  0.00924  1.0000
  C   C47       1.0  0.23345  0.36098  0.27439  1.0000
  H   H39       1.0  0.21669  0.22026  0.03716  1.0000
  H   H40       1.0  0.08481  0.19851  0.27979  1.0000
  H   H41       1.0  0.17412  0.26796  0.07506  1.0000
  Fe  Fe8       1.0  0.22099  0.28168  0.10211  1.0000
  C   C48       1.0  0.12118  0.35925  0.28394  1.0000
  S   S17       1.0  0.21496  0.39765  0.27980  1.0000
  H   H42       1.0  0.22337  0.35565  0.28710  1.0000
  H   H43       1.0  0.06826  0.28958  0.20879  1.0000
  S   S18       1.0  0.18227  0.35811  0.30203  1.0000
  C   C49       1.0  0.20735  0.23054  0.04573  1.0000
  C   C50       1.0  0.19914  0.24491  0.07382  1.0000
  C   C51       1.0  0.17886  0.40360  0.24844  1.0000
  S   S19       1.0  0.16128  0.40383  0.29950  1.0000
  C   C52       1.0  0.19560  0.03133  0.31079  1.0000
  H   H44       1.0  0.15946  0.28348  0.04717  1.0000
  C   C53       1.0  0.23283  0.38085  0.26817  1.0000
  H   H45       1.0  0.17385  0.41522  0.23653  1.0000
  C   C54       1.0  0.22442  0.36077  0.22605  1.0000
  C   C55       1.0  0.22348  0.27623  0.03674  1.0000
  S   S20       1.0  0.17588  0.26102  0.98934  1.0000
  Fe  Fe9       1.0  0.15236  0.37589  0.30249  1.0000
  S   S21       1.0  0.23015  0.27525  0.07195  1.0000
  C   C56       1.0  0.21538  0.02993  0.30347  1.0000
  H   H46       1.0  0.15619  0.32807  0.29870  1.0000
  Fe  Fe10      1.0  0.19070  0.28596  0.98188  1.0000
  H   H47       1.0  0.23633  0.26490  0.03564  1.0000
  C   C57       1.0  0.09910  0.18987  0.30393  1.0000
  H   H48       1.0  0.23666  0.38478  0.20797  1.0000
  H   H49       1.0  0.22385  0.22208  0.06818  1.0000
  C   C58       1.0  0.09444  0.34590  0.30577  1.0000
  C   C59       1.0  0.14708  0.31922  0.30957  1.0000
  H   H50       1.0  0.20912  0.34008  0.24664  1.0000
  H   H51       1.0  0.13550  0.31214  0.28878  1.0000
  H   H52       1.0  0.23648  0.34990  0.22074  1.0000
  C   C60       1.0  0.22432  0.04394  0.30506  1.0000
  H   H53       1.0  0.02588  0.25825  0.31058  1.0000
  H   H54       1.0  0.22387  0.01778  0.29700  1.0000
  H   H55       1.0  0.00043  0.24957  0.26755  1.0000
  H   H56       1.0  0.03317  0.22733  0.30117  1.0000
  H   H57       1.0  0.16321  0.46709  0.30029  1.0000
  C   C61       1.0  0.15132  0.47640  0.30802  1.0000
  C   C62       1.0  0.11927  0.21111  0.30478  1.0000
  H   H58       1.0  0.05337  0.20893  0.30766  1.0000
  H   H59       1.0  0.99105  0.31682  0.22949  1.0000
  H   H60       1.0  0.12893  0.21456  0.31174  1.0000
  H   H61       1.0  0.09367  0.08297  0.41128  1.0000
  S   S22       1.0  0.18752  0.27755  0.61621  1.0000
  H   H62       1.0  0.05383  0.26333  0.35341  1.0000
  S   S23       1.0  0.14141  0.28219  0.61893  1.0000
  H   H63       1.0  0.19505  0.17103  0.48459  1.0000
  Fe  Fe11      1.0  0.16905  0.26981  0.60027  1.0000
  S   S24       1.0  0.17575  0.27625  0.56745  1.0000
  S   S25       1.0  0.21890  0.03004  0.43057  1.0000
  C   C63       1.0  0.15083  0.45265  0.35653  1.0000
  S   S26       1.0  0.17045  0.23947  0.61737  1.0000
  H   H64       1.0  0.15784  0.21285  0.40954  1.0000
  H   H65       1.0  0.14221  0.14143  0.42401  1.0000
  Fe  Fe12      1.0  0.17459  0.35505  0.33428  1.0000
  S   S27       1.0  0.14383  0.37089  0.33505  1.0000
  S   S28       1.0  0.18465  0.32571  0.35209  1.0000
  H   H66       1.0  0.16715  0.07823  0.33223  1.0000
  C   C64       1.0  0.03824  0.26278  0.33228  1.0000
  C   C65       1.0  0.15854  0.38040  0.38370  1.0000
  H   H67       1.0  0.22431  0.08954  0.44362  1.0000
  S   S29       1.0  0.18612  0.38088  0.33351  1.0000
  C   C66       1.0  0.21742  0.23831  0.58485  1.0000
  N   N5        1.0  0.19392  0.06052  0.32106  1.0000
  Fe  Fe13      1.0  0.18861  0.03007  0.37603  1.0000
  C   C67       1.0  0.16230  0.46622  0.35407  1.0000
  S   S30       1.0  0.15997  0.04406  0.36744  1.0000
  Fe  Fe14      1.0  0.21584  0.02328  0.40321  1.0000
  C   C68       1.0  0.23639  0.20040  0.58371  1.0000
  S   S31       1.0  0.20732  0.04812  0.37957  1.0000
  S   S32       1.0  0.21150  0.01549  0.35428  1.0000
  Fe  Fe15      1.0  0.09271  0.14072  0.38524  1.0000
  S   S33       1.0  0.06899  0.15924  0.40293  1.0000
  S   S34       1.0  0.11424  0.11849  0.40100  1.0000
  Fe  Fe16      1.0  0.08232  0.16476  0.34743  1.0000
  S   S35       1.0  0.05814  0.18542  0.36199  1.0000
  H   H68       1.0  0.22972  0.04640  0.45687  1.0000
  Fe  Fe17      1.0  0.07865  0.18422  0.38063  1.0000
  S   S36       1.0  0.08446  0.21128  0.38556  1.0000
  Fe  Fe18      1.0  0.05065  0.15861  0.38268  1.0000
  S   S37       1.0  0.01972  0.15491  0.39461  1.0000
  S   S38       1.0  0.10347  0.16577  0.36421  1.0000
  S   S39       1.0  0.07361  0.13774  0.36696  1.0000
  Fe  Fe19      1.0  0.14045  0.22294  0.45753  1.0000
  S   S40       1.0  0.15963  0.23970  0.43361  1.0000
  S   S41       1.0  0.12770  0.19939  0.45388  1.0000
  Fe  Fe20      1.0  0.14734  0.23980  0.48907  1.0000
  S   S42       1.0  0.16676  0.25820  0.46767  1.0000
  S   S43       1.0  0.14016  0.23610  0.52179  1.0000
  Fe  Fe21      1.0  0.14517  0.26448  0.44871  1.0000
  S   S44       1.0  0.13403  0.29476  0.43304  1.0000
  Fe  Fe22      1.0  0.17943  0.23191  0.45454  1.0000
  S   S45       1.0  0.21153  0.22134  0.44688  1.0000
  S   S46       1.0  0.12438  0.24823  0.47131  1.0000
  S   S47       1.0  0.16160  0.21306  0.47724  1.0000
  H   H69       1.0  0.14782  0.20587  0.38297  1.0000
  H   H70       1.0  0.20993  0.25317  0.58509  1.0000
  H   H71       1.0  0.05323  0.12333  0.44346  1.0000
  C   C69       1.0  0.09536  0.20844  0.40529  1.0000
  C   C70       1.0  0.09694  0.19116  0.41911  1.0000
  C   C71       1.0  0.10638  0.18884  0.43427  1.0000
  C   C72       1.0  0.11443  0.20372  0.43567  1.0000
  C   C73       1.0  0.11270  0.22112  0.42198  1.0000
  C   C74       1.0  0.10311  0.22349  0.40686  1.0000
  H   H72       1.0  0.09097  0.17951  0.41809  1.0000
  H   H73       1.0  0.10763  0.17538  0.44485  1.0000
  H   H74       1.0  0.11878  0.23271  0.42301  1.0000
  H   H75       1.0  0.10183  0.23695  0.39627  1.0000
  C   C75       1.0  0.20894  0.16799  0.44289  1.0000
  C   C76       1.0  0.20383  0.18763  0.44388  1.0000
  Fe  Fe23      1.0  0.15596  0.39729  0.33191  1.0000
  H   H76       1.0  0.19252  0.35728  0.37340  1.0000
  H   H77       1.0  0.19794  0.16041  0.44331  1.0000
  H   H78       1.0  0.18894  0.19517  0.44512  1.0000
  N   N6        1.0  0.23423  0.23097  0.59149  1.0000
  C   C77       1.0  0.14762  0.06500  0.37648  1.0000
  C   C78       1.0  0.13243  0.07750  0.36826  1.0000
  C   C79       1.0  0.12242  0.09431  0.37529  1.0000
  C   C80       1.0  0.12738  0.09845  0.39080  1.0000
  C   C81       1.0  0.14254  0.08593  0.39902  1.0000
  C   C82       1.0  0.15276  0.06933  0.39177  1.0000
  H   H79       1.0  0.12841  0.07419  0.35642  1.0000
  H   H80       1.0  0.11072  0.10389  0.36890  1.0000
  H   H81       1.0  0.14631  0.08900  0.41113  1.0000
  H   H82       1.0  0.16431  0.05965  0.39833  1.0000
  H   H83       1.0  0.03311  0.09117  0.39472  1.0000
  H   H84       1.0  0.16978  0.04742  0.32588  1.0000
  C   C83       1.0  0.15769  0.43705  0.34696  1.0000
  H   H85       1.0  0.21266  0.19824  0.57266  1.0000
  H   H86       1.0  0.21435  0.13973  0.49974  1.0000
  C   C84       1.0  0.18087  0.46397  0.34239  1.0000
  C   C85       1.0  0.18778  0.44819  0.33314  1.0000
  C   C86       1.0  0.17618  0.43493  0.33521  1.0000
  C   C87       1.0  0.23575  0.17749  0.49055  1.0000
  C   C88       1.0  0.07931  0.09179  0.41464  1.0000
  H   H87       1.0  0.15406  0.32866  0.43551  1.0000
  C   C89       1.0  0.14663  0.31721  0.32920  1.0000
  C   C90       1.0  0.16935  0.31638  0.37344  1.0000
  C   C91       1.0  0.15104  0.32702  0.38003  1.0000
  C   C92       1.0  0.13991  0.31987  0.39803  1.0000
  C   C93       1.0  0.14707  0.30214  0.40950  1.0000
  C   C94       1.0  0.16510  0.29123  0.40258  1.0000
  C   C95       1.0  0.17618  0.29833  0.38456  1.0000
  H   H88       1.0  0.14566  0.34095  0.37157  1.0000
  H   H89       1.0  0.12594  0.32834  0.40336  1.0000
  H   H90       1.0  0.17080  0.27762  0.41138  1.0000
  H   H91       1.0  0.19036  0.29004  0.37952  1.0000
  Fe  Fe24      1.0  0.21916  0.99293  0.38002  1.0000
  N   N7        1.0  0.12320  0.29969  0.31777  1.0000
  H   H92       1.0  0.22053  0.06968  0.31569  1.0000
  H   H93       1.0  0.08594  0.10248  0.43647  1.0000
  C   C96       1.0  0.10738  0.27406  0.55739  1.0000
  C   C97       1.0  0.22831  0.07864  0.40115  1.0000
  H   H94       1.0  0.17004  0.38849  0.37538  1.0000
  C   C98       1.0  0.11554  0.28315  0.52251  1.0000
  C   C99       1.0  0.21729  0.09084  0.43139  1.0000
  H   H95       1.0  0.15087  0.37835  0.37335  1.0000
  C   C100      1.0  0.00556  0.15121  0.38014  1.0000
  C   C101      1.0  0.01316  0.14932  0.36089  1.0000
  C   C102      1.0  0.00171  0.14541  0.35015  1.0000
  H   H96       1.0  0.12823  0.15289  0.39455  1.0000
  C   C103      1.0  0.13592  0.16183  0.39818  1.0000
  H   H97       1.0  0.02790  0.15074  0.35433  1.0000
  H   H98       1.0  0.13080  0.18545  0.37409  1.0000
  C   C104      1.0  0.16757  0.26334  0.55493  1.0000
  C   C105      1.0  0.15605  0.24989  0.56486  1.0000
  C   C106      1.0  0.14834  0.24108  0.55447  1.0000
  C   C107      1.0  0.15221  0.24553  0.53411  1.0000
  C   C108      1.0  0.16439  0.25838  0.52419  1.0000
  C   C109      1.0  0.17200  0.26731  0.53459  1.0000
  H   H99       1.0  0.15266  0.24660  0.58054  1.0000
  H   H100      1.0  0.13900  0.23106  0.56223  1.0000
  H   H101      1.0  0.16750  0.26189  0.50852  1.0000
  H   H102      1.0  0.18103  0.27761  0.52682  1.0000
  C   C110      1.0  0.06562  0.23823  0.34063  1.0000
  H   H103      1.0  0.15891  0.16248  0.43269  1.0000
  H   H104      1.0  0.06910  0.08490  0.39278  1.0000
  H   H105      1.0  0.11190  0.36086  0.31409  1.0000
  H   H106      1.0  0.08529  0.34339  0.32004  1.0000
  H   H107      1.0  0.18554  0.07260  0.34612  1.0000
  C   C111      1.0  0.16293  0.33528  0.42233  1.0000
  H   H108      1.0  0.03676  0.11527  0.38241  1.0000
  Fe  Fe25      1.0  0.18685  0.24794  0.63485  1.0000
  H   H109      1.0  0.16489  0.19384  0.42874  1.0000
  C   C112      1.0  0.15579  0.35361  0.41194  1.0000
  C   C113      1.0  0.15323  0.16733  0.41952  1.0000
  C   C114      1.0  0.21796  0.19737  0.44374  1.0000
  C   C115      1.0  0.23468  0.17179  0.62747  1.0000
  Fe  Fe26      1.0  0.23075  0.03164  0.36004  1.0000
  C   C116      1.0  0.14702  0.19157  0.39180  1.0000
  H   H110      1.0  0.14139  0.36121  0.41743  1.0000
  H   H111      1.0  0.19395  0.20640  0.63491  1.0000
  C   C117      1.0  0.04290  0.11498  0.42231  1.0000
  C   C118      1.0  0.12656  0.29533  0.52418  1.0000
  C   C119      1.0  0.13449  0.30624  0.34308  1.0000
  S   S48       1.0  0.19479  0.00631  0.40168  1.0000
  H   H112      1.0  0.20556  0.17522  0.62413  1.0000
  H   H113      1.0  0.18022  0.19528  0.40488  1.0000
  C   C120      1.0  0.03320  0.10565  0.39679  1.0000
  C   C121      1.0  0.05664  0.11441  0.43275  1.0000
  H   H114      1.0  0.18646  0.31046  0.42253  1.0000
  C   C122      1.0  0.10580  0.27250  0.53919  1.0000
  C   C123      1.0  0.13747  0.18004  0.38662  1.0000
  C   C124      1.0  0.12002  0.28714  0.57812  1.0000
  H   H115      1.0  0.12039  0.27286  0.58832  1.0000
  H   H116      1.0  0.13363  0.29157  0.57747  1.0000
  H   H117      1.0  0.10759  0.29786  0.58403  1.0000
  H   H118      1.0  0.14821  0.38977  0.39327  1.0000
  H   H119      1.0  0.23270  0.19319  0.48652  1.0000
  C   C125      1.0  0.21891  0.20756  0.57755  1.0000
  C   C126      1.0  0.03690  0.25240  0.31921  1.0000
  Fe  Fe27      1.0  0.15998  0.28699  0.63669  1.0000
  H   H120      1.0  0.11569  0.18488  0.32577  1.0000
  C   C127      1.0  0.13397  0.47035  0.31679  1.0000
  N   N8        1.0  0.23184  0.08746  0.41390  1.0000
  H   H121      1.0  0.18159  0.42316  0.32757  1.0000
  H   H122      1.0  0.13233  0.45629  0.31590  1.0000
  N   N9        1.0  0.16659  0.36157  0.39484  1.0000
  H   H123      1.0  0.15690  0.47825  0.36139  1.0000
  C   C128      1.0  0.22159  0.20736  0.63920  1.0000
  C   C129      1.0  0.11169  0.19435  0.31280  1.0000
  H   H124      1.0  0.18722  0.09011  0.32337  1.0000
  C   C130      1.0  0.12788  0.29650  0.54262  1.0000
  C   C131      1.0  0.18294  0.07617  0.33113  1.0000
  N   N10       1.0  0.22158  0.16747  0.49322  1.0000
  H   H125      1.0  0.20828  0.10564  0.42861  1.0000
  H   H126      1.0  0.11509  0.28137  0.50832  1.0000
  H   H127      1.0  0.13459  0.30326  0.51129  1.0000
  C   C132      1.0  0.23724  0.18756  0.44220  1.0000
  S   S49       1.0  0.23415  0.13323  0.44176  1.0000
  H   H128      1.0  0.07695  0.23249  0.34889  1.0000
  H   H129      1.0  0.13699  0.30552  0.54381  1.0000
  H   H130      1.0  0.09784  0.26242  0.53796  1.0000
  C   C133      1.0  0.16501  0.19736  0.41296  1.0000
  H   H131      1.0  0.21502  0.07348  0.40421  1.0000
  N   N11       1.0  0.11854  0.28575  0.55890  1.0000
  C   C134      1.0  0.18111  0.32501  0.41500  1.0000
  N   N12       1.0  0.15467  0.18519  0.40811  1.0000
  H   H132      1.0  0.10016  0.26536  0.57028  1.0000
  H   H133      1.0  0.02829  0.27642  0.33381  1.0000
  C   C135      1.0  0.14380  0.15539  0.41474  1.0000
  N   N13       1.0  0.04948  0.23523  0.31714  1.0000
  Fe  Fe28      1.0  0.14425  0.25234  0.63740  1.0000
  H   H134      1.0  0.02879  0.12433  0.42528  1.0000
  H   H135      1.0  0.20213  0.44634  0.32410  1.0000
  C   C136      1.0  0.07494  0.10270  0.42888  1.0000
  C   C137      1.0  0.06535  0.09294  0.40426  1.0000
  H   H136      1.0  0.00774  0.14385  0.33532  1.0000
  C   C138      1.0  0.06387  0.22827  0.32744  1.0000
  N   N14       1.0  0.04734  0.10427  0.40832  1.0000
  C   C139      1.0  0.18433  0.35146  0.38741  1.0000
  C   C140      1.0  0.05265  0.25554  0.34313  1.0000
  C   C141      1.0  0.20945  0.22670  0.57790  1.0000
  C   C142      1.0  0.12280  0.29751  0.33706  1.0000
  H   H137      1.0  0.23076  0.25434  0.60538  1.0000
  C   C143      1.0  0.21332  0.05918  0.31402  1.0000
  H   H138      1.0  0.20795  0.07997  0.43617  1.0000
  H   H139      1.0  0.11332  0.28905  0.34792  1.0000
  H   H140      1.0  0.19591  0.23249  0.57304  1.0000
  H   H141      1.0  0.07398  0.21483  0.32565  1.0000
  C   C144      1.0  0.22817  0.15805  0.44186  1.0000
  H   H142      1.0  0.10600  0.47691  0.33489  1.0000
  H   H143      1.0  0.01831  0.11190  0.40389  1.0000
  S   S50       1.0  0.14265  0.42092  0.34908  1.0000
  H   H144      1.0  0.15564  0.32419  0.33364  1.0000
  H   H145      1.0  0.20127  0.19316  0.48435  1.0000
  C   C145      1.0  0.20884  0.19912  0.63424  1.0000
  C   C146      1.0  0.21537  0.18135  0.62838  1.0000
  C   C147      1.0  0.19190  0.33311  0.39743  1.0000
  H   H146      1.0  0.13414  0.30458  0.35839  1.0000
  H   H147      1.0  0.20566  0.32488  0.39112  1.0000
  H   H148      1.0  0.13655  0.45438  0.36566  1.0000
  H   H149      1.0  0.19294  0.17808  0.50719  1.0000
  C   C148      1.0  0.20174  0.17792  0.49233  1.0000
  C   C149      1.0  0.18504  0.04677  0.31968  1.0000
  C   C150      1.0  0.22553  0.14768  0.49785  1.0000
  S   S51       1.0  0.08768  0.17028  0.31496  1.0000
  H   H150      1.0  0.09602  0.29275  0.32058  1.0000
  S   S52       1.0  0.19594  0.48041  0.33889  1.0000
  S   S53       1.0  0.21434  0.23070  0.64409  1.0000
  C   C151      1.0  0.11919  0.48202  0.32768  1.0000
  H   H151      1.0  0.11705  0.27437  0.31360  1.0000
  C   C152      1.0  0.11099  0.29018  0.31187  1.0000
  H   H152      1.0  0.05652  0.25035  0.83887  1.0000
  H   H153      1.0  0.16590  0.43179  0.76642  1.0000
  S   S54       1.0  0.04389  0.26450  0.87469  1.0000
  Fe  Fe29      1.0  0.17275  0.26879  0.95834  1.0000
  S   S55       1.0  0.16072  0.25796  0.65656  1.0000
  C   C153      1.0  0.01561  0.23484  0.91313  1.0000
  C   C154      1.0  0.20755  0.46380  0.72173  1.0000
  Fe  Fe30      1.0  0.19338  0.02488  0.76564  1.0000
  S   S56       1.0  0.16484  0.03331  0.78541  1.0000
  S   S57       1.0  0.19679  0.02452  0.73436  1.0000
  Fe  Fe31      1.0  0.05760  0.16229  0.74848  1.0000
  S   S58       1.0  0.05975  0.13834  0.77460  1.0000
  S   S59       1.0  0.02898  0.17694  0.73993  1.0000
  Fe  Fe32      1.0  0.10014  0.16440  0.74135  1.0000
  S   S60       1.0  0.10538  0.14091  0.76724  1.0000
  S   S61       1.0  0.12672  0.17554  0.72437  1.0000
  Fe  Fe33      1.0  0.08821  0.12595  0.75677  1.0000
  S   S62       1.0  0.09907  0.09629  0.74970  1.0000
  Fe  Fe34      1.0  0.07675  0.15593  0.78217  1.0000
  S   S63       1.0  0.06985  0.16467  0.81102  1.0000
  S   S64       1.0  0.08461  0.14870  0.72985  1.0000
  S   S65       1.0  0.07289  0.18068  0.75709  1.0000
  Fe  Fe35      1.0  0.21327  0.27590  0.94310  1.0000
  S   S66       1.0  0.18488  0.29560  0.95160  1.0000
  C   C155      1.0  0.01038  0.25087  0.83687  1.0000
  H   H154      1.0  0.02766  0.22437  0.79224  1.0000
  S   S67       1.0  0.14446  0.27192  0.94974  1.0000
  S   S68       1.0  0.20084  0.24965  0.94791  1.0000
  Fe  Fe36      1.0  0.19182  0.35026  0.71956  1.0000
  S   S69       1.0  0.16644  0.37523  0.71944  1.0000
  S   S70       1.0  0.20092  0.32692  0.70187  1.0000
  Fe  Fe37      1.0  0.20210  0.35803  0.75460  1.0000
  S   S71       1.0  0.17701  0.38306  0.75800  1.0000
  C   C156      1.0  0.18669  0.32374  0.68720  1.0000
  Fe  Fe38      1.0  0.16018  0.36462  0.75168  1.0000
  S   S72       1.0  0.12998  0.36108  0.76634  1.0000
  Fe  Fe39      1.0  0.18562  0.39150  0.72560  1.0000
  S   S73       1.0  0.18683  0.42248  0.71073  1.0000
  S   S74       1.0  0.18438  0.33869  0.75152  1.0000
  S   S75       1.0  0.21182  0.36752  0.72253  1.0000
  Fe  Fe40      1.0  0.11226  0.27531  0.84884  1.0000
  S   S76       1.0  0.13114  0.24603  0.84843  1.0000
  S   S77       1.0  0.13028  0.29746  0.84343  1.0000
  Fe  Fe41      1.0  0.07619  0.25853  0.86436  1.0000
  S   S78       1.0  0.09258  0.22775  0.86620  1.0000
  Fe  Fe42      1.0  0.11346  0.23710  0.87780  1.0000
  S   S79       1.0  0.13141  0.21916  0.89960  1.0000
  Fe  Fe43      1.0  0.10872  0.23961  0.83674  1.0000
  S   S80       1.0  0.11884  0.22368  0.81219  1.0000
  S   S81       1.0  0.09552  0.26677  0.87891  1.0000
  S   S82       1.0  0.09129  0.27001  0.83406  1.0000
  C   C157      1.0  0.19725  0.43472  0.72176  1.0000
  C   C158      1.0  0.20283  0.42600  0.73945  1.0000
  H   H155      1.0  0.21859  0.40717  0.79222  1.0000
  H   H156      1.0  0.20131  0.41135  0.74625  1.0000
  C   C159      1.0  0.13038  0.27765  0.69199  1.0000
  C   C160      1.0  0.12957  0.34418  0.78834  1.0000
  C   C161      1.0  0.11302  0.33655  0.79741  1.0000
  C   C162      1.0  0.11312  0.32197  0.81428  1.0000
  C   C163      1.0  0.12962  0.31542  0.82229  1.0000
  C   C164      1.0  0.14594  0.32343  0.81350  1.0000
  C   C165      1.0  0.14600  0.33764  0.79643  1.0000
  H   H157      1.0  0.10023  0.34172  0.79125  1.0000
  H   H158      1.0  0.10039  0.31599  0.82122  1.0000
  H   H159      1.0  0.15867  0.31848  0.81976  1.0000
  H   H160      1.0  0.15870  0.34366  0.78965  1.0000
  H   H161      1.0  0.14407  0.99965  0.77611  1.0000
  C   C166      1.0  0.14630  0.32967  0.73005  1.0000
  C   C167      1.0  0.14088  0.25593  0.93722  1.0000
  C   C168      1.0  0.15505  0.23980  0.93277  1.0000
  C   C169      1.0  0.15191  0.22818  0.92168  1.0000
  C   C170      1.0  0.13474  0.23283  0.91475  1.0000
  C   C171      1.0  0.12050  0.24869  0.91959  1.0000
  C   C172      1.0  0.12351  0.26010  0.93085  1.0000
  H   H162      1.0  0.16842  0.23634  0.93779  1.0000
  H   H163      1.0  0.16292  0.21580  0.91817  1.0000
  H   H164      1.0  0.10694  0.25198  0.91502  1.0000
  H   H165      1.0  0.11236  0.27233  0.93451  1.0000
  H   H166      1.0  0.19542  0.46039  0.69916  1.0000
  H   H167      1.0  0.03092  0.23261  0.91420  1.0000
  H   H168      1.0  0.02980  0.20617  0.81401  1.0000
  C   C173      1.0  0.16941  0.98408  0.73574  1.0000
  H   H169      1.0  0.00726  0.19991  0.86109  1.0000
  H   H170      1.0  0.17615  0.99630  0.72832  1.0000
  C   C174      1.0  0.16709  0.11995  0.69403  1.0000
  H   H171      1.0  0.13453  0.34182  0.73435  1.0000
  H   H172      1.0  0.11405  0.22919  0.71491  1.0000
  C   C175      1.0  0.19962  0.45363  0.71292  1.0000
  C   C176      1.0  0.01247  0.14232  0.70165  1.0000
  S   S83       1.0  0.23442  0.28179  0.91486  1.0000
  H   H173      1.0  0.09936  0.25249  0.68881  1.0000
  S   S84       1.0  0.22253  0.06620  0.70623  1.0000
  H   H174      1.0  0.00715  0.23016  0.92788  1.0000
  C   C177      1.0  0.15290  0.13106  0.70587  1.0000
  H   H175      1.0  0.21512  0.42930  0.76186  1.0000
  C   C178      1.0  0.03056  0.24818  0.83158  1.0000
  C   C179      1.0  0.17050  0.33769  0.68267  1.0000
  H   H176      1.0  0.09264  0.15660  0.86426  1.0000
  H   H177      1.0  0.16665  0.35106  0.68783  1.0000
  C   C180      1.0  0.08245  0.18232  0.81039  1.0000
  C   C181      1.0  0.07660  0.19310  0.82498  1.0000
  C   C182      1.0  0.08714  0.20656  0.82516  1.0000
  C   C183      1.0  0.10383  0.20896  0.81096  1.0000
  C   C184      1.0  0.10945  0.19840  0.79619  1.0000
  C   C185      1.0  0.09870  0.18523  0.79581  1.0000
  H   H178      1.0  0.06397  0.19093  0.83618  1.0000
  H   H179      1.0  0.08254  0.21481  0.83644  1.0000
  H   H180      1.0  0.12229  0.20023  0.78513  1.0000
  H   H181      1.0  0.10329  0.17702  0.78446  1.0000
  C   C186      1.0  0.12410  0.19235  0.70275  1.0000
  N   N15       1.0  0.01366  0.22416  0.89953  1.0000
  C   C187      1.0  0.10425  0.21351  0.68057  1.0000
  C   C188      1.0  0.10615  0.19921  0.69743  1.0000
  H   H182      1.0  0.17892  0.30386  0.73396  1.0000
  H   H183      1.0  0.09029  0.21904  0.67662  1.0000
  H   H184      1.0  0.09369  0.19370  0.70644  1.0000
  H   H185      1.0  0.23172  0.37361  0.83817  1.0000
  C   C189      1.0  0.03112  0.26060  0.85917  1.0000
  C   C190      1.0  0.22110  0.38062  0.78316  1.0000
  H   H186      1.0  0.20433  0.29586  0.68334  1.0000
  H   H187      1.0  0.12071  0.30452  0.90594  1.0000
  S   S85       1.0  0.21634  0.04171  0.76066  1.0000
  C   C191      1.0  0.13828  0.21378  0.67425  1.0000
  C   C192      1.0  0.14750  0.05194  0.77511  1.0000
  C   C193      1.0  0.14789  0.05589  0.75522  1.0000
  C   C194      1.0  0.13312  0.06980  0.74752  1.0000
  C   C195      1.0  0.11825  0.08033  0.75951  1.0000
  C   C196      1.0  0.11825  0.07696  0.77926  1.0000
  C   C197      1.0  0.13271  0.06259  0.78708  1.0000
  H   H188      1.0  0.15921  0.04787  0.74584  1.0000
  H   H189      1.0  0.13309  0.07231  0.73225  1.0000
  H   H190      1.0  0.10667  0.08488  0.78862  1.0000
  H   H191      1.0  0.13231  0.05958  0.80248  1.0000
  C   C198      1.0  0.11041  0.25608  0.69386  1.0000
  H   H192      1.0  0.23396  0.09353  0.67176  1.0000
  C   C199      1.0  0.01513  0.14326  0.74858  1.0000
  C   C200      1.0  0.01084  0.16350  0.74518  1.0000
  C   C201      1.0  0.18078  0.30353  0.66834  1.0000
  C   C202      1.0  0.22018  0.36014  0.88707  1.0000
  N   N16       1.0  0.15730  0.45880  0.74776  1.0000
  H   H193      1.0  0.02974  0.13543  0.74925  1.0000
  C   C203      1.0  0.22717  0.39283  0.79134  1.0000
  C   C204      1.0  0.02119  0.18054  0.79336  1.0000
  C   C205      1.0  0.04094  0.25288  0.84280  1.0000
  H   H194      1.0  0.03822  0.24221  0.81894  1.0000
  N   N17       1.0  0.13309  0.18489  0.85477  1.0000
  C   C206      1.0  0.12148  0.18186  0.87281  1.0000
  C   C207      1.0  0.13076  0.17758  0.84026  1.0000
  C   C208      1.0  0.10674  0.17165  0.87653  1.0000
  C   C209      1.0  0.11634  0.16712  0.84355  1.0000
  C   C210      1.0  0.10416  0.16431  0.86175  1.0000
  C   C211      1.0  0.14857  0.19548  0.85094  1.0000
  H   H195      1.0  0.12335  0.18762  0.88436  1.0000
  H   H196      1.0  0.13972  0.18032  0.82585  1.0000
  H   H197      1.0  0.09734  0.16960  0.89075  1.0000
  H   H198      1.0  0.11424  0.16177  0.83185  1.0000
  C   C212      1.0  0.11867  0.24284  0.70862  1.0000
  H   H199      1.0  0.14699  0.20324  0.86269  1.0000
  H   H200      1.0  0.16279  0.18531  0.84968  1.0000
  H   H201      1.0  0.14825  0.20652  0.83721  1.0000
  C   C213      1.0  0.13459  0.31107  0.76226  1.0000
  C   C214      1.0  0.16716  0.30171  0.74639  1.0000
  C   C215      1.0  0.13738  0.29600  0.77824  1.0000
  C   C216      1.0  0.17052  0.28663  0.76223  1.0000
  C   C217      1.0  0.15552  0.28385  0.77829  1.0000
  H   H202      1.0  0.12058  0.32080  0.76255  1.0000
  H   H203      1.0  0.12564  0.29398  0.79069  1.0000
  H   H204      1.0  0.18473  0.27734  0.76208  1.0000
  H   H205      1.0  0.15789  0.27238  0.79080  1.0000
  C   C218      1.0  0.19174  0.30666  0.68001  1.0000
  C   C219      1.0  0.03049  0.20852  0.79822  1.0000
  C   C220      1.0  0.00067  0.13319  0.75003  1.0000
  H   H206      1.0  0.18372  0.08350  0.72901  1.0000
  H   H207      1.0  0.01167  0.15654  0.78934  1.0000
  N   N18       1.0  0.14948  0.31393  0.74675  1.0000
  C   C221      1.0  0.99421  0.14433  0.69802  1.0000
  H   H208      1.0  0.23087  0.38457  0.86772  1.0000
  H   H209      1.0  0.15410  0.19419  0.69512  1.0000
  C   C222      1.0  0.13326  0.24708  0.71484  1.0000
  H   H210      1.0  0.14040  0.43889  0.76595  1.0000
  C   C223      1.0  0.01922  0.15876  0.70067  1.0000
  S   S86       1.0  0.11736  0.24034  0.64934  1.0000
  H   H211      1.0  0.15633  0.01285  0.75440  1.0000
  Fe  Fe44      1.0  0.23645  0.01266  0.76446  1.0000
  H   H212      1.0  0.21068  0.33375  0.90247  1.0000
  C   C224      1.0  0.15949  0.33454  0.67104  1.0000
  H   H213      1.0  0.21455  0.33003  0.83849  1.0000
  H   H214      1.0  0.21761  0.35345  0.82471  1.0000
  H   H215      1.0  0.14429  0.14463  0.69960  1.0000
  C   C225      1.0  0.22688  0.36491  0.85223  1.0000
  C   C226      1.0  0.14018  0.19952  0.69106  1.0000
  C   C227      1.0  0.00760  0.17148  0.79096  1.0000
  C   C228      1.0  0.23195  0.36192  0.78245  1.0000
  H   H216      1.0  0.15059  0.26804  0.71111  1.0000
  N   N19       1.0  0.14642  0.28700  0.89282  1.0000
  C   C229      1.0  0.15808  0.29099  0.90254  1.0000
  C   C230      1.0  0.15287  0.27209  0.88313  1.0000
  C   C231      1.0  0.17656  0.27957  0.90318  1.0000
  C   C232      1.0  0.17125  0.26037  0.88348  1.0000
  C   C233      1.0  0.18311  0.26412  0.89365  1.0000
  C   C234      1.0  0.12714  0.29917  0.89226  1.0000
  H   H217      1.0  0.15282  0.30253  0.91058  1.0000
  H   H218      1.0  0.14362  0.26891  0.87544  1.0000
  H   H219      1.0  0.18547  0.28233  0.91152  1.0000
  H   H220      1.0  0.17598  0.24820  0.87629  1.0000
  H   H221      1.0  0.19721  0.25487  0.89447  1.0000
  H   H222      1.0  0.12799  0.31160  0.87973  1.0000
  H   H223      1.0  0.11715  0.29088  0.89060  1.0000
  H   H224      1.0  0.15018  0.45776  0.72155  1.0000
  S   S87       1.0  0.22033  0.26876  0.97254  1.0000
  H   H225      1.0  0.14270  0.32426  0.71884  1.0000
  H   H226      1.0  0.03572  0.17231  0.79394  1.0000
  C   C235      1.0  0.01092  0.26371  0.86418  1.0000
  C   C236      1.0  0.00920  0.20633  0.87211  1.0000
  C   C237      1.0  0.99187  0.17348  0.74444  1.0000
  S   S88       1.0  0.22540  0.46630  0.74957  1.0000
  H   H227      1.0  0.18936  0.09400  0.69340  1.0000
  C   C238      1.0  0.16197  0.46981  0.75774  1.0000
  H   H228      1.0  0.02112  0.12804  0.70588  1.0000
  H   H229      1.0  0.22978  0.30995  0.93831  1.0000
  C   C239      1.0  0.16467  0.31752  0.66372  1.0000
  C   C240      1.0  0.21501  0.34273  0.88838  1.0000
  C   C241      1.0  0.12028  0.22096  0.66910  1.0000
  H   H230      1.0  0.11765  0.29615  0.66057  1.0000
  H   H231      1.0  0.18494  0.29039  0.66273  1.0000
  N   N20       1.0  0.98971  0.17891  0.69240  1.0000
  H   H232      1.0  0.16960  0.12478  0.67839  1.0000
  H   H233      1.0  0.17004  0.99583  0.77117  1.0000
  H   H234      1.0  0.03308  0.15737  0.70425  1.0000
  H   H235      1.0  0.04538  0.20232  0.79112  1.0000
  H   H236      1.0  0.14005  0.23668  0.72597  1.0000
  C   C242      1.0  0.17815  0.10271  0.70243  1.0000
  H   H237      1.0  0.22006  0.36470  0.90013  1.0000
  S   S89       1.0  0.21298  0.99576  0.77230  1.0000
  H   H238      1.0  0.00421  0.11760  0.75190  1.0000
  H   H239      1.0  0.13907  0.13356  0.73506  1.0000
  C   C243      1.0  0.02910  0.21903  0.88529  1.0000
  C   C244      1.0  0.21065  0.43619  0.74829  1.0000
  H   H240      1.0  0.13517  0.29117  0.68546  1.0000
  H   H241      1.0  0.04287  0.22262  0.88411  1.0000
  H   H242      1.0  0.20792  0.38556  0.77768  1.0000
  Fe  Fe45      1.0  0.21839  0.99682  0.74046  1.0000
  C   C245      1.0  0.22629  0.37127  0.86890  1.0000
  N   N21       1.0  0.16083  0.10777  0.73413  1.0000
  C   C246      1.0  0.14998  0.12472  0.72600  1.0000
  C   C247      1.0  0.02707  0.21018  0.87130  1.0000
  C   C248      1.0  0.15818  0.10210  0.75528  1.0000
  C   C249      1.0  0.98880  0.18188  0.79047  1.0000
  H   H243      1.0  0.15075  0.21930  0.66536  1.0000
  H   H244      1.0  0.16396  0.08640  0.76007  1.0000
  H   H245      1.0  0.16566  0.11044  0.76060  1.0000
  H   H246      1.0  0.14258  0.10493  0.76216  1.0000
  C   C250      1.0  0.15519  0.43891  0.75706  1.0000
  C   C251      1.0  0.21322  0.45501  0.73937  1.0000
  Fe  Fe46      1.0  0.22135  0.03930  0.72969  1.0000
  H   H247      1.0  0.01044  0.25060  0.90795  1.0000
  H   H248      1.0  0.15945  0.33578  0.72360  1.0000
  C   C252      1.0  0.99605  0.22050  0.90039  1.0000
  H   H249      1.0  0.21278  0.32271  0.87262  1.0000
  H   H250      1.0  0.03907  0.20704  0.85949  1.0000
  H   H251      1.0  0.00323  0.26985  0.87670  1.0000
  N   N22       1.0  0.11658  0.27304  0.68549  1.0000
  H   H252      1.0  0.01247  0.18968  0.69654  1.0000
  C   C253      1.0  0.15732  0.99852  0.76451  1.0000
  C   C254      1.0  0.17486  0.09683  0.72264  1.0000
  C   C255      1.0  0.21618  0.33660  0.87141  1.0000
  C   C256      1.0  0.10782  0.28657  0.66991  1.0000
  H   H253      1.0  0.21749  0.20876  0.96083  1.0000
  H   H254      1.0  0.10488  0.27860  0.66028  1.0000
  C   C257      1.0  0.00746  0.17705  0.69629  1.0000
  H   H255      1.0  0.16495  0.46366  0.77213  1.0000
  C   C258      1.0  0.13912  0.26464  0.70656  1.0000
  C   C259      1.0  0.99780  0.20978  0.79461  1.0000
  S   S90       1.0  0.22465  0.34595  0.77294  1.0000
  N   N23       1.0  0.22174  0.34784  0.85363  1.0000
  C   C260      1.0  0.22318  0.34123  0.83590  1.0000
  H   H256      1.0  0.14710  0.34547  0.66742  1.0000
  H   H257      1.0  0.09412  0.29566  0.67616  1.0000
  N   N24       1.0  0.01625  0.19952  0.79495  1.0000
  C   C261      1.0  0.23057  0.20030  0.96546  1.0000
  H   H258      1.0  0.15780  0.42990  0.74610  1.0000
  C   C262      1.0  0.00058  0.25863  0.85320  1.0000
  C   C263      1.0  0.99365  0.21128  0.88689  1.0000
  H   H259      1.0  0.99373  0.22472  0.79619  1.0000
  S   S91       1.0  0.99787  0.24398  0.82308  1.0000
  H   H260      1.0  0.20980  0.47818  0.71457  1.0000
  C   C264      1.0  0.15360  0.46658  0.72958  1.0000
  H   H261      1.0  0.98836  0.18910  0.74223  1.0000
  S   S92       1.0  0.15056  0.31403  0.64914  1.0000
  Fe  Fe47      1.0  0.20518  0.24431  0.97836  1.0000
  H   H262      1.0  0.98854  0.13164  0.69938  1.0000
  N   N25       1.0  0.15915  0.98303  0.75441  1.0000
  H   H263      1.0  0.14829  0.55767  0.29820  1.0000
  H   H264      1.0  0.17813  0.58832  0.16075  1.0000
  C   C265      1.0  0.18543  0.72760  0.12809  1.0000
  C   C266      1.0  0.16294  0.63946  0.18060  1.0000
  C   C267      1.0  0.14137  0.61370  0.18001  1.0000
  Fe  Fe48      1.0  0.20272  0.65670  0.08409  1.0000
  C   C268      1.0  0.22882  0.55330  0.28677  1.0000
  S   S93       1.0  0.16334  0.62976  0.00518  1.0000
  C   C269      1.0  0.19869  0.73931  0.11824  1.0000
  C   C270      1.0  0.19294  0.70006  0.98550  1.0000
  H   H265      1.0  0.21121  0.75145  0.16770  1.0000
  S   S94       1.0  0.20263  0.66405  0.05206  1.0000
  N   N26       1.0  0.15905  0.61390  0.16781  1.0000
  Fe  Fe49      1.0  0.18640  0.66838  0.12336  1.0000
  S   S95       1.0  0.18436  0.64349  0.11183  1.0000
  S   S96       1.0  0.16379  0.68579  0.14304  1.0000
  C   C271      1.0  0.99848  0.63716  0.21610  1.0000
  C   C272      1.0  0.16529  0.68576  0.99109  1.0000
  H   H266      1.0  0.12497  0.80948  0.29727  1.0000
  Fe  Fe50      1.0  0.04784  0.64420  0.24867  1.0000
  S   S97       1.0  0.05117  0.67278  0.22899  1.0000
  S   S98       1.0  0.01789  0.63894  0.26266  1.0000
  Fe  Fe51      1.0  0.09103  0.63049  0.24706  1.0000
  S   S99       1.0  0.09768  0.65827  0.22798  1.0000
  S   S100      1.0  0.11789  0.60795  0.25097  1.0000
  Fe  Fe52      1.0  0.07176  0.67257  0.24713  1.0000
  S   S101      1.0  0.06987  0.69973  0.25710  1.0000
  Fe  Fe53      1.0  0.07679  0.65564  0.21178  1.0000
  S   S102      1.0  0.08524  0.65749  0.17958  1.0000
  S   S103      1.0  0.06695  0.64501  0.26802  1.0000
  S   S104      1.0  0.07152  0.62690  0.22978  1.0000
  C   C273      1.0  0.14174  0.60767  0.30964  1.0000
  C   C274      1.0  0.08207  0.69718  0.27566  1.0000
  C   C275      1.0  0.09197  0.67912  0.28406  1.0000
  C   C276      1.0  0.13520  0.56783  0.29580  1.0000
  C   C277      1.0  0.14163  0.67843  0.15239  1.0000
  C   C278      1.0  0.12923  0.68528  0.16842  1.0000
  C   C279      1.0  0.11182  0.67899  0.17674  1.0000
  C   C280      1.0  0.10661  0.66608  0.16886  1.0000
  C   C281      1.0  0.11879  0.65959  0.15253  1.0000
  C   C282      1.0  0.13639  0.66560  0.14441  1.0000
  H   H267      1.0  0.13315  0.69531  0.17456  1.0000
  H   H268      1.0  0.10228  0.68437  0.18908  1.0000
  H   H269      1.0  0.11471  0.64971  0.14632  1.0000
  H   H270      1.0  0.14575  0.66047  0.13189  1.0000
  N   N27       1.0  0.16262  0.60748  0.27826  1.0000
  H   H271      1.0  0.21020  0.77202  0.14807  1.0000
  H   H272      1.0  0.17360  0.63994  0.06533  1.0000
  H   H273      1.0  0.14711  0.67360  0.03835  1.0000
  H   H274      1.0  0.19800  0.70627  0.01083  1.0000
  H   H275      1.0  0.03560  0.74685  0.30026  1.0000
  C   C283      1.0  0.15359  0.49411  0.30997  1.0000
  H   H276      1.0  0.20545  0.73918  0.10317  1.0000
  C   C284      1.0  0.11001  0.80906  0.30406  1.0000
  H   H277      1.0  0.00260  0.69104  0.25052  1.0000
  N   N28       1.0  0.19574  0.75028  0.14740  1.0000
  H   H278      1.0  0.08801  0.72442  0.30408  1.0000
  H   H279      1.0  0.17673  0.73821  0.17249  1.0000
  C   C285      1.0  0.09972  0.79965  0.29716  1.0000
  C   C286      1.0  0.01068  0.63752  0.22795  1.0000
  C   C287      1.0  0.00294  0.63983  0.24704  1.0000
  H   H280      1.0  0.09270  0.66647  0.27867  1.0000
  H   H281      1.0  0.16974  0.69426  0.03264  1.0000
  H   H282      1.0  0.02611  0.63564  0.22242  1.0000
  N   N29       1.0  0.16136  0.68637  0.01033  1.0000
  C   C288      1.0  0.17644  0.63605  0.01892  1.0000
  C   C289      1.0  0.17019  0.63372  0.03913  1.0000
  C   C290      1.0  0.17900  0.64105  0.04990  1.0000
  C   C291      1.0  0.19404  0.65076  0.04040  1.0000
  C   C292      1.0  0.20081  0.65227  0.02039  1.0000
  C   C293      1.0  0.19201  0.64502  0.00970  1.0000
  H   H283      1.0  0.07334  0.72749  0.27634  1.0000
  H   H284      1.0  0.08827  0.60483  0.28640  1.0000
  H   H285      1.0  0.21234  0.65988  0.01293  1.0000
  H   H286      1.0  0.19666  0.64732  0.99418  1.0000
  C   C294      1.0  0.08939  0.71180  0.29848  1.0000
  H   H287      1.0  0.16997  0.58950  0.30439  1.0000
  H   H288      1.0  0.18157  0.71850  0.12068  1.0000
  C   C295      1.0  0.14457  0.67936  0.02335  1.0000
  H   H289      1.0  0.03195  0.73727  0.28163  1.0000
  H   H290      1.0  0.18319  0.58319  0.26979  1.0000
  N   N30       1.0  0.03664  0.71643  0.30732  1.0000
  C   C296      1.0  0.20369  0.75067  0.12817  1.0000
  C   C297      1.0  0.11918  0.56972  0.31102  1.0000
  C   C298      1.0  0.13433  0.57914  0.27726  1.0000
  H   H291      1.0  0.14684  0.57764  0.26558  1.0000
  H   H292      1.0  0.17125  0.64988  0.18024  1.0000
  C   C299      1.0  0.16990  0.62640  0.16814  1.0000
  C   C300      1.0  0.13405  0.62642  0.19280  1.0000
  H   H293      1.0  0.10655  0.79291  0.28479  1.0000
  C   C301      1.0  0.03626  0.70095  0.30028  1.0000
  H   H294      1.0  0.17376  0.60747  0.14027  1.0000
  C   C302      1.0  0.08098  0.71351  0.28279  1.0000
  S   S105      1.0  0.21772  0.59940  0.13941  1.0000
  S   S106      1.0  0.20204  0.68293  0.09500  1.0000
  H   H295      1.0  0.15550  0.59388  0.15278  1.0000
  H   H296      1.0  0.11986  0.62649  0.20219  1.0000
  H   H297      1.0  0.13909  0.64974  0.20243  1.0000
  H   H298      1.0  0.99209  0.59192  0.22690  1.0000
  C   C303      1.0  0.15925  0.60071  0.29787  1.0000
  H   H299      1.0  0.18398  0.62644  0.15859  1.0000
  C   C304      1.0  0.11753  0.59267  0.27388  1.0000
  H   H300      1.0  0.12071  0.63983  0.27446  1.0000
  C   C305      1.0  0.02886  0.73606  0.29759  1.0000
  H   H301      1.0  0.13270  0.60382  0.17984  1.0000
  H   H302      1.0  0.14176  0.66718  0.01869  1.0000
  C   C306      1.0  0.16690  0.60017  0.15483  1.0000
  C   C307      1.0  0.14490  0.63941  0.19301  1.0000
  H   H303      1.0  0.00456  0.63507  0.20142  1.0000
  H   H304      1.0  0.16712  0.71821  0.15545  1.0000
  S   S107      1.0  0.23080  0.64037  0.09247  1.0000
  C   C308      1.0  0.10133  0.59446  0.28897  1.0000
  C   C309      1.0  0.18279  0.73878  0.15717  1.0000
  H   H305      1.0  0.23682  0.84367  0.25647  1.0000
  H   H306      1.0  0.98889  0.59938  0.28405  1.0000
  C   C310      1.0  0.14917  0.62169  0.26992  1.0000
  Fe  Fe54      1.0  0.21266  0.62957  0.12122  1.0000
  C   C311      1.0  0.17735  0.72738  0.14765  1.0000
  C   C312      1.0  0.17264  0.69407  0.01733  1.0000
  H   H307      1.0  0.03074  0.70315  0.28728  1.0000
  H   H308      1.0  0.04412  0.66995  0.30310  1.0000
  H   H309      1.0  0.22789  0.71422  0.14999  1.0000
  H   H310      1.0  0.13160  0.69125  0.02349  1.0000
  S   S108      1.0  0.21347  0.65370  0.13442  1.0000
  H   H311      1.0  0.18899  0.76953  0.16677  1.0000
  C   C313      1.0  0.20174  0.76142  0.15801  1.0000
  H   H312      1.0  0.19309  0.60338  0.26947  1.0000
  S   S109      1.0  0.20987  0.56872  0.29904  1.0000
  H   H313      1.0  0.21453  0.75920  0.12059  1.0000
  C   C314      1.0  0.13161  0.62915  0.28127  1.0000
  H   H314      1.0  0.18089  0.60416  0.25060  1.0000
  H   H315      1.0  0.22980  0.71625  0.06493  1.0000
  C   C315      1.0  0.18868  0.70087  0.00507  1.0000
  C   C316      1.0  0.10072  0.67748  0.29961  1.0000
  H   H316      1.0  0.22055  0.52717  0.30489  1.0000
  C   C317      1.0  0.18082  0.59926  0.26634  1.0000
  H   H317      1.0  0.22609  0.68753  0.05548  1.0000
  H   H318      1.0  0.15811  0.62680  0.04636  1.0000
  C   C318      1.0  0.12782  0.62192  0.30122  1.0000
  H   H319      1.0  0.15156  0.62682  0.25433  1.0000
  H   H320      1.0  0.01300  0.73977  0.30306  1.0000
  C   C319      1.0  0.23102  0.53324  0.29305  1.0000
  C   C320      1.0  0.10211  0.58285  0.30753  1.0000
  C   C321      1.0  0.09933  0.69383  0.30692  1.0000
  C   C322      1.0  0.04385  0.68210  0.30918  1.0000
  C   C323      1.0  0.99298  0.68609  0.22707  1.0000
  H   H321      1.0  0.15641  0.67953  0.98560  1.0000
  H   H322      1.0  0.00745  0.68074  0.21946  1.0000
  H   H323      1.0  0.00752  0.59763  0.25074  1.0000
  H   H324      1.0  0.22549  0.83317  0.29180  1.0000
  C   C324      1.0  0.99291  0.59508  0.25508  1.0000
  H   H325      1.0  0.07272  0.79095  0.30152  1.0000
  Fe  Fe55      1.0  0.22899  0.66587  0.10485  1.0000
  H   H326      1.0  0.16723  0.49867  0.30368  1.0000
  H   H327      1.0  0.11397  0.62703  0.31008  1.0000
  C   C325      1.0  0.99026  0.69193  0.24449  1.0000
  H   H328      1.0  0.10834  0.66356  0.30614  1.0000
  H   H329      1.0  0.22945  0.68912  0.13201  1.0000
  C   C326      1.0  0.08079  0.79846  0.30660  1.0000
  H   H330      1.0  0.23374  0.56724  0.16724  1.0000
  H   H331      1.0  0.18668  0.73422  0.39303  1.0000
  Fe  Fe56      1.0  0.20550  0.66928  0.57676  1.0000
  C   C327      1.0  0.16173  0.62461  0.49575  1.0000
  S   S110      1.0  0.19489  0.67850  0.54864  1.0000
  H   H332      1.0  0.22736  0.94254  0.42062  1.0000
  H   H333      1.0  0.23524  0.66506  0.46260  1.0000
  C   C328      1.0  0.00351  0.74206  0.36408  1.0000
  H   H334      1.0  0.16065  0.68786  0.63308  1.0000
  C   C329      1.0  0.21632  0.63432  0.51962  1.0000
  Fe  Fe57      1.0  0.17705  0.54229  0.36664  1.0000
  S   S111      1.0  0.16690  0.56616  0.34305  1.0000
  S   S112      1.0  0.17935  0.54886  0.39446  1.0000
  H   H335      1.0  0.11189  0.51528  0.35204  1.0000
  C   C330      1.0  0.13840  0.50554  0.32072  1.0000
  Fe  Fe58      1.0  0.15088  0.54560  0.33936  1.0000
  S   S113      1.0  0.12048  0.55602  0.33447  1.0000
  S   S114      1.0  0.15853  0.52268  0.36498  1.0000
  Fe  Fe59      1.0  0.18559  0.87407  0.38091  1.0000
  S   S115      1.0  0.21566  0.85779  0.37110  1.0000
  S   S116      1.0  0.17827  0.89896  0.39652  1.0000
  Fe  Fe60      1.0  0.16654  0.84723  0.36862  1.0000
  S   S117      1.0  0.19513  0.82941  0.35739  1.0000
  S   S118      1.0  0.13803  0.83891  0.37151  1.0000
  Fe  Fe61      1.0  0.20335  0.83108  0.38427  1.0000
  S   S119      1.0  0.21402  0.80294  0.40335  1.0000
  Fe  Fe62      1.0  0.20589  0.64245  0.61633  1.0000
  S   S120      1.0  0.17420  0.84719  0.39640  1.0000
  S   S121      1.0  0.17506  0.87578  0.35409  1.0000
  Fe  Fe63      1.0  0.16600  0.65783  0.44151  1.0000
  S   S122      1.0  0.18139  0.66805  0.41120  1.0000
  S   S123      1.0  0.13436  0.65957  0.45315  1.0000
  Fe  Fe64      1.0  0.20287  0.64204  0.45695  1.0000
  C   C331      1.0  0.05165  0.67916  0.32548  1.0000
  S   S124      1.0  0.21502  0.62865  0.48416  1.0000
  Fe  Fe65      1.0  0.20005  0.67786  0.42519  1.0000
  C   C332      1.0  0.22070  0.71040  0.43206  1.0000
  Fe  Fe66      1.0  0.20141  0.63901  0.41612  1.0000
  S   S125      1.0  0.20909  0.62419  0.39067  1.0000
  S   S126      1.0  0.18226  0.67063  0.45505  1.0000
  S   S127      1.0  0.18494  0.62827  0.44579  1.0000
  Fe  Fe67      1.0  0.11045  0.75586  0.34271  1.0000
  S   S128      1.0  0.08134  0.76487  0.36121  1.0000
  H   H336      1.0  0.04399  0.72590  0.32923  1.0000
  C   C333      1.0  0.22804  0.82586  0.44957  1.0000
  S   S129      1.0  0.07156  0.72466  0.35708  1.0000
  H   H337      1.0  0.21172  0.96597  0.41867  1.0000
  Fe  Fe68      1.0  0.06948  0.75523  0.34063  1.0000
  Fe  Fe69      1.0  0.08596  0.73347  0.37601  1.0000
  S   S130      1.0  0.07657  0.72420  0.40812  1.0000
  C   C334      1.0  0.12089  0.65227  0.40896  1.0000
  S   S131      1.0  0.11583  0.72498  0.35895  1.0000
  C   C335      1.0  0.11900  0.67855  0.44075  1.0000
  C   C336      1.0  0.09912  0.68116  0.44814  1.0000
  C   C337      1.0  0.08632  0.69549  0.43815  1.0000
  C   C338      1.0  0.09328  0.70707  0.42051  1.0000
  C   C339      1.0  0.11321  0.70459  0.41308  1.0000
  C   C340      1.0  0.12610  0.69040  0.42329  1.0000
  H   H338      1.0  0.09355  0.67205  0.46162  1.0000
  H   H339      1.0  0.07094  0.69743  0.44398  1.0000
  H   H340      1.0  0.11868  0.71370  0.39963  1.0000
  H   H341      1.0  0.14143  0.68850  0.41752  1.0000
  C   C341      1.0  0.13752  0.82003  0.36091  1.0000
  C   C342      1.0  0.15299  0.81328  0.34684  1.0000
  C   C343      1.0  0.15209  0.79833  0.33851  1.0000
  C   C344      1.0  0.13589  0.78980  0.34441  1.0000
  C   C345      1.0  0.12055  0.79626  0.35877  1.0000
  C   C346      1.0  0.12127  0.81151  0.36681  1.0000
  H   H342      1.0  0.16547  0.81986  0.34207  1.0000
  H   H343      1.0  0.22315  0.61915  0.52257  1.0000
  H   H344      1.0  0.10807  0.78968  0.36349  1.0000
  H   H345      1.0  0.10931  0.81661  0.37780  1.0000
  N   N31       1.0  0.08274  0.81553  0.32983  1.0000
  C   C347      1.0  0.11475  0.67337  0.37881  1.0000
  H   H346      1.0  0.08963  0.58431  0.31924  1.0000
  C   C348      1.0  0.16462  0.64580  0.53605  1.0000
  C   C349      1.0  0.21227  0.70512  0.45160  1.0000
  S   S132      1.0  0.18426  0.66814  0.60512  1.0000
  S   S133      1.0  0.22588  0.64203  0.58714  1.0000
  H   H347      1.0  0.21366  0.77020  0.38780  1.0000
  H   H348      1.0  0.19943  0.69928  0.45571  1.0000
  H   H349      1.0  0.23660  0.67822  0.53419  1.0000
  H   H350      1.0  0.15277  0.61645  0.40889  1.0000
  H   H351      1.0  0.22233  0.98115  0.44727  1.0000
  H   H352      1.0  0.14076  0.68580  0.50944  1.0000
  H   H353      1.0  0.21486  0.95143  0.44223  1.0000
  H   H354      1.0  0.19441  0.86324  0.41852  1.0000
  H   H355      1.0  0.21449  0.74470  0.39274  1.0000
  H   H356      1.0  0.14437  0.66217  0.48924  1.0000
  H   H357      1.0  0.22561  0.86946  0.41940  1.0000
  S   S134      1.0  0.22137  0.65989  0.62586  1.0000
  C   C350      1.0  0.18665  0.57039  0.39329  1.0000
  C   C351      1.0  0.18702  0.57537  0.41049  1.0000
  C   C352      1.0  0.19351  0.59204  0.40993  1.0000
  C   C353      1.0  0.19984  0.60375  0.39212  1.0000
  C   C354      1.0  0.19921  0.59893  0.37493  1.0000
  C   C355      1.0  0.19257  0.58236  0.37549  1.0000
  H   H358      1.0  0.18252  0.56614  0.42430  1.0000
  H   H359      1.0  0.19409  0.59551  0.42326  1.0000
  H   H360      1.0  0.20394  0.60803  0.36112  1.0000
  H   H361      1.0  0.19232  0.57869  0.36216  1.0000
  C   C356      1.0  0.15007  0.65744  0.50242  1.0000
  C   C357      1.0  0.10824  0.66619  0.39845  1.0000
  C   C358      1.0  0.98995  0.76034  0.33625  1.0000
  Fe  Fe70      1.0  0.10099  0.71908  0.33843  1.0000
  S   S135      1.0  0.13486  0.77203  0.33263  1.0000
  C   C359      1.0  0.22229  0.95573  0.42694  1.0000
  H   H362      1.0  0.00226  0.73216  0.37801  1.0000
  H   H363      1.0  0.15459  0.63100  0.48316  1.0000
  H   H364      1.0  0.09393  0.50439  0.34882  1.0000
  C   C360      1.0  0.05154  0.69500  0.33284  1.0000
  S   S136      1.0  0.22159  0.64973  0.42755  1.0000
  C   C361      1.0  0.02204  0.76249  0.33826  1.0000
  C   C362      1.0  0.07407  0.82282  0.34773  1.0000
  C   C363      1.0  0.14608  0.65275  0.38088  1.0000
  H   H365      1.0  0.13879  0.60168  0.32509  1.0000
  H   H366      1.0  0.11576  0.64690  0.42429  1.0000
  H   H367      1.0  0.17733  0.61926  0.49014  1.0000
  C   C364      1.0  0.19252  0.91670  0.39006  1.0000
  C   C365      1.0  0.21158  0.91325  0.37969  1.0000
  C   C366      1.0  0.22291  0.92721  0.37582  1.0000
  C   C367      1.0  0.21517  0.94489  0.38187  1.0000
  C   C368      1.0  0.19602  0.94849  0.39195  1.0000
  C   C369      1.0  0.18483  0.93434  0.39623  1.0000
  H   H368      1.0  0.21767  0.89975  0.37486  1.0000
  H   H369      1.0  0.20601  0.71623  0.53535  1.0000
  H   H370      1.0  0.18986  0.96205  0.39667  1.0000
  H   H371      1.0  0.17009  0.93710  0.40426  1.0000
  H   H372      1.0  0.03176  0.74556  0.36414  1.0000
  C   C370      1.0  0.20278  0.66467  0.53053  1.0000
  C   C371      1.0  0.21220  0.64522  0.53408  1.0000
  H   H373      1.0  0.21572  0.63842  0.54813  1.0000
  C   C372      1.0  0.21118  0.64286  0.50159  1.0000
  C   C373      1.0  0.20259  0.66249  0.49791  1.0000
  C   C374      1.0  0.19829  0.67329  0.51232  1.0000
  H   H374      1.0  0.23336  0.82222  0.32340  1.0000
  N   N32       1.0  0.23651  0.70817  0.53031  1.0000
  H   H375      1.0  0.19917  0.66947  0.48401  1.0000
  H   H376      1.0  0.19103  0.68833  0.50946  1.0000
  H   H377      1.0  0.05781  0.69291  0.34534  1.0000
  C   C375      1.0  0.15517  0.66495  0.53078  1.0000
  C   C376      1.0  0.14787  0.67087  0.51384  1.0000
  H   H378      1.0  0.21700  0.70419  0.51528  1.0000
  C   C377      1.0  0.07253  0.80634  0.32314  1.0000
  C   C378      1.0  0.20381  0.85261  0.42724  1.0000
  H   H379      1.0  0.08247  0.83245  0.34994  1.0000
  Fe  Fe71      1.0  0.19178  0.55121  0.32336  1.0000
  S   S137      1.0  0.18945  0.71035  0.62826  1.0000
  S   S138      1.0  0.17503  0.53262  0.31757  1.0000
  C   C379      1.0  0.15541  0.69757  0.64299  1.0000
  S   S139      1.0  0.20322  0.52859  0.34715  1.0000
  H   H380      1.0  0.10510  0.68420  0.37049  1.0000
  S   S140      1.0  0.22051  0.68928  0.58328  1.0000
  C   C380      1.0  0.21053  0.82188  0.44911  1.0000
  N   N33       1.0  0.13959  0.64590  0.40019  1.0000
  N   N34       1.0  0.18609  0.76269  0.39595  1.0000
  C   C381      1.0  0.17805  0.74857  0.39398  1.0000
  C   C382      1.0  0.17507  0.78070  0.39735  1.0000
  C   C383      1.0  0.15853  0.75241  0.39312  1.0000
  C   C384      1.0  0.15550  0.78500  0.39669  1.0000
  C   C385      1.0  0.14722  0.77074  0.39453  1.0000
  C   C386      1.0  0.20643  0.75847  0.39729  1.0000
  H   H381      1.0  0.17084  0.64124  0.54890  1.0000
  H   H382      1.0  0.18139  0.79190  0.39898  1.0000
  H   H383      1.0  0.15222  0.74124  0.39137  1.0000
  H   H384      1.0  0.14686  0.79936  0.39771  1.0000
  H   H385      1.0  0.13206  0.77389  0.39392  1.0000
  C   C387      1.0  0.19841  0.83532  0.43777  1.0000
  H   H386      1.0  0.14799  0.63087  0.42702  1.0000
  H   H387      1.0  0.15406  0.67528  0.53957  1.0000
  H   H388      1.0  0.05914  0.83125  0.34731  1.0000
  H   H389      1.0  0.15523  0.61214  0.50448  1.0000
  C   C388      1.0  0.04378  0.71364  0.32360  1.0000
  H   H390      1.0  0.18497  0.83226  0.43696  1.0000
  C   C389      1.0  0.21855  0.71471  0.52305  1.0000
  S   S141      1.0  0.04345  0.77131  0.32764  1.0000
  H   H391      1.0  0.16087  0.64752  0.37392  1.0000
  H   H392      1.0  0.23321  0.61037  0.63812  1.0000
  C   C390      1.0  0.22151  0.85604  0.42784  1.0000
  S   S142      1.0  0.21987  0.86467  0.31401  1.0000
  Fe  Fe72      1.0  0.20115  0.68557  0.61266  1.0000
  H   H393      1.0  0.22987  0.55161  0.37542  1.0000
  Fe  Fe73      1.0  0.20451  0.85778  0.34513  1.0000
  H   H394      1.0  0.20664  0.80823  0.45704  1.0000
  H   H395      1.0  0.17479  0.61812  0.52797  1.0000
  H   H396      1.0  0.09359  0.67166  0.40559  1.0000
  C   C391      1.0  0.10618  0.51159  0.34103  1.0000
  S   S143      1.0  0.21187  0.70521  0.41419  1.0000
  H   H397      1.0  0.16747  0.63353  0.40663  1.0000
  H   H398      1.0  0.20752  0.75726  0.41248  1.0000
  H   H399      1.0  0.03997  0.79181  0.63219  1.0000
  C   C392      1.0  0.13376  0.66662  0.36991  1.0000
  H   H400      1.0  0.05803  0.80471  0.33078  1.0000
  H   H401      1.0  0.22804  0.71384  0.63390  1.0000
  C   C393      1.0  0.15253  0.63093  0.41125  1.0000
  H   H402      1.0  0.05802  0.66467  0.33224  1.0000
  C   C394      1.0  0.02030  0.74958  0.35617  1.0000
  H   H403      1.0  0.22955  0.77452  0.43306  1.0000
  S   S144      1.0  0.10951  0.69160  0.32696  1.0000
  N   N35       1.0  0.15941  0.63868  0.50770  1.0000
  H   H404      1.0  0.10954  0.82396  0.32591  1.0000
  C   C395      1.0  0.16681  0.63282  0.52416  1.0000
  H   H405      1.0  0.13885  0.67216  0.35459  1.0000
  S   S145      1.0  0.09827  0.74921  0.32051  1.0000
  Fe  Fe74      1.0  0.18394  0.51105  0.34329  1.0000
  C   C396      1.0  0.00673  0.76802  0.32841  1.0000
  S   S146      1.0  0.23033  0.96148  0.37764  1.0000
  C   C397      1.0  0.16643  0.71047  0.64319  1.0000
  C   C398      1.0  0.10122  0.81706  0.32044  1.0000
  C   C399      1.0  0.23481  0.80040  0.41209  1.0000
  H   H406      1.0  0.21843  0.72871  0.51247  1.0000
  H   H407      1.0  0.21388  0.70304  0.48106  1.0000
  H   H408      1.0  0.19971  0.73978  0.64118  1.0000
  C   C400      1.0  0.22033  0.70753  0.46598  1.0000
  H   H409      1.0  0.07359  0.81047  0.36037  1.0000
  N   N36       1.0  0.12158  0.49935  0.32958  1.0000
  H   H410      1.0  0.02903  0.75119  0.64393  1.0000
  S   S147      1.0  0.19235  0.61868  0.63732  1.0000
  H   H411      1.0  0.16397  0.79343  0.32735  1.0000
  N   N37       1.0  0.23349  0.84260  0.43871  1.0000
  C   C401      1.0  0.98831  0.74733  0.35414  1.0000
  H   H412      1.0  0.23223  0.58119  0.34957  1.0000
  C   C402      1.0  0.23674  0.71912  0.42692  1.0000
  C   C403      1.0  0.23670  0.55038  0.36055  1.0000
  H   H413      1.0  0.10064  0.52536  0.33143  1.0000
  H   H414      1.0  0.14015  0.51929  0.32223  1.0000
  C   C404      1.0  0.23595  0.97759  0.43734  1.0000
  H   H415      1.0  0.00791  0.77810  0.31460  1.0000
  C   C405      1.0  0.23695  0.71518  0.46097  1.0000
  H   H416      1.0  0.18903  0.64778  0.65825  1.0000
  H   H417      1.0  0.16503  0.62324  0.67559  1.0000
  Fe  Fe75      1.0  0.19331  0.87277  0.75479  1.0000
  S   S148      1.0  0.19241  0.84455  0.77609  1.0000
  S   S149      1.0  0.18419  0.89918  0.76834  1.0000
  H   H418      1.0  0.12446  0.83774  0.72064  1.0000
  S   S150      1.0  0.21170  0.82254  0.73974  1.0000
  Fe  Fe76      1.0  0.18182  0.83534  0.75427  1.0000
  S   S151      1.0  0.15591  0.82125  0.76258  1.0000
  C   C406      1.0  0.15941  0.49716  0.73097  1.0000
  H   H419      1.0  0.03594  0.79331  0.65736  1.0000
  S   S152      1.0  0.17980  0.86466  0.73447  1.0000
  C   C407      1.0  0.14970  0.85026  0.70924  1.0000
  H   H420      1.0  0.20904  0.90829  0.73071  1.0000
  S   S153      1.0  0.20133  0.63801  0.91928  1.0000
  S   S154      1.0  0.20885  0.62804  0.96343  1.0000
  C   C408      1.0  0.19772  0.58775  0.66726  1.0000
  H   H421      1.0  0.00656  0.80107  0.69596  1.0000
  C   C409      1.0  0.13085  0.70931  0.66912  1.0000
  N   N38       1.0  0.02416  0.59070  0.80279  1.0000
  H   H422      1.0  0.17798  0.75116  0.67790  1.0000
  Fe  Fe77      1.0  0.07191  0.76545  0.71182  1.0000
  S   S155      1.0  0.07262  0.73400  0.72329  1.0000
  S   S156      1.0  0.04455  0.78485  0.70343  1.0000
  Fe  Fe78      1.0  0.11364  0.76136  0.71586  1.0000
  S   S157      1.0  0.11707  0.72926  0.72782  1.0000
  S   S158      1.0  0.14030  0.77454  0.70799  1.0000
  Fe  Fe79      1.0  0.10209  0.72952  0.70463  1.0000
  C   C410      1.0  0.15938  0.72312  0.65609  1.0000
  Fe  Fe80      1.0  0.08710  0.73706  0.74539  1.0000
  S   S159      1.0  0.07329  0.72408  0.77560  1.0000
  S   S160      1.0  0.10056  0.76096  0.69125  1.0000
  S   S161      1.0  0.08458  0.76920  0.73525  1.0000
  H   H423      1.0  0.99337  0.63117  0.83302  1.0000
  H   H424      1.0  0.21054  0.82405  0.81463  1.0000
  H   H425      1.0  0.20176  0.56311  0.69076  1.0000
  Fe  Fe81      1.0  0.18619  0.53379  0.74324  1.0000
  S   S162      1.0  0.20563  0.55425  0.73886  1.0000
  S   S163      1.0  0.15424  0.54533  0.74662  1.0000
  C   C411      1.0  0.23286  0.83461  0.66091  1.0000
  C   C412      1.0  0.22468  0.57925  0.87617  1.0000
  H   H426      1.0  0.14869  0.93873  0.76278  1.0000
  S   S164      1.0  0.20445  0.51879  0.71937  1.0000
  C   C413      1.0  0.21366  0.80518  0.68303  1.0000
  Fe  Fe82      1.0  0.08943  0.60265  0.87216  1.0000
  S   S165      1.0  0.11568  0.59649  0.84928  1.0000
  S   S166      1.0  0.09277  0.60249  0.90213  1.0000
  Fe  Fe83      1.0  0.06217  0.60995  0.84447  1.0000
  S   S167      1.0  0.08656  0.60472  0.81913  1.0000
  S   S168      1.0  0.03188  0.62167  0.83887  1.0000
  Fe  Fe84      1.0  0.09921  0.57960  0.84037  1.0000
  S   S169      1.0  0.11549  0.55055  0.83376  1.0000
  Fe  Fe85      1.0  0.10093  0.62201  0.83009  1.0000
  S   S170      1.0  0.11956  0.64222  0.81048  1.0000
  S   S171      1.0  0.07374  0.58339  0.86517  1.0000
  S   S172      1.0  0.07565  0.62958  0.85362  1.0000
  C   C414      1.0  0.14237  0.54612  0.77074  1.0000
  C   C415      1.0  0.12773  0.56206  0.77484  1.0000
  C   C416      1.0  0.11914  0.56350  0.79415  1.0000
  C   C417      1.0  0.12484  0.54877  0.80938  1.0000
  C   C418      1.0  0.13886  0.53245  0.80522  1.0000
  C   C419      1.0  0.14777  0.53123  0.78597  1.0000
  H   H427      1.0  0.12338  0.57354  0.76311  1.0000
  H   H428      1.0  0.10818  0.57600  0.79720  1.0000
  H   H429      1.0  0.14309  0.52087  0.81694  1.0000
  H   H430      1.0  0.15859  0.51862  0.78298  1.0000
  C   C420      1.0  0.08619  0.70125  0.78501  1.0000
  C   C421      1.0  0.10607  0.69580  0.77819  1.0000
  C   C422      1.0  0.11623  0.67759  0.78605  1.0000
  C   C423      1.0  0.10647  0.66467  0.80048  1.0000
  C   C424      1.0  0.08656  0.67004  0.80721  1.0000
  C   C425      1.0  0.07648  0.68841  0.79963  1.0000
  H   H431      1.0  0.11368  0.70577  0.76716  1.0000
  H   H432      1.0  0.13165  0.67353  0.78093  1.0000
  H   H433      1.0  0.07892  0.66011  0.81826  1.0000
  H   H434      1.0  0.06110  0.69260  0.80495  1.0000
  C   C426      1.0  0.19045  0.75816  0.67045  1.0000
  H   H435      1.0  0.16774  0.73319  0.65629  1.0000
  H   H436      1.0  0.17621  0.85995  0.69455  1.0000
  H   H437      1.0  0.17169  0.58198  0.91329  1.0000
  C   C427      1.0  0.14188  0.82780  0.69491  1.0000
  C   C428      1.0  0.17051  0.83993  0.68065  1.0000
  C   C429      1.0  0.14166  0.72246  0.66915  1.0000
  C   C430      1.0  0.21572  0.93567  0.72949  1.0000
  C   C431      1.0  0.01690  0.60958  0.79514  1.0000
  C   C432      1.0  0.04254  0.74951  0.64832  1.0000
  C   C433      1.0  0.21944  0.85954  0.84070  1.0000
  C   C434      1.0  0.99970  0.75499  0.74143  1.0000
  Fe  Fe86      1.0  0.21887  0.49890  0.74301  1.0000
  N   N39       1.0  0.20791  0.74350  0.66576  1.0000
  C   C435      1.0  0.17502  0.68039  0.68740  1.0000
  H   H438      1.0  0.14735  0.68492  0.70698  1.0000
  H   H439      1.0  0.13662  0.73183  0.67949  1.0000
  C   C436      1.0  0.21253  0.82131  0.69058  1.0000
  C   C437      1.0  0.12785  0.62257  0.92355  1.0000
  C   C438      1.0  0.11423  0.61291  0.92196  1.0000
  C   C439      1.0  0.11157  0.61257  0.90370  1.0000
  C   C440      1.0  0.12312  0.62134  0.88701  1.0000
  C   C441      1.0  0.13670  0.63099  0.88859  1.0000
  H   H440      1.0  0.12926  0.62339  0.93770  1.0000
  H   H441      1.0  0.10533  0.60613  0.93493  1.0000
  H   H442      1.0  0.12114  0.62127  0.87287  1.0000
  C   C442      1.0  0.16310  0.48912  0.74950  1.0000
  C   C443      1.0  0.15254  0.80675  0.74825  1.0000
  C   C444      1.0  0.16680  0.80144  0.73253  1.0000
  C   C445      1.0  0.16318  0.79076  0.72082  1.0000
  C   C446      1.0  0.14526  0.78545  0.72463  1.0000
  C   C447      1.0  0.13117  0.79038  0.74059  1.0000
  C   C448      1.0  0.13484  0.80094  0.75237  1.0000
  H   H443      1.0  0.18052  0.80568  0.72934  1.0000
  H   H444      1.0  0.17415  0.78698  0.70853  1.0000
  H   H445      1.0  0.11731  0.78639  0.74367  1.0000
  H   H446      1.0  0.12378  0.80490  0.76457  1.0000
  C   C449      1.0  0.20652  0.60110  0.65234  1.0000
  C   C450      1.0  0.13875  0.63207  0.90684  1.0000
  H   H447      1.0  0.01608  0.77510  0.74290  1.0000
  H   H448      1.0  0.03702  0.71522  0.76616  1.0000
  C   C451      1.0  0.22502  0.59735  0.86394  1.0000
  H   H449      1.0  0.22337  0.93705  0.71453  1.0000
  C   C452      1.0  0.01448  0.60729  0.84436  1.0000
  C   C453      1.0  0.01844  0.58751  0.85250  1.0000
  C   C454      1.0  0.00466  0.57630  0.85497  1.0000
  C   C455      1.0  0.98763  0.60098  0.79399  1.0000
  Fe  Fe87      1.0  0.17675  0.63197  0.97331  1.0000
  H   H450      1.0  0.03218  0.58081  0.85664  1.0000
  H   H451      1.0  0.00788  0.56094  0.86104  1.0000
  C   C456      1.0  0.02643  0.72646  0.75932  1.0000
  C   C457      1.0  0.01890  0.74730  0.69187  1.0000
  C   C458      1.0  0.03171  0.75474  0.69785  1.0000
  C   C459      1.0  0.02755  0.77426  0.69891  1.0000
  H   H452      1.0  0.22227  0.86982  0.84745  1.0000
  C   C460      1.0  0.22811  0.82892  0.83182  1.0000
  H   H453      1.0  0.02283  0.73251  0.68988  1.0000
  H   H454      1.0  0.04528  0.74561  0.70046  1.0000
  C   C461      1.0  0.22630  0.72047  0.64612  1.0000
  C   C462      1.0  0.20865  0.57344  0.67940  1.0000
  C   C463      1.0  0.13722  0.83879  0.70919  1.0000
  N   N40       1.0  0.99811  0.73606  0.74544  1.0000
  C   C464      1.0  0.07138  0.72864  0.65795  1.0000
  C   C465      1.0  0.20768  0.91934  0.73865  1.0000
  C   C466      1.0  0.19706  0.91784  0.75767  1.0000
  C   C467      1.0  0.22145  0.73781  0.67710  1.0000
  S   S173      1.0  0.10963  0.70705  0.68650  1.0000
  H   H455      1.0  0.14512  0.63827  0.87558  1.0000
  H   H456      1.0  0.01989  0.78345  0.64985  1.0000
  H   H457      1.0  0.15532  0.64150  0.65676  1.0000
  N   N41       1.0  0.15874  0.82790  0.68135  1.0000
  H   H458      1.0  0.18071  0.96971  0.71155  1.0000
  H   H459      1.0  0.23592  0.56685  0.87296  1.0000
  H   H460      1.0  0.04462  0.57308  0.81968  1.0000
  N   N42       1.0  0.09640  0.66572  0.87837  1.0000
  C   C468      1.0  0.09847  0.66830  0.85874  1.0000
  C   C469      1.0  0.10862  0.67176  0.88580  1.0000
  C   C470      1.0  0.11348  0.67646  0.84601  1.0000
  C   C471      1.0  0.12383  0.67993  0.87349  1.0000
  C   C472      1.0  0.12628  0.68224  0.85347  1.0000
  C   C473      1.0  0.08065  0.65697  0.89145  1.0000
  H   H461      1.0  0.08861  0.66391  0.85276  1.0000
  H   H462      1.0  0.10717  0.66956  0.90135  1.0000
  H   H463      1.0  0.11524  0.67813  0.83046  1.0000
  H   H464      1.0  0.13392  0.68396  0.87954  1.0000
  H   H465      1.0  0.13811  0.68838  0.84375  1.0000
  H   H466      1.0  0.07882  0.64473  0.88619  1.0000
  H   H467      1.0  0.08375  0.65068  0.90620  1.0000
  H   H468      1.0  0.06693  0.66791  0.89249  1.0000
  Fe  Fe88      1.0  0.22016  0.53173  0.76074  1.0000
  C   C474      1.0  0.21329  0.95054  0.73931  1.0000
  H   H469      1.0  0.20157  0.96001  0.76635  1.0000
  C   C475      1.0  0.20347  0.94865  0.75866  1.0000
  H   H470      1.0  0.99257  0.63004  0.78499  1.0000
  C   C476      1.0  0.20389  0.86508  0.83128  1.0000
  H   H471      1.0  0.16678  0.49786  0.75740  1.0000
  C   C477      1.0  0.00188  0.75931  0.68687  1.0000
  H   H472      1.0  0.13240  0.81842  0.69537  1.0000
  Fe  Fe89      1.0  0.20547  0.61183  0.94290  1.0000
  S   S174      1.0  0.22355  0.86341  0.73891  1.0000
  C   C478      1.0  0.23028  0.68162  0.94793  1.0000
  H   H473      1.0  0.18795  0.58321  0.92773  1.0000
  H   H474      1.0  0.20624  0.79382  0.69164  1.0000
  S   S175      1.0  0.17380  0.61298  0.95480  1.0000
  C   C479      1.0  0.99851  0.61501  0.79067  1.0000
  S   S176      1.0  0.22644  0.78322  0.65535  1.0000
  H   H475      1.0  0.05433  0.58054  0.79409  1.0000
  H   H476      1.0  0.22626  0.85936  0.77755  1.0000
  C   C480      1.0  0.01136  0.72182  0.75407  1.0000
  H   H477      1.0  0.04987  0.71862  0.65004  1.0000
  Fe  Fe90      1.0  0.20174  0.65461  0.94090  1.0000
  Fe  Fe91      1.0  0.22528  0.53744  0.71725  1.0000
  S   S177      1.0  0.19902  0.51262  0.76702  1.0000
  N   N43       1.0  0.16202  0.65217  0.67806  1.0000
  C   C481      1.0  0.17997  0.65574  0.66914  1.0000
  C   C482      1.0  0.15048  0.66228  0.69172  1.0000
  C   C483      1.0  0.18670  0.66997  0.67356  1.0000
  C   C484      1.0  0.19650  0.61093  0.88531  1.0000
  C   C485      1.0  0.17196  0.96910  0.72610  1.0000
  S   S178      1.0  0.16970  0.65957  0.95167  1.0000
  H   H478      1.0  0.17979  0.69187  0.69054  1.0000
  C   C486      1.0  0.22473  0.80358  0.66455  1.0000
  H   H479      1.0  0.14037  0.63624  0.68050  1.0000
  H   H480      1.0  0.02511  0.62062  0.79296  1.0000
  C   C487      1.0  0.22213  0.83603  0.67955  1.0000
  C   C488      1.0  0.18135  0.59064  0.91491  1.0000
  H   H481      1.0  0.20064  0.67326  0.66586  1.0000
  C   C489      1.0  0.00992  0.78596  0.69513  1.0000
  H   H482      1.0  0.20373  0.82258  0.70469  1.0000
  Fe  Fe92      1.0  0.22211  0.83487  0.75931  1.0000
  C   C490      1.0  0.16421  0.95283  0.73579  1.0000
  H   H483      1.0  0.19482  0.87944  0.83072  1.0000
  C   C491      1.0  0.15685  0.67645  0.69667  1.0000
  S   S179      1.0  0.22572  0.58389  0.93776  1.0000
  H   H484      1.0  0.13602  0.65992  0.69846  1.0000
  H   H485      1.0  0.19234  0.76680  0.68005  1.0000
  C   C492      1.0  0.22851  0.57222  0.67645  1.0000
  S   S180      1.0  0.21673  0.67975  0.93212  1.0000
  C   C493      1.0  0.21086  0.61333  0.86851  1.0000
  C   C494      1.0  0.15524  0.63760  0.67257  1.0000
  Fe  Fe93      1.0  0.21016  0.85224  0.72088  1.0000
  S   S181      1.0  0.22593  0.54218  0.78466  1.0000
  H   H486      1.0  0.16559  0.53910  0.83034  1.0000
  C   C495      1.0  0.21025  0.73512  0.65036  1.0000
  N   N44       1.0  0.16783  0.56114  0.80468  1.0000
  C   C496      1.0  0.15442  0.57508  0.81304  1.0000
  C   C497      1.0  0.17388  0.56404  0.78499  1.0000
  C   C498      1.0  0.14633  0.59225  0.80155  1.0000
  C   C499      1.0  0.16595  0.58096  0.77305  1.0000
  C   C500      1.0  0.15207  0.59514  0.78145  1.0000
  C   C501      1.0  0.17629  0.54330  0.81692  1.0000
  H   H487      1.0  0.14952  0.57270  0.82865  1.0000
  H   H488      1.0  0.18455  0.55299  0.77846  1.0000
  H   H489      1.0  0.13543  0.60313  0.80815  1.0000
  H   H490      1.0  0.17022  0.58280  0.75741  1.0000
  H   H491      1.0  0.14555  0.60827  0.77246  1.0000
  H   H492      1.0  0.18074  0.53106  0.80925  1.0000
  H   H493      1.0  0.18922  0.54535  0.82076  1.0000
  H   H494      1.0  0.14660  0.85822  0.72072  1.0000
  H   H495      1.0  0.01921  0.56192  0.81229  1.0000
  H   H496      1.0  0.18245  0.58831  0.66932  1.0000
  H   H497      1.0  0.18715  0.93118  0.78256  1.0000
  S   S182      1.0  0.15315  0.64743  0.90807  1.0000
  S   S183      1.0  0.99003  0.75199  0.67280  1.0000
  Fe  Fe94      1.0  0.16977  0.64028  0.93210  1.0000
  H   H498      1.0  0.12921  0.68690  0.65579  1.0000
  C   C502      1.0  0.19533  0.93232  0.76780  1.0000
  H   H499      1.0  0.21112  0.62753  0.85924  1.0000
  C   C503      1.0  0.16632  0.85110  0.69470  1.0000
  C   C504      1.0  0.23255  0.66748  0.96469  1.0000
  S   S184      1.0  0.22073  0.85639  0.68869  1.0000
  C   C505      1.0  0.22631  0.60016  0.64964  1.0000
  C   C506      1.0  0.99712  0.77852  0.68909  1.0000
  H   H500      1.0  0.04773  0.59731  0.81021  1.0000
  C   C507      1.0  0.15401  0.95173  0.75491  1.0000
  H   H501      1.0  0.01038  0.70677  0.75691  1.0000
  H   H502      1.0  0.17231  0.60472  0.91786  1.0000
  H   H503      1.0  0.03975  0.74948  0.75930  1.0000
  N   N45       1.0  0.19647  0.59316  0.89739  1.0000
  H   H504      1.0  0.14418  0.96583  0.77912  1.0000
  S   S185      1.0  0.22162  0.97172  0.72644  1.0000
  H   H505      1.0  0.18358  0.84050  0.66953  1.0000
  H   H506      1.0  0.21991  0.74482  0.68897  1.0000
  C   C508      1.0  0.01459  0.76012  0.74646  1.0000
  C   C509      1.0  0.02798  0.74574  0.75551  1.0000
  H   H507      1.0  0.98962  0.76623  0.73399  1.0000
  C   C510      1.0  0.99654  0.61585  0.83925  1.0000
  C   C511      1.0  0.21033  0.57743  0.89305  1.0000
  C   C512      1.0  0.04369  0.58512  0.80680  1.0000
  C   C513      1.0  0.06449  0.76292  0.65709  1.0000
  H   H508      1.0  0.08058  0.71439  0.66093  1.0000
  C   C514      1.0  0.13757  0.69708  0.65584  1.0000
  C   C515      1.0  0.03529  0.78439  0.64739  1.0000
  H   H509      1.0  0.18554  0.62343  0.88872  1.0000
  H   H510      1.0  0.16021  0.51217  0.72449  1.0000
  C   C516      1.0  0.07663  0.74468  0.66045  1.0000
  C   C517      1.0  0.99520  0.58177  0.80169  1.0000
  H   H511      1.0  0.15205  0.49186  0.70635  1.0000
  H   H512      1.0  0.21056  0.56345  0.90288  1.0000
  C   C518      1.0  0.15168  0.96702  0.76409  1.0000
  H   H513      1.0  0.16681  0.94071  0.72880  1.0000
  N   N46       1.0  0.23146  0.84175  0.84065  1.0000
  H   H514      1.0  0.08995  0.74289  0.66517  1.0000
  H   H515      1.0  0.06844  0.77523  0.65962  1.0000
  H   H516      1.0  0.18719  0.76854  0.65703  1.0000
  N   N47       1.0  0.04762  0.76510  0.65125  1.0000
  C   C519      1.0  0.01362  0.57683  0.80596  1.0000
  C   C520      1.0  0.05423  0.73102  0.65182  1.0000
  H   H517      1.0  0.18450  0.69167  0.96323  1.0000
  H   H518      1.0  0.18886  0.85655  0.81416  1.0000
  H   H519      1.0  0.20547  0.70508  0.97586  1.0000
  H   H520      1.0  0.23067  0.88315  0.79334  1.0000
  H   H521      1.0  0.15831  0.80190  0.67354  1.0000
  H   H522      1.0  0.17998  0.81085  0.66295  1.0000
  C   C521      1.0  0.20054  0.85221  0.82199  1.0000
  C   C522      1.0  0.21266  0.83396  0.82231  1.0000
  H   H523      1.0  0.22534  0.65555  0.96856  1.0000
  C   C523      1.0  0.23429  0.81833  0.65348  1.0000
  H   H524      1.0  0.15809  0.82317  0.65412  1.0000
  C   C524      1.0  0.16401  0.81539  0.66723  1.0000
  C   C525      1.0  0.15471  0.48583  0.72087  1.0000
  C   C526      1.0  0.23731  0.58564  0.66160  1.0000
  H   H525      1.0  0.23657  0.59904  0.85122  1.0000
  H   H526      1.0  0.23745  0.61650  0.90887  1.0000
  C   C527      1.0  0.18116  0.69252  0.97841  1.0000
  C   C528      1.0  0.39806  0.23709  0.12163  1.0000
  H   H527      1.0  0.41352  0.22970  0.12049  1.0000
  H   H528      1.0  0.32487  0.18836  0.07645  1.0000
  C   C529      1.0  0.28990  0.30600  0.16038  1.0000
  C   C530      1.0  0.28877  0.23493  0.09478  1.0000
  S   S186      1.0  0.32998  0.13740  0.01387  1.0000
  C   C531      1.0  0.40150  0.24958  0.14834  1.0000
  S   S187      1.0  0.26882  0.24920  0.14580  1.0000
  Fe  Fe95      1.0  0.29287  0.35453  0.20693  1.0000
  S   S188      1.0  0.27662  0.37755  0.18681  1.0000
  C   C532      1.0  0.39142  0.11777  0.05036  1.0000
  Fe  Fe96      1.0  0.33186  0.35938  0.18174  1.0000
  S   S189      1.0  0.31871  0.38349  0.15968  1.0000
  S   S190      1.0  0.36427  0.34848  0.17611  1.0000
  Fe  Fe97      1.0  0.29869  0.39451  0.18538  1.0000
  S   S191      1.0  0.28531  0.42503  0.19010  1.0000
  Fe  Fe98      1.0  0.29785  0.36447  0.16321  1.0000
  S   S192      1.0  0.29124  0.35815  0.13723  1.0000
  S   S193      1.0  0.31365  0.37208  0.20726  1.0000
  S   S194      1.0  0.31231  0.33975  0.18352  1.0000
  Fe  Fe99      1.0  0.36679  0.15997  0.09291  1.0000
  S   S195      1.0  0.35039  0.13666  0.10862  1.0000
  S   S196      1.0  0.37534  0.16621  0.06015  1.0000
  Fe  Fe100     1.0  0.36679  0.17153  0.13055  1.0000
  S   S197      1.0  0.35006  0.14910  0.14899  1.0000
  S   S198      1.0  0.37128  0.19191  0.14688  1.0000
  Fe  Fe101     1.0  0.36974  0.12958  0.12974  1.0000
  S   S199      1.0  0.38457  0.09912  0.14072  1.0000
  Fe  Fe102     1.0  0.33243  0.15854  0.12606  1.0000
  S   S200      1.0  0.30023  0.16439  0.13123  1.0000
  S   S201      1.0  0.38797  0.15124  0.11278  1.0000
  S   S202      1.0  0.34745  0.18249  0.10893  1.0000
  Fe  Fe103     1.0  0.47028  0.24680  0.18816  1.0000
  S   S203      1.0  0.45257  0.24352  0.21841  1.0000
  Fe  Fe104     1.0  0.45124  0.21978  0.17707  1.0000
  S   S204      1.0  0.43253  0.21414  0.20658  1.0000
  S   S205      1.0  0.45094  0.20441  0.15403  1.0000
  Fe  Fe105     1.0  0.42792  0.24622  0.20424  1.0000
  S   S206      1.0  0.39749  0.26204  0.21429  1.0000
  Fe  Fe106     1.0  0.45901  0.21209  0.21759  1.0000
  S   S207      1.0  0.47118  0.18895  0.24084  1.0000
  S   S208      1.0  0.44505  0.25210  0.17384  1.0000
  S   S209      1.0  0.47831  0.21512  0.18815  1.0000
  Fe  Fe107     1.0  0.37269  0.01667  0.24887  1.0000
  S   S210      1.0  0.34134  0.03133  0.25158  1.0000
  S   S211      1.0  0.39456  0.03387  0.24817  1.0000
  S   S212      1.0  0.33504  0.99490  0.23719  1.0000
  Fe  Fe108     1.0  0.34427  0.02311  0.22328  1.0000
  S   S213      1.0  0.33117  0.04460  0.19936  1.0000
  Fe  Fe109     1.0  0.33549  0.00162  0.26528  1.0000
  S   S214      1.0  0.36666  0.98744  0.26512  1.0000
  S   S215      1.0  0.37574  0.00962  0.21990  1.0000
  H   H529      1.0  0.27025  0.37992  0.22912  1.0000
  H   H530      1.0  0.41749  0.13605  0.25622  1.0000
  H   H531      1.0  0.39798  0.30565  0.23317  1.0000
  C   C533      1.0  0.26957  0.35058  0.14000  1.0000
  N   N48       1.0  0.40985  0.32597  0.20922  1.0000
  C   C534      1.0  0.39841  0.03791  0.26954  1.0000
  C   C535      1.0  0.41001  0.05100  0.26800  1.0000
  C   C536      1.0  0.41380  0.05425  0.28469  1.0000
  H   H532      1.0  0.23980  0.04273  0.29991  1.0000
  C   C537      1.0  0.26043  0.35471  0.24771  1.0000
  C   C538      1.0  0.39048  0.02816  0.28786  1.0000
  H   H533      1.0  0.32959  0.45533  0.22592  1.0000
  H   H534      1.0  0.37939  0.33574  0.21753  1.0000
  H   H535      1.0  0.38158  0.01801  0.28917  1.0000
  C   C539      1.0  0.45380  0.17730  0.25762  1.0000
  C   C540      1.0  0.43422  0.18390  0.25708  1.0000
  C   C541      1.0  0.42062  0.17353  0.26955  1.0000
  C   C542      1.0  0.42660  0.15652  0.28253  1.0000
  C   C543      1.0  0.44615  0.15008  0.28331  1.0000
  C   C544      1.0  0.45973  0.16055  0.27094  1.0000
  H   H536      1.0  0.42953  0.19700  0.24709  1.0000
  H   H537      1.0  0.40550  0.17856  0.26896  1.0000
  H   H538      1.0  0.41627  0.05849  0.25385  1.0000
  H   H539      1.0  0.47488  0.15541  0.27138  1.0000
  C   C545      1.0  0.34612  0.05934  0.18245  1.0000
  C   C546      1.0  0.33785  0.07629  0.17068  1.0000
  C   C547      1.0  0.34952  0.08855  0.15760  1.0000
  C   C548      1.0  0.36957  0.08357  0.15587  1.0000
  C   C549      1.0  0.37786  0.06633  0.16715  1.0000
  C   C550      1.0  0.36616  0.05443  0.18061  1.0000
  H   H540      1.0  0.32235  0.08017  0.17198  1.0000
  H   H541      1.0  0.34299  0.10187  0.14895  1.0000
  H   H542      1.0  0.39336  0.06233  0.16580  1.0000
  H   H543      1.0  0.37275  0.04147  0.18948  1.0000
  C   C551      1.0  0.42922  0.19857  0.15360  1.0000
  C   C552      1.0  0.41238  0.20331  0.16722  1.0000
  C   C553      1.0  0.39493  0.19981  0.16577  1.0000
  C   C554      1.0  0.39410  0.19181  0.15059  1.0000
  C   C555      1.0  0.41109  0.18624  0.13746  1.0000
  C   C556      1.0  0.42863  0.18961  0.13899  1.0000
  H   H544      1.0  0.41263  0.21018  0.17854  1.0000
  H   H545      1.0  0.38185  0.20401  0.17607  1.0000
  H   H546      1.0  0.41058  0.18013  0.12564  1.0000
  H   H547      1.0  0.44166  0.18580  0.12847  1.0000
  C   C557      1.0  0.29946  0.44196  0.18751  1.0000
  C   C558      1.0  0.29063  0.45935  0.19383  1.0000
  H   H548      1.0  0.36014  0.01257  0.18556  1.0000
  C   C559      1.0  0.44266  0.29672  0.20486  1.0000
  C   C560      1.0  0.32993  0.45257  0.17713  1.0000
  C   C561      1.0  0.31918  0.43851  0.17931  1.0000
  H   H549      1.0  0.43106  0.17146  0.19111  1.0000
  C   C562      1.0  0.27828  0.44694  0.25067  1.0000
  C   C563      1.0  0.43090  0.15167  0.21888  1.0000
  H   H550      1.0  0.32607  0.42515  0.17436  1.0000
  C   C564      1.0  0.37272  0.32376  0.18521  1.0000
  C   C565      1.0  0.36122  0.31325  0.20050  1.0000
  C   C566      1.0  0.36894  0.29420  0.20903  1.0000
  C   C567      1.0  0.38812  0.28548  0.20224  1.0000
  C   C568      1.0  0.39948  0.29576  0.18653  1.0000
  C   C569      1.0  0.39181  0.31491  0.17812  1.0000
  H   H551      1.0  0.34655  0.32002  0.20618  1.0000
  H   H552      1.0  0.36007  0.28632  0.22119  1.0000
  H   H553      1.0  0.41430  0.28919  0.18121  1.0000
  H   H554      1.0  0.40076  0.32302  0.16630  1.0000
  C   C570      1.0  0.27652  0.22487  0.14384  1.0000
  C   C571      1.0  0.26467  0.21535  0.13910  1.0000
  C   C572      1.0  0.27176  0.19644  0.13591  1.0000
  C   C573      1.0  0.29072  0.18708  0.13739  1.0000
  C   C574      1.0  0.30240  0.19641  0.14263  1.0000
  C   C575      1.0  0.29530  0.21528  0.14586  1.0000
  H   H555      1.0  0.28102  0.20907  0.05848  1.0000
  H   H556      1.0  0.26267  0.18921  0.13194  1.0000
  H   H557      1.0  0.31696  0.18913  0.14412  1.0000
  H   H558      1.0  0.30450  0.22253  0.14962  1.0000
  C   C576      1.0  0.27435  0.24365  0.08417  1.0000
  C   C577      1.0  0.37303  0.10207  0.07917  1.0000
  C   C578      1.0  0.26689  0.34331  0.12512  1.0000
  C   C579      1.0  0.43908  0.16393  0.20239  1.0000
  C   C580      1.0  0.26012  0.37456  0.24180  1.0000
  H   H559      1.0  0.44061  0.12446  0.26165  1.0000
  H   H560      1.0  0.41636  0.14985  0.22027  1.0000
  H   H561      1.0  0.27793  0.34279  0.11203  1.0000
  H   H562      1.0  0.24938  0.29657  0.15728  1.0000
  C   C581      1.0  0.26078  0.29297  0.16590  1.0000
  N   N49       1.0  0.38762  0.11181  0.07009  1.0000
  H   H563      1.0  0.34513  0.44999  0.17043  1.0000
  C   C582      1.0  0.45939  0.14450  0.23135  1.0000
  H   H564      1.0  0.42291  0.06420  0.28337  1.0000
  H   H565      1.0  0.28537  0.30916  0.17480  1.0000
  Fe  Fe110     1.0  0.33322  0.14399  0.98120  1.0000
  C   C583      1.0  0.36111  0.16063  0.04699  1.0000
  C   C584      1.0  0.34510  0.15239  0.05654  1.0000
  C   C585      1.0  0.33516  0.14618  0.04602  1.0000
  C   C586      1.0  0.34104  0.14823  0.02584  1.0000
  C   C587      1.0  0.35650  0.15729  0.01611  1.0000
  C   C588      1.0  0.36654  0.16342  0.02669  1.0000
  H   H566      1.0  0.34057  0.15038  0.07206  1.0000
  H   H567      1.0  0.32317  0.13924  0.05363  1.0000
  H   H568      1.0  0.36113  0.15896  0.00054  1.0000
  H   H569      1.0  0.37885  0.16990  0.01917  1.0000
  H   H570      1.0  0.42499  0.34320  0.18469  1.0000
  C   C589      1.0  0.33817  0.00066  0.18105  1.0000
  H   H571      1.0  0.31936  0.42641  0.22372  1.0000
  H   H572      1.0  0.41638  0.25007  0.14117  1.0000
  H   H573      1.0  0.39039  0.22657  0.11987  1.0000
  H   H574      1.0  0.39674  0.24998  0.10965  1.0000
  H   H575      1.0  0.28082  0.40776  0.25376  1.0000
  C   C590      1.0  0.30146  0.47324  0.19198  1.0000
  H   H576      1.0  0.29613  0.40776  0.23005  1.0000
  H   H577      1.0  0.40077  0.13104  0.07711  1.0000
  H   H578      1.0  0.27354  0.47397  0.25991  1.0000
  S   S216      1.0  0.24230  0.29120  0.11307  1.0000
  H   H579      1.0  0.30526  0.29705  0.10824  1.0000
  C   C591      1.0  0.30694  0.31101  0.14854  1.0000
  N   N50       1.0  0.44105  0.14215  0.23310  1.0000
  H   H580      1.0  0.42686  0.27950  0.22949  1.0000
  C   C592      1.0  0.28257  0.03946  0.30897  1.0000
  H   H581      1.0  0.48212  0.15931  0.21423  1.0000
  H   H582      1.0  0.27236  0.47790  0.15337  1.0000
  H   H583      1.0  0.45431  0.31720  0.18051  1.0000
  C   C593      1.0  0.43232  0.12889  0.24989  1.0000
  C   C594      1.0  0.46788  0.15690  0.21520  1.0000
  C   C595      1.0  0.39966  0.11556  0.08134  1.0000
  C   C596      1.0  0.29645  0.02672  0.29836  1.0000
  C   C597      1.0  0.28441  0.29430  0.13526  1.0000
  C   C598      1.0  0.24998  0.33673  0.12704  1.0000
  H   H584      1.0  0.30658  0.47915  0.24426  1.0000
  C   C599      1.0  0.42675  0.29352  0.21975  1.0000
  C   C600      1.0  0.39282  0.34158  0.21196  1.0000
  C   C601      1.0  0.30123  0.29939  0.12295  1.0000
  H   H585      1.0  0.39411  0.34970  0.22230  1.0000
  H   H586      1.0  0.46405  0.17630  0.18800  1.0000
  C   C602      1.0  0.39449  0.03121  0.30454  1.0000
  C   C603      1.0  0.35669  0.99993  0.18322  1.0000
  N   N51       1.0  0.37746  0.09379  0.19838  1.0000
  C   C604      1.0  0.36012  0.10288  0.19329  1.0000
  C   C605      1.0  0.37827  0.07931  0.21453  1.0000
  C   C606      1.0  0.34300  0.09746  0.20444  1.0000
  C   C607      1.0  0.36139  0.07379  0.22618  1.0000
  C   C608      1.0  0.34369  0.08273  0.22094  1.0000
  C   C609      1.0  0.39543  0.09880  0.18596  1.0000
  H   H587      1.0  0.35951  0.11392  0.18015  1.0000
  H   H588      1.0  0.39201  0.07173  0.21845  1.0000
  H   H589      1.0  0.32937  0.10423  0.19997  1.0000
  H   H590      1.0  0.36215  0.06241  0.23903  1.0000
  H   H591      1.0  0.33061  0.07800  0.22946  1.0000
  H   H592      1.0  0.39267  0.11296  0.17574  1.0000
  H   H593      1.0  0.40527  0.09968  0.19482  1.0000
  H   H594      1.0  0.40273  0.08764  0.17713  1.0000
  Fe  Fe111     1.0  0.24105  0.26438  0.13610  1.0000
  H   H595      1.0  0.37001  0.09732  0.09484  1.0000
  H   H596      1.0  0.30754  0.03209  0.28677  1.0000
  H   H597      1.0  0.30440  0.17753  0.08941  1.0000
  C   C610      1.0  0.32112  0.46995  0.18346  1.0000
  S   S217      1.0  0.40970  0.14279  0.29673  1.0000
  H   H598      1.0  0.39355  0.11247  0.09719  1.0000
  H   H599      1.0  0.45547  0.28531  0.20303  1.0000
  H   H600      1.0  0.28297  0.05467  0.30550  1.0000
  C   C611      1.0  0.36155  0.09843  0.06844  1.0000
  C   C612      1.0  0.37064  0.98281  0.18249  1.0000
  H   H601      1.0  0.25509  0.30128  0.17767  1.0000
  C   C613      1.0  0.41040  0.30842  0.22179  1.0000
  H   H602      1.0  0.26523  0.25756  0.08626  1.0000
  C   C614      1.0  0.45767  0.16659  0.20060  1.0000
  H   H603      1.0  0.27537  0.46207  0.20022  1.0000
  H   H604      1.0  0.40330  0.26024  0.17265  1.0000
  H   H605      1.0  0.34924  0.24637  0.17499  1.0000
  C   C615      1.0  0.24632  0.38760  0.25202  1.0000
  H   H606      1.0  0.25011  0.22255  0.13777  1.0000
  C   C616      1.0  0.44202  0.31468  0.19219  1.0000
  H   H607      1.0  0.25712  0.35692  0.16836  1.0000
  C   C617      1.0  0.31525  0.45286  0.23324  1.0000
  S   S218      1.0  0.27619  0.33852  0.23379  1.0000
  N   N52       1.0  0.39020  0.24289  0.14038  1.0000
  C   C618      1.0  0.39427  0.25526  0.16618  1.0000
  C   C619      1.0  0.25073  0.18978  0.98932  1.0000
  C   C620      1.0  0.42543  0.32928  0.19464  1.0000
  H   H608      1.0  0.25340  0.19039  0.00303  1.0000
  C   C621      1.0  0.30230  0.46634  0.24335  1.0000
  C   C622      1.0  0.31243  0.30799  0.12962  1.0000
  H   H609      1.0  0.26326  0.27720  0.17225  1.0000
  H   H610      1.0  0.32511  0.31273  0.12007  1.0000
  H   H611      1.0  0.34963  0.09123  0.07570  1.0000
  C   C623      1.0  0.37152  0.24206  0.14957  1.0000
  C   C624      1.0  0.37537  0.25417  0.17582  1.0000
  H   H612      1.0  0.31531  0.31818  0.15363  1.0000
  H   H613      1.0  0.26035  0.24111  0.06273  1.0000
  H   H614      1.0  0.27206  0.42165  0.23217  1.0000
  C   C625      1.0  0.30948  0.18875  0.07694  1.0000
  H   H615      1.0  0.31101  0.20993  0.10086  1.0000
  H   H616      1.0  0.30901  0.18494  0.06331  1.0000
  H   H617      1.0  0.41435  0.10637  0.07869  1.0000
  H   H618      1.0  0.39101  0.35177  0.19798  1.0000
  C   C626      1.0  0.30018  0.21685  0.09217  1.0000
  C   C627      1.0  0.30936  0.43654  0.23206  1.0000
  H   H619      1.0  0.45089  0.13687  0.29319  1.0000
  C   C628      1.0  0.36387  0.24756  0.16748  1.0000
  H   H620      1.0  0.36266  0.23641  0.14343  1.0000
  H   H621      1.0  0.36979  0.25830  0.18982  1.0000
  C   C629      1.0  0.25518  0.35133  0.15683  1.0000
  N   N53       1.0  0.29753  0.20786  0.07909  1.0000
  H   H622      1.0  0.29084  0.24195  0.10525  1.0000
  H   H623      1.0  0.38309  0.11933  0.02358  1.0000
  N   N54       1.0  0.29104  0.43380  0.24068  1.0000
  H   H624      1.0  0.27569  0.28773  0.12998  1.0000
  H   H625      1.0  0.43168  0.11564  0.24556  1.0000
  H   H626      1.0  0.24798  0.33132  0.11540  1.0000
  C   C630      1.0  0.38043  0.11408  0.03917  1.0000
  C   C631      1.0  0.36532  0.10448  0.04831  1.0000
  H   H627      1.0  0.35618  0.10233  0.03979  1.0000
  C   C632      1.0  0.28369  0.46341  0.25213  1.0000
  H   H628      1.0  0.26375  0.44478  0.25746  1.0000
  H   H629      1.0  0.46743  0.13712  0.24266  1.0000
  C   C633      1.0  0.28334  0.21628  0.06866  1.0000
  N   N55       1.0  0.27872  0.29804  0.15353  1.0000
  H   H630      1.0  0.24577  0.40296  0.24715  1.0000
  C   C634      1.0  0.27159  0.23433  0.07100  1.0000
  H   H631      1.0  0.40263  0.12595  0.04321  1.0000
  C   C635      1.0  0.28476  0.41688  0.23917  1.0000
  S   S219      1.0  0.44307  0.09060  0.29939  1.0000
  H   H632      1.0  0.32719  0.01383  0.18195  1.0000
  C   C636      1.0  0.24726  0.34791  0.26417  1.0000
  H   H633      1.0  0.27737  0.16949  0.98220  1.0000
  S   S220      1.0  0.31309  0.99051  0.29024  1.0000
  H   H634      1.0  0.24757  0.33256  0.26885  1.0000
  C   C637      1.0  0.23800  0.34529  0.15850  1.0000
  C   C638      1.0  0.40620  0.04421  0.30300  1.0000
  H   H635      1.0  0.30794  0.47311  0.14223  1.0000
  C   C639      1.0  0.29600  0.00702  0.30293  1.0000
  C   C640      1.0  0.33388  0.98441  0.17781  1.0000
  H   H636      1.0  0.31948  0.98481  0.17617  1.0000
  H   H637      1.0  0.29782  0.07564  0.97889  1.0000
  C   C641      1.0  0.25097  0.98651  0.43639  1.0000
  S   S221      1.0  0.32847  0.11396  0.61474  1.0000
  H   H638      1.0  0.41801  0.13599  0.36858  1.0000
  Fe  Fe112     1.0  0.27460  0.13882  0.61671  1.0000
  S   S222      1.0  0.29850  0.15366  0.59887  1.0000
  H   H639      1.0  0.27971  0.99025  0.42174  1.0000
  Fe  Fe113     1.0  0.31201  0.12484  0.59043  1.0000
  S   S223      1.0  0.32584  0.12248  0.55920  1.0000
  Fe  Fe114     1.0  0.31260  0.14144  0.62480  1.0000
  S   S224      1.0  0.32326  0.15911  0.63969  1.0000
  S   S225      1.0  0.28711  0.11083  0.60683  1.0000
  H   H640      1.0  0.34576  0.08500  0.54597  1.0000
  C   C642      1.0  0.33336  0.07254  0.58341  1.0000
  H   H641      1.0  0.25251  0.25063  0.58689  1.0000
  S   S226      1.0  0.44262  0.11354  0.33371  1.0000
  H   H642      1.0  0.40701  0.04328  0.38954  1.0000
  N   N56       1.0  0.37971  0.05625  0.38149  1.0000
  H   H643      1.0  0.25674  0.00734  0.34010  1.0000
  C   C643      1.0  0.35112  0.06748  0.40398  1.0000
  Fe  Fe115     1.0  0.42546  0.09234  0.35405  1.0000
  S   S227      1.0  0.41492  0.09081  0.38620  1.0000
  H   H644      1.0  0.34961  0.05930  0.54700  1.0000
  S   S228      1.0  0.44545  0.06651  0.34367  1.0000
  C   C644      1.0  0.25875  0.05070  0.44430  1.0000
  Fe  Fe116     1.0  0.30768  0.11658  0.43604  1.0000
  S   S229      1.0  0.31414  0.08705  0.45486  1.0000
  S   S230      1.0  0.32963  0.13252  0.41531  1.0000
  Fe  Fe117     1.0  0.26426  0.11912  0.44630  1.0000
  S   S231      1.0  0.26720  0.08994  0.46586  1.0000
  C   C645      1.0  0.30971  0.06397  0.57219  1.0000
  Fe  Fe118     1.0  0.28879  0.09935  0.47652  1.0000
  S   S232      1.0  0.28365  0.09428  0.50925  1.0000
  Fe  Fe119     1.0  0.29187  0.08062  0.44254  1.0000
  S   S233      1.0  0.29593  0.05584  0.42784  1.0000
  S   S234      1.0  0.28398  0.12943  0.45848  1.0000
  S   S235      1.0  0.28745  0.10926  0.42217  1.0000
  C   C646      1.0  0.40072  0.04995  0.37645  1.0000
  C   C647      1.0  0.33851  0.07263  0.54887  1.0000
  C   C648      1.0  0.29881  0.06043  0.59110  1.0000
  S   S236      1.0  0.41138  0.04719  0.32421  1.0000
  H   H645      1.0  0.24998  0.23463  0.61060  1.0000
  C   C649      1.0  0.24393  0.21241  0.59059  1.0000
  H   H646      1.0  0.25725  0.16046  0.44008  1.0000
  C   C650      1.0  0.26283  0.09074  0.39358  1.0000
  H   H647      1.0  0.25562  0.02835  0.40281  1.0000
  C   C651      1.0  0.27351  0.03986  0.41423  1.0000
  C   C652      1.0  0.27463  0.04830  0.42898  1.0000
  H   H648      1.0  0.38862  0.02336  0.31867  1.0000
  H   H649      1.0  0.25960  0.05680  0.45595  1.0000
  H   H650      1.0  0.28575  0.03794  0.40235  1.0000
  H   H651      1.0  0.26223  0.17224  0.63252  1.0000
  C   C653      1.0  0.39019  0.09985  0.39422  1.0000
  C   C654      1.0  0.37844  0.11013  0.38103  1.0000
  C   C655      1.0  0.35933  0.11909  0.38767  1.0000
  C   C656      1.0  0.35179  0.11763  0.40755  1.0000
  C   C657      1.0  0.36317  0.10649  0.42083  1.0000
  C   C658      1.0  0.38242  0.09773  0.41415  1.0000
  H   H652      1.0  0.38429  0.11215  0.36571  1.0000
  H   H653      1.0  0.35060  0.12785  0.37737  1.0000
  H   H654      1.0  0.35748  0.10554  0.43621  1.0000
  H   H655      1.0  0.39146  0.08985  0.42445  1.0000
  C   C659      1.0  0.37277  0.16222  0.37018  1.0000
  H   H656      1.0  0.40490  0.03911  0.36706  1.0000
  C   C660      1.0  0.26829  0.03247  0.32412  1.0000
  C   C661      1.0  0.32300  0.06881  0.60251  1.0000
  H   H657      1.0  0.36257  0.16954  0.36086  1.0000
  H   H658      1.0  0.25125  0.10106  0.42013  1.0000
  S   S237      1.0  0.40512  0.09597  0.33471  1.0000
  H   H659      1.0  0.30432  0.06217  0.56038  1.0000
  H   H660      1.0  0.28515  0.05603  0.59391  1.0000
  H   H661      1.0  0.35169  0.16700  0.39631  1.0000
  H   H662      1.0  0.29730  0.06013  0.62111  1.0000
  S   S238      1.0  0.24311  0.15105  0.61755  1.0000
  H   H663      1.0  0.24375  0.18543  0.58378  1.0000
  C   C662      1.0  0.30562  0.06273  0.60635  1.0000
  H   H664      1.0  0.41277  0.15346  0.33639  1.0000
  C   C663      1.0  0.37114  0.06108  0.39910  1.0000
  C   C664      1.0  0.24235  0.24329  0.59881  1.0000
  C   C665      1.0  0.28161  0.00014  0.31796  1.0000
  C   C666      1.0  0.37927  0.15079  0.40244  1.0000
  C   C667      1.0  0.25442  0.16765  0.49280  1.0000
  C   C668      1.0  0.31256  0.11738  0.54471  1.0000
  C   C669      1.0  0.29546  0.11067  0.55301  1.0000
  C   C670      1.0  0.28657  0.10409  0.54180  1.0000
  C   C671      1.0  0.29446  0.10450  0.52206  1.0000
  C   C672      1.0  0.31108  0.11202  0.51343  1.0000
  C   C673      1.0  0.32018  0.11832  0.52479  1.0000
  H   H665      1.0  0.28935  0.10994  0.56822  1.0000
  H   H666      1.0  0.27363  0.09841  0.54854  1.0000
  H   H667      1.0  0.31730  0.11238  0.49822  1.0000
  H   H668      1.0  0.33342  0.12349  0.51823  1.0000
  H   H669      1.0  0.32950  0.07604  0.53781  1.0000
  C   C674      1.0  0.25643  0.03438  0.41450  1.0000
  S   S239      1.0  0.25077  0.04833  0.33726  1.0000
  C   C675      1.0  0.25846  0.14749  0.49793  1.0000
  C   C676      1.0  0.40373  0.14360  0.37447  1.0000
  H   H670      1.0  0.37432  0.14901  0.41803  1.0000
  C   C677      1.0  0.25953  0.08145  0.38067  1.0000
  H   H671      1.0  0.37981  0.06014  0.40943  1.0000
  H   H672      1.0  0.24901  0.99662  0.44566  1.0000
  Fe  Fe120     1.0  0.42589  0.07136  0.32297  1.0000
  Fe  Fe121     1.0  0.30208  0.10261  0.63173  1.0000
  H   H673      1.0  0.26567  0.17560  0.49058  1.0000
  H   H674      1.0  0.27284  0.13963  0.49983  1.0000
  C   C678      1.0  0.39800  0.14210  0.39456  1.0000
  N   N57       1.0  0.39120  0.15372  0.36256  1.0000
  H   H675      1.0  0.32432  0.07380  0.39443  1.0000
  H   H676      1.0  0.34025  0.06582  0.36202  1.0000
  N   N58       1.0  0.32671  0.07000  0.56857  1.0000
  C   C679      1.0  0.36656  0.16096  0.39021  1.0000
  Fe  Fe122     1.0  0.46089  0.08803  0.32131  1.0000
  H   H677      1.0  0.38951  0.16745  0.33315  1.0000
  S   S240      1.0  0.24069  0.00796  0.38383  1.0000
  H   H678      1.0  0.40774  0.13343  0.40398  1.0000
  H   H679      1.0  0.25731  0.20657  0.59577  1.0000
  C   C680      1.0  0.39702  0.15404  0.34172  1.0000
  H   H680      1.0  0.34433  0.07129  0.41796  1.0000
  H   H681      1.0  0.40721  0.06259  0.36850  1.0000
  C   C681      1.0  0.26776  0.01283  0.32852  1.0000
  H   H682      1.0  0.27048  0.07868  0.36792  1.0000
  H   H683      1.0  0.37579  0.05489  0.35394  1.0000
  C   C682      1.0  0.24729  0.17960  0.63319  1.0000
  C   C683      1.0  0.33989  0.06904  0.39066  1.0000
  C   C684      1.0  0.36888  0.05822  0.36812  1.0000
  H   H684      1.0  0.34663  0.07771  0.58049  1.0000
  C   C685      1.0  0.34880  0.06449  0.37256  1.0000
  H   H685      1.0  0.39352  0.14142  0.33858  1.0000
  Fe  Fe123     1.0  0.42391  0.11476  0.31331  1.0000
  H   H686      1.0  0.27639  0.09528  0.39099  1.0000
  H   H687      1.0  0.48522  0.11636  0.32929  1.0000
  H   H688      1.0  0.32826  0.07085  0.61428  1.0000
  C   C686      1.0  0.26820  0.98291  0.42297  1.0000
  H   H689      1.0  0.24822  0.19510  0.44194  1.0000
  S   S241      1.0  0.28715  0.12927  0.64320  1.0000
  H   H690      1.0  0.28121  0.98493  0.32153  1.0000
  H   H691      1.0  0.24717  0.12169  0.50392  1.0000
  C   C687      1.0  0.24070  0.19737  0.63915  1.0000
  C   C688      1.0  0.24866  0.09383  0.41012  1.0000
  C   C689      1.0  0.24054  0.03679  0.42981  1.0000
  C   C690      1.0  0.24401  0.13740  0.50027  1.0000
  C   C691      1.0  0.24234  0.16790  0.44132  1.0000
  C   C692      1.0  0.24186  0.04471  0.44484  1.0000
  C   C693      1.0  0.24212  0.07547  0.38436  1.0000
  H   H692      1.0  0.35478  0.12504  0.63875  1.0000
  H   H693      1.0  0.23960  0.06804  0.37446  1.0000
  H   H694      1.0  0.25057  0.20365  0.64313  1.0000
  H   H695      1.0  0.44597  0.15496  0.64500  1.0000
  C   C694      1.0  0.26480  0.08475  0.66282  1.0000
  C   C695      1.0  0.26242  0.42153  0.75511  1.0000
  H   H696      1.0  0.32634  0.45349  0.79470  1.0000
  C   C696      1.0  0.35154  0.08679  0.77129  1.0000
  C   C697      1.0  0.44634  0.22014  0.88430  1.0000
  C   C698      1.0  0.26091  0.17732  0.95975  1.0000
  Fe  Fe124     1.0  0.27483  0.38680  0.82574  1.0000
  S   S242      1.0  0.27596  0.39771  0.85136  1.0000
  H   H697      1.0  0.36130  0.09658  0.76417  1.0000
  Fe  Fe125     1.0  0.30974  0.35423  0.83048  1.0000
  S   S243      1.0  0.31408  0.36231  0.85643  1.0000
  S   S244      1.0  0.32668  0.32868  0.81720  1.0000
  Fe  Fe126     1.0  0.28185  0.36635  0.86592  1.0000
  S   S245      1.0  0.26676  0.35802  0.89701  1.0000
  Fe  Fe127     1.0  0.30785  0.39299  0.83973  1.0000
  S   S246      1.0  0.32655  0.41390  0.83766  1.0000
  S   S247      1.0  0.27784  0.35587  0.84132  1.0000
  S   S248      1.0  0.30635  0.38455  0.81274  1.0000
  Fe  Fe128     1.0  0.41766  0.21158  0.82495  1.0000
  S   S249      1.0  0.40390  0.24052  0.80945  1.0000
  S   S250      1.0  0.40102  0.18783  0.83735  1.0000
  Fe  Fe129     1.0  0.45572  0.22347  0.81996  1.0000
  S   S251      1.0  0.44508  0.25345  0.80427  1.0000
  C   C699      1.0  0.47181  0.15290  0.71807  1.0000
  Fe  Fe130     1.0  0.41763  0.25245  0.82664  1.0000
  S   S252      1.0  0.40390  0.27761  0.84158  1.0000
  Fe  Fe131     1.0  0.43242  0.23877  0.78866  1.0000
  S   S253      1.0  0.43433  0.25030  0.75687  1.0000
  S   S254      1.0  0.42939  0.22350  0.84375  1.0000
  S   S255      1.0  0.44515  0.20871  0.80249  1.0000
  Fe  Fe132     1.0  0.34605  0.16735  0.94115  1.0000
  S   S256      1.0  0.35941  0.19264  0.92395  1.0000
  Fe  Fe133     1.0  0.34407  0.12554  0.94568  1.0000
  S   S257      1.0  0.35571  0.09820  0.93389  1.0000
  S   S258      1.0  0.33219  0.15291  0.92653  1.0000
  Fe  Fe134     1.0  0.38631  0.14294  0.74904  1.0000
  S   S259      1.0  0.37709  0.16289  0.72252  1.0000
  S   S260      1.0  0.36383  0.13918  0.77649  1.0000
  S   S261      1.0  0.42303  0.15508  0.70138  1.0000
  Fe  Fe135     1.0  0.40303  0.17498  0.72016  1.0000
  S   S262      1.0  0.40128  0.20708  0.71217  1.0000
  Fe  Fe136     1.0  0.39774  0.14108  0.70625  1.0000
  S   S263      1.0  0.39369  0.12754  0.68327  1.0000
  S   S264      1.0  0.41056  0.15671  0.74794  1.0000
  Fe  Fe137     1.0  0.30855  0.05587  0.87563  1.0000
  S   S265      1.0  0.29758  0.07618  0.89654  1.0000
  Fe  Fe138     1.0  0.30011  0.04979  0.83900  1.0000
  S   S266      1.0  0.27885  0.06180  0.81935  1.0000
  Fe  Fe139     1.0  0.34127  0.04749  0.84196  1.0000
  S   S267      1.0  0.37015  0.05410  0.82534  1.0000
  S   S268      1.0  0.31451  0.07064  0.84445  1.0000
  C   C700      1.0  0.25350  0.42694  0.72366  1.0000
  C   C701      1.0  0.35914  0.06688  0.77515  1.0000
  C   C702      1.0  0.28494  0.24898  0.91839  1.0000
  C   C703      1.0  0.25871  0.99820  0.84287  1.0000
  H   H698      1.0  0.29170  0.99992  0.79904  1.0000
  H   H699      1.0  0.35522  0.07018  0.86359  1.0000
  C   C704      1.0  0.36748  0.11628  0.79167  1.0000
  C   C705      1.0  0.35305  0.11191  0.80788  1.0000
  C   C706      1.0  0.35428  0.09300  0.81878  1.0000
  C   C707      1.0  0.36985  0.07834  0.81350  1.0000
  C   C708      1.0  0.38500  0.08300  0.79811  1.0000
  C   C709      1.0  0.38381  0.10199  0.78716  1.0000
  H   H700      1.0  0.34061  0.12304  0.81170  1.0000
  H   H701      1.0  0.34314  0.08983  0.83118  1.0000
  H   H702      1.0  0.39733  0.07179  0.79423  1.0000
  H   H703      1.0  0.39528  0.10539  0.77497  1.0000
  C   C710      1.0  0.31479  0.08271  0.90517  1.0000
  C   C711      1.0  0.31047  0.10074  0.91038  1.0000
  C   C712      1.0  0.32300  0.10561  0.91911  1.0000
  C   C713      1.0  0.34005  0.09255  0.92250  1.0000
  C   C714      1.0  0.34460  0.07467  0.91692  1.0000
  C   C715      1.0  0.33199  0.06975  0.90826  1.0000
  H   H704      1.0  0.29719  0.11084  0.90800  1.0000
  H   H705      1.0  0.31930  0.11940  0.92339  1.0000
  H   H706      1.0  0.35773  0.06446  0.91962  1.0000
  H   H707      1.0  0.33531  0.05570  0.90455  1.0000
  C   C716      1.0  0.42586  0.23743  0.74474  1.0000
  C   C717      1.0  0.41952  0.24720  0.72763  1.0000
  C   C718      1.0  0.41229  0.23757  0.71773  1.0000
  C   C719      1.0  0.41179  0.21796  0.72455  1.0000
  C   C720      1.0  0.41864  0.20796  0.74144  1.0000
  C   C721      1.0  0.42543  0.21778  0.75170  1.0000
  H   H708      1.0  0.42000  0.26233  0.72207  1.0000
  H   H709      1.0  0.40709  0.24535  0.70467  1.0000
  H   H710      1.0  0.41834  0.19285  0.74682  1.0000
  H   H711      1.0  0.43045  0.21010  0.76486  1.0000
  C   C722      1.0  0.38877  0.18924  0.86123  1.0000
  C   C723      1.0  0.38512  0.20655  0.86761  1.0000
  C   C724      1.0  0.37598  0.20746  0.88687  1.0000
  C   C725      1.0  0.37043  0.19109  0.89982  1.0000
  C   C726      1.0  0.37381  0.17383  0.89339  1.0000
  C   C727      1.0  0.38289  0.17294  0.87407  1.0000
  H   H712      1.0  0.38915  0.21931  0.85766  1.0000
  H   H713      1.0  0.37317  0.22088  0.89174  1.0000
  H   H714      1.0  0.36986  0.16107  0.90341  1.0000
  H   H715      1.0  0.38582  0.15952  0.86919  1.0000
  H   H716      1.0  0.31855  0.19851  0.92396  1.0000
  C   C728      1.0  0.31670  0.43561  0.84609  1.0000
  C   C729      1.0  0.29759  0.43972  0.85618  1.0000
  C   C730      1.0  0.29059  0.45674  0.86357  1.0000
  C   C731      1.0  0.47744  0.13713  0.67546  1.0000
  H   H717      1.0  0.26836  0.36288  0.80303  1.0000
  C   C732      1.0  0.32862  0.44873  0.84317  1.0000
  H   H718      1.0  0.28833  0.42965  0.85864  1.0000
  H   H719      1.0  0.27589  0.45974  0.87163  1.0000
  H   H720      1.0  0.37459  0.06139  0.77144  1.0000
  H   H721      1.0  0.34346  0.44559  0.83546  1.0000
  C   C733      1.0  0.38125  0.29089  0.83682  1.0000
  C   C734      1.0  0.37369  0.30902  0.84190  1.0000
  C   C735      1.0  0.35641  0.32049  0.83674  1.0000
  C   C736      1.0  0.34665  0.31381  0.82651  1.0000
  C   C737      1.0  0.35390  0.29544  0.82203  1.0000
  C   C738      1.0  0.37111  0.28404  0.82717  1.0000
  H   H722      1.0  0.38141  0.31440  0.84945  1.0000
  H   H723      1.0  0.35098  0.33471  0.84015  1.0000
  H   H724      1.0  0.34634  0.29017  0.81421  1.0000
  H   H725      1.0  0.37647  0.26998  0.82359  1.0000
  H   H726      1.0  0.47702  0.25427  0.82064  1.0000
  H   H727      1.0  0.24310  0.43093  0.69746  1.0000
  C   C739      1.0  0.34677  0.05414  0.78445  1.0000
  S   S269      1.0  0.29127  0.03705  0.87053  1.0000
  C   C740      1.0  0.26651  0.01945  0.79014  1.0000
  H   H728      1.0  0.25440  0.44201  0.72105  1.0000
  H   H729      1.0  0.25743  0.34114  0.78910  1.0000
  C   C741      1.0  0.27456  0.04540  0.80795  1.0000
  C   C742      1.0  0.28644  0.02702  0.80800  1.0000
  C   C743      1.0  0.28254  0.01415  0.79891  1.0000
  C   C744      1.0  0.31613  0.22849  0.90971  1.0000
  H   H730      1.0  0.25865  0.38580  0.75720  1.0000
  H   H731      1.0  0.29856  0.02263  0.81510  1.0000
  C   C745      1.0  0.31994  0.08142  0.78598  1.0000
  C   C746      1.0  0.27809  0.11048  0.95542  1.0000
  H   H732      1.0  0.48326  0.17858  0.70445  1.0000
  C   C747      1.0  0.27992  0.05585  0.68286  1.0000
  C   C748      1.0  0.26187  0.05415  0.69501  1.0000
  S   S270      1.0  0.24341  0.01158  0.73290  1.0000
  H   H733      1.0  0.29274  0.04539  0.68607  1.0000
  H   H734      1.0  0.26089  0.04246  0.70753  1.0000
  N   N59       1.0  0.27847  0.23352  0.93115  1.0000
  C   C749      1.0  0.25941  0.33576  0.90282  1.0000
  H   H735      1.0  0.24905  0.42617  0.76565  1.0000
  H   H736      1.0  0.33492  0.17349  0.66686  1.0000
  H   H737      1.0  0.40693  0.24016  0.90308  1.0000
  S   S271      1.0  0.30421  0.07397  0.65254  1.0000
  C   C750      1.0  0.28141  0.07119  0.66681  1.0000
  Fe  Fe140     1.0  0.42859  0.13575  0.72952  1.0000
  H   H738      1.0  0.28608  0.06730  0.94340  1.0000
  H   H739      1.0  0.31501  0.99301  0.83879  1.0000
  S   S272      1.0  0.40495  0.12002  0.73318  1.0000
  C   C751      1.0  0.31607  0.48085  0.80373  1.0000
  H   H740      1.0  0.31257  0.09162  0.96199  1.0000
  H   H741      1.0  0.26147  0.29787  0.88286  1.0000
  H   H742      1.0  0.36379  0.20795  0.74390  1.0000
  C   C752      1.0  0.32448  0.11474  0.77387  1.0000
  H   H743      1.0  0.30459  0.08690  0.79066  1.0000
  C   C753      1.0  0.47760  0.20160  0.73760  1.0000
  S   S273      1.0  0.31995  0.17281  0.96482  1.0000
  C   C754      1.0  0.43853  0.25427  0.87371  1.0000
  S   S274      1.0  0.33621  0.03365  0.87362  1.0000
  C   C755      1.0  0.45295  0.14538  0.65640  1.0000
  C   C756      1.0  0.41223  0.23675  0.88841  1.0000
  H   H744      1.0  0.36203  0.16145  0.68434  1.0000
  C   C757      1.0  0.45815  0.25490  0.86776  1.0000
  S   S275      1.0  0.26070  0.00228  0.78088  1.0000
  H   H745      1.0  0.38354  0.23562  0.77811  1.0000
  C   C758      1.0  0.36042  0.15337  0.67457  1.0000
  H   H746      1.0  0.35251  0.03869  0.78791  1.0000
  H   H747      1.0  0.27237  0.41009  0.76326  1.0000
  H   H748      1.0  0.42784  0.26764  0.87158  1.0000
  S   S276      1.0  0.36046  0.13961  0.95842  1.0000
  C   C759      1.0  0.25541  0.11084  0.93651  1.0000
  H   H749      1.0  0.37302  0.06197  0.87819  1.0000
  H   H750      1.0  0.35239  0.14260  0.88514  1.0000
  N   N60       1.0  0.31653  0.41375  0.89324  1.0000
  C   C760      1.0  0.30016  0.42413  0.90286  1.0000
  C   C761      1.0  0.31649  0.39617  0.88997  1.0000
  C   C762      1.0  0.28306  0.41711  0.90913  1.0000
  C   C763      1.0  0.29973  0.38859  0.89634  1.0000
  C   C764      1.0  0.28291  0.39919  0.90585  1.0000
  C   C765      1.0  0.33449  0.42097  0.88731  1.0000
  H   H751      1.0  0.30016  0.43813  0.90538  1.0000
  H   H752      1.0  0.32941  0.38799  0.88222  1.0000
  H   H753      1.0  0.27003  0.42551  0.91648  1.0000
  H   H754      1.0  0.29974  0.37457  0.89394  1.0000
  H   H755      1.0  0.26981  0.39342  0.91066  1.0000
  H   H756      1.0  0.33152  0.43704  0.88469  1.0000
  H   H757      1.0  0.38195  0.11303  0.65616  1.0000
  H   H758      1.0  0.34316  0.41686  0.87347  1.0000
  C   C766      1.0  0.28020  0.47091  0.81611  1.0000
  H   H759      1.0  0.26939  0.43416  0.74857  1.0000
  C   C767      1.0  0.32700  0.06142  0.78960  1.0000
  C   C768      1.0  0.25476  0.03788  0.78996  1.0000
  H   H760      1.0  0.27478  0.32730  0.87591  1.0000
  N   N61       1.0  0.38026  0.18887  0.78552  1.0000
  C   C769      1.0  0.38405  0.20507  0.78857  1.0000
  C   C770      1.0  0.37287  0.18986  0.76981  1.0000
  C   C771      1.0  0.38010  0.22291  0.77590  1.0000
  C   C772      1.0  0.36893  0.20740  0.75675  1.0000
  C   C773      1.0  0.37257  0.22402  0.75985  1.0000
  C   C774      1.0  0.38542  0.17011  0.79835  1.0000
  H   H761      1.0  0.37031  0.17698  0.76706  1.0000
  S   S277      1.0  0.32057  0.98412  0.87838  1.0000
  C   C775      1.0  0.37160  0.12615  0.65867  1.0000
  H   H762      1.0  0.40046  0.16298  0.79270  1.0000
  H   H763      1.0  0.38439  0.17183  0.81331  1.0000
  H   H764      1.0  0.37562  0.16042  0.79934  1.0000
  S   S278      1.0  0.27817  0.16369  0.94427  1.0000
  H   H765      1.0  0.33208  0.11414  0.68307  1.0000
  C   C776      1.0  0.25745  0.30693  0.89346  1.0000
  C   C777      1.0  0.30921  0.21276  0.92235  1.0000
  N   N62       1.0  0.43286  0.23702  0.88183  1.0000
  C   C778      1.0  0.24458  0.40178  0.71412  1.0000
  H   H766      1.0  0.24131  0.18775  0.94009  1.0000
  H   H767      1.0  0.34318  0.41491  0.89872  1.0000
  C   C779      1.0  0.24417  0.38646  0.79860  1.0000
  C   C780      1.0  0.30391  0.24674  0.90759  1.0000
  C   C781      1.0  0.26381  0.09158  0.93559  1.0000
  N   N63       1.0  0.40105  0.30782  0.78707  1.0000
  C   C782      1.0  0.38330  0.31996  0.78766  1.0000
  C   C783      1.0  0.40640  0.29365  0.77648  1.0000
  C   C784      1.0  0.37011  0.31764  0.77805  1.0000
  C   C785      1.0  0.39359  0.29095  0.76664  1.0000
  C   C786      1.0  0.37528  0.30297  0.76755  1.0000
  C   C787      1.0  0.41481  0.31062  0.79700  1.0000
  H   H768      1.0  0.37899  0.33119  0.79607  1.0000
  H   H769      1.0  0.42062  0.28427  0.77562  1.0000
  H   H770      1.0  0.35578  0.32687  0.77921  1.0000
  H   H771      1.0  0.39790  0.27959  0.75837  1.0000
  H   H772      1.0  0.36510  0.30093  0.76020  1.0000
  H   H773      1.0  0.42393  0.29654  0.80253  1.0000
  H   H774      1.0  0.42421  0.32023  0.78692  1.0000
  H   H775      1.0  0.40720  0.31702  0.80989  1.0000
  N   N64       1.0  0.30244  0.11449  0.68519  1.0000
  C   C788      1.0  0.29601  0.13398  0.68417  1.0000
  H   H776      1.0  0.32638  0.10922  0.66241  1.0000
  C   C789      1.0  0.27625  0.14188  0.68879  1.0000
  H   H777      1.0  0.26033  0.02173  0.85474  1.0000
  C   C790      1.0  0.26307  0.12969  0.69456  1.0000
  C   C791      1.0  0.32301  0.10680  0.67850  1.0000
  H   H778      1.0  0.30613  0.14362  0.67906  1.0000
  H   H779      1.0  0.28362  0.11814  0.96297  1.0000
  H   H780      1.0  0.27120  0.15742  0.68727  1.0000
  H   H781      1.0  0.33100  0.47564  0.84834  1.0000
  C   C792      1.0  0.31394  0.46338  0.80105  1.0000
  S   S279      1.0  0.31817  0.12732  0.96993  1.0000
  H   H782      1.0  0.29426  0.44445  0.80587  1.0000
  H   H783      1.0  0.32020  0.11933  0.78801  1.0000
  H   H784      1.0  0.47675  0.20680  0.87968  1.0000
  H   H785      1.0  0.23851  0.33511  0.83001  1.0000
  H   H786      1.0  0.24963  0.06507  0.79865  1.0000
  N   N65       1.0  0.28648  0.09168  0.95415  1.0000
  C   C793      1.0  0.47000  0.12084  0.68603  1.0000
  Fe  Fe141     1.0  0.30740  0.15574  0.95166  1.0000
  H   H787      1.0  0.24283  0.33975  0.93110  1.0000
  H   H788      1.0  0.32704  0.09102  0.68436  1.0000
  H   H789      1.0  0.24234  0.04207  0.78336  1.0000
  H   H790      1.0  0.37952  0.07332  0.85288  1.0000
  H   H791      1.0  0.23890  0.39705  0.70420  1.0000
  C   C794      1.0  0.25508  0.36783  0.79773  1.0000
  C   C795      1.0  0.34507  0.16018  0.66463  1.0000
  H   H792      1.0  0.44189  0.20642  0.89055  1.0000
  N   N66       1.0  0.25751  0.41444  0.74034  1.0000
  H   H793      1.0  0.40373  0.24751  0.87825  1.0000
  H   H794      1.0  0.28504  0.20322  0.94286  1.0000
  H   H795      1.0  0.25329  0.00784  0.83055  1.0000
  H   H796      1.0  0.25258  0.25126  0.94377  1.0000
  C   C796      1.0  0.29024  0.21554  0.93301  1.0000
  C   C797      1.0  0.25887  0.05087  0.79873  1.0000
  Fe  Fe142     1.0  0.31959  0.01594  0.86557  1.0000
  C   C798      1.0  0.26247  0.12034  0.94661  1.0000
  C   C799      1.0  0.26431  0.17802  0.97751  1.0000
  S   S280      1.0  0.25142  0.40182  0.80896  1.0000
  C   C800      1.0  0.24893  0.38908  0.73106  1.0000
  H   H797      1.0  0.45389  0.08738  0.68826  1.0000
  C   C801      1.0  0.25858  0.23600  0.94232  1.0000
  C   C802      1.0  0.44607  0.10053  0.69405  1.0000
  C   C803      1.0  0.26978  0.10981  0.69579  1.0000
  C   C804      1.0  0.46607  0.22024  0.87832  1.0000
  H   H798      1.0  0.44732  0.09814  0.70942  1.0000
  C   C805      1.0  0.26488  0.32371  0.88942  1.0000
  H   H799      1.0  0.25786  0.22706  0.95725  1.0000
  C   C806      1.0  0.24676  0.08299  0.67491  1.0000
  N   N67       1.0  0.36361  0.09261  0.87146  1.0000
  C   C807      1.0  0.34731  0.10581  0.86761  1.0000
  C   C808      1.0  0.37612  0.09714  0.87978  1.0000
  C   C809      1.0  0.34308  0.12403  0.87234  1.0000
  C   C810      1.0  0.37230  0.11519  0.88476  1.0000
  C   C811      1.0  0.35566  0.12869  0.88102  1.0000
  C   C812      1.0  0.36807  0.07363  0.86627  1.0000
  H   H800      1.0  0.33724  0.10216  0.86126  1.0000
  H   H801      1.0  0.38894  0.08661  0.88303  1.0000
  H   H802      1.0  0.32992  0.13428  0.86970  1.0000
  H   H803      1.0  0.38189  0.11848  0.89200  1.0000
  S   S281      1.0  0.32746  0.02770  0.83362  1.0000
  C   C813      1.0  0.44583  0.12900  0.66735  1.0000
  H   H804      1.0  0.33096  0.22645  0.90163  1.0000
  N   N68       1.0  0.33218  0.09382  0.77689  1.0000
  C   C814      1.0  0.25550  0.39569  0.74401  1.0000
  H   H805      1.0  0.39042  0.20419  0.80070  1.0000
  H   H806      1.0  0.33537  0.12308  0.76431  1.0000
  H   H807      1.0  0.45796  0.15914  0.71405  1.0000
  C   C815      1.0  0.47552  0.13381  0.72840  1.0000
  C   C816      1.0  0.30256  0.46983  0.86068  1.0000
  C   C817      1.0  0.24525  0.06769  0.69103  1.0000
  H   H808      1.0  0.25612  0.13537  0.94736  1.0000
  C   C818      1.0  0.37383  0.13637  0.67154  1.0000
  H   H809      1.0  0.37023  0.23754  0.74940  1.0000
  C   C819      1.0  0.32156  0.46583  0.85036  1.0000
  C   C820      1.0  0.29591  0.45830  0.80733  1.0000
  S   S282      1.0  0.45809  0.11944  0.73434  1.0000
  H   H810      1.0  0.40938  0.22239  0.88895  1.0000
  C   C821      1.0  0.47196  0.23776  0.87022  1.0000
  H   H811      1.0  0.30907  0.25906  0.89767  1.0000
  H   H812      1.0  0.24682  0.37431  0.73440  1.0000
  C   C822      1.0  0.24703  0.42079  0.71028  1.0000
  S   S283      1.0  0.48558  0.21223  0.82627  1.0000
  H   H813      1.0  0.43332  0.12606  0.66418  1.0000
  H   H814      1.0  0.31173  0.11861  0.76704  1.0000
  H   H815      1.0  0.46675  0.21538  0.73569  1.0000
  N   N69       1.0  0.45404  0.11729  0.68229  1.0000
  H   H816      1.0  0.26631  0.46672  0.82123  1.0000
  C   C823      1.0  0.24396  0.18829  0.95382  1.0000
  H   H817      1.0  0.26578  0.09665  0.65045  1.0000
  H   H818      1.0  0.47418  0.16241  0.65258  1.0000
  H   H819      1.0  0.27545  0.26318  0.91657  1.0000
  C   C824      1.0  0.27929  0.08210  0.94473  1.0000
  H   H820      1.0  0.24928  0.23171  0.93502  1.0000
  C   C825      1.0  0.34287  0.14999  0.65172  1.0000
  C   C826      1.0  0.24460  0.30205  0.91096  1.0000
  H   H821      1.0  0.31721  0.05166  0.79665  1.0000
  H   H822      1.0  0.47680  0.11132  0.69759  1.0000
  C   C827      1.0  0.35618  0.13289  0.64882  1.0000
  C   C828      1.0  0.24703  0.33054  0.92062  1.0000
  H   H823      1.0  0.24768  0.13566  0.69770  1.0000
  H   H824      1.0  0.29466  0.08705  0.69122  1.0000
  C   C829      1.0  0.30297  0.08163  0.96332  1.0000
  C   C830      1.0  0.28962  0.10243  0.69090  1.0000
  H   H825      1.0  0.43042  0.10282  0.69417  1.0000
  C   C831      1.0  0.26245  0.00615  0.85666  1.0000
  C   C832      1.0  0.46875  0.14954  0.66065  1.0000
  H   H826      1.0  0.25886  0.08417  0.92731  1.0000
  H   H827      1.0  0.47508  0.22846  0.75759  1.0000
  C   C833      1.0  0.48480  0.21492  0.76197  1.0000
  H   H828      1.0  0.46267  0.26854  0.86110  1.0000
  H   H829      1.0  0.46993  0.18954  0.74068  1.0000
  H   H830      1.0  0.25966  0.10020  0.69995  1.0000
  C   C834      1.0  0.26950  0.99385  0.87253  1.0000
  C   C835      1.0  0.24894  0.35558  0.78973  1.0000
  H   H831      1.0  0.27316  0.99972  0.88301  1.0000
  H   H832      1.0  0.31210  0.06973  0.95606  1.0000
  C   C836      1.0  0.23961  0.31370  0.92470  1.0000
  H   H833      1.0  0.24361  0.11847  0.92923  1.0000
  C   C837      1.0  0.48615  0.16391  0.71268  1.0000
  H   H834      1.0  0.48724  0.23802  0.86554  1.0000
  N   N70       1.0  0.48745  0.19965  0.75331  1.0000
  H   H835      1.0  0.31012  0.54316  0.13242  1.0000
  H   H836      1.0  0.34737  0.63266  0.22609  1.0000
  N   N71       1.0  0.32922  0.78360  0.06437  1.0000
  Fe  Fe143     1.0  0.28996  0.74228  0.99033  1.0000
  C   C838      1.0  0.24700  0.52093  0.28419  1.0000
  C   C839      1.0  0.26796  0.60351  0.14992  1.0000
  H   H837      1.0  0.29742  0.67929  0.09194  1.0000
  H   H838      1.0  0.29493  0.81647  0.26271  1.0000
  H   H839      1.0  0.27046  0.53560  0.15849  1.0000
  N   N72       1.0  0.29841  0.51893  0.14918  1.0000
  Fe  Fe144     1.0  0.33550  0.87034  0.22402  1.0000
  S   S284      1.0  0.34967  0.85872  0.24956  1.0000
  S   S285      1.0  0.33076  0.90240  0.21153  1.0000
  Fe  Fe145     1.0  0.32419  0.83218  0.22675  1.0000
  S   S286      1.0  0.33725  0.81781  0.25281  1.0000
  S   S287      1.0  0.30751  0.81353  0.22012  1.0000
  Fe  Fe146     1.0  0.32388  0.84537  0.26333  1.0000
  S   S288      1.0  0.31083  0.84533  0.29482  1.0000
  Fe  Fe147     1.0  0.36172  0.83232  0.23663  1.0000
  S   S289      1.0  0.39192  0.81533  0.23709  1.0000
  S   S290      1.0  0.30869  0.85872  0.23868  1.0000
  S   S291      1.0  0.34982  0.84495  0.20950  1.0000
  S   S292      1.0  0.40898  0.62940  0.26922  1.0000
  Fe  Fe148     1.0  0.40950  0.65504  0.21561  1.0000
  S   S293      1.0  0.38245  0.65740  0.23848  1.0000
  S   S294      1.0  0.41088  0.67056  0.18460  1.0000
  Fe  Fe149     1.0  0.40086  0.66114  0.25671  1.0000
  S   S295      1.0  0.38894  0.68443  0.27409  1.0000
  Fe  Fe150     1.0  0.39250  0.62549  0.24884  1.0000
  S   S296      1.0  0.36897  0.60812  0.25860  1.0000
  S   S297      1.0  0.42718  0.66173  0.23286  1.0000
  Fe  Fe151     1.0  0.31837  0.73910  0.10830  1.0000
  S   S298      1.0  0.29662  0.76606  0.11374  1.0000
  S   S299      1.0  0.33351  0.73097  0.07959  1.0000
  Fe  Fe152     1.0  0.31653  0.72183  0.15121  1.0000
  S   S300      1.0  0.29444  0.74703  0.16069  1.0000
  S   S301      1.0  0.32529  0.69431  0.17205  1.0000
  Fe  Fe153     1.0  0.28047  0.74589  0.13714  1.0000
  C   C840      1.0  0.46783  0.61903  0.30124  1.0000
  Fe  Fe154     1.0  0.31252  0.76503  0.13675  1.0000
  S   S302      1.0  0.32265  0.79114  0.13825  1.0000
  S   S303      1.0  0.30105  0.71914  0.12984  1.0000
  S   S304      1.0  0.33580  0.73972  0.12909  1.0000
  H   H840      1.0  0.27744  0.61371  0.14503  1.0000
  C   C841      1.0  0.27125  0.68931  0.03072  1.0000
  C   C842      1.0  0.41390  0.70231  0.30773  1.0000
  H   H841      1.0  0.24708  0.87418  0.27919  1.0000
  H   H842      1.0  0.28289  0.68194  0.02090  1.0000
  C   C843      1.0  0.42164  0.83269  0.27168  1.0000
  Fe  Fe155     1.0  0.29934  0.52603  0.23118  1.0000
  S   S305      1.0  0.28093  0.51277  0.25868  1.0000
  Fe  Fe156     1.0  0.30284  0.55474  0.19313  1.0000
  S   S306      1.0  0.33338  0.54020  0.18299  1.0000
  S   S307      1.0  0.29343  0.58262  0.17279  1.0000
  Fe  Fe157     1.0  0.33726  0.53916  0.21270  1.0000
  S   S308      1.0  0.36512  0.54736  0.21221  1.0000
  S   S309      1.0  0.29219  0.52691  0.20275  1.0000
  S   S310      1.0  0.30717  0.55535  0.22234  1.0000
  S   S311      1.0  0.38029  0.95263  0.22886  1.0000
  H   H843      1.0  0.37512  0.85313  0.30559  1.0000
  C   C844      1.0  0.33911  0.78103  0.08022  1.0000
  C   C845      1.0  0.27239  0.58662  0.16372  1.0000
  C   C846      1.0  0.26008  0.57346  0.16993  1.0000
  C   C847      1.0  0.30074  0.93249  0.27526  1.0000
  S   S312      1.0  0.27098  0.68359  0.98480  1.0000
  C   C848      1.0  0.31089  0.78822  0.03402  1.0000
  N   N73       1.0  0.47033  0.64813  0.19559  1.0000
  C   C849      1.0  0.40318  0.83419  0.30404  1.0000
  N   N74       1.0  0.31262  0.91585  0.27044  1.0000
  C   C850      1.0  0.26330  0.71241  0.10045  1.0000
  C   C851      1.0  0.26218  0.72672  0.11044  1.0000
  H   H844      1.0  0.37047  0.80795  0.30724  1.0000
  H   H845      1.0  0.31990  0.73109  0.01726  1.0000
  S   S313      1.0  0.25446  0.68006  0.09623  1.0000
  H   H846      1.0  0.27340  0.71185  0.08675  1.0000
  H   H847      1.0  0.27129  0.73719  0.10441  1.0000
  C   C852      1.0  0.24337  0.57729  0.16230  1.0000
  C   C853      1.0  0.24240  0.56101  0.27131  1.0000
  C   C854      1.0  0.36862  0.59022  0.24655  1.0000
  C   C855      1.0  0.38453  0.58354  0.23281  1.0000
  C   C856      1.0  0.38336  0.57007  0.22271  1.0000
  C   C857      1.0  0.36624  0.56338  0.22606  1.0000
  C   C858      1.0  0.35037  0.56995  0.23989  1.0000
  C   C859      1.0  0.35165  0.58318  0.25024  1.0000
  H   H848      1.0  0.39771  0.58874  0.22999  1.0000
  H   H849      1.0  0.39573  0.56491  0.21213  1.0000
  H   H850      1.0  0.33718  0.56477  0.24268  1.0000
  H   H851      1.0  0.33934  0.58824  0.26091  1.0000
  C   C860      1.0  0.38758  0.67647  0.17985  1.0000
  C   C861      1.0  0.38253  0.69203  0.16496  1.0000
  C   C862      1.0  0.36345  0.69752  0.16216  1.0000
  C   C863      1.0  0.34951  0.68735  0.17418  1.0000
  C   C864      1.0  0.35474  0.67150  0.18864  1.0000
  C   C865      1.0  0.37374  0.66603  0.19144  1.0000
  H   H852      1.0  0.39324  0.70010  0.15593  1.0000
  H   H853      1.0  0.35957  0.70973  0.15092  1.0000
  H   H854      1.0  0.34396  0.66371  0.19796  1.0000
  H   H855      1.0  0.37769  0.65374  0.20262  1.0000
  C   C866      1.0  0.31150  0.80815  0.19703  1.0000
  C   C867      1.0  0.32364  0.81699  0.18091  1.0000
  C   C868      1.0  0.32661  0.81201  0.16281  1.0000
  C   C869      1.0  0.31770  0.79800  0.16081  1.0000
  C   C870      1.0  0.30554  0.78925  0.17695  1.0000
  C   C871      1.0  0.30242  0.79435  0.19496  1.0000
  H   H856      1.0  0.33063  0.82772  0.18234  1.0000
  H   H857      1.0  0.33600  0.81889  0.15036  1.0000
  H   H858      1.0  0.29847  0.77859  0.17560  1.0000
  H   H859      1.0  0.29296  0.78749  0.20736  1.0000
  C   C872      1.0  0.31087  0.79446  0.06493  1.0000
  C   C873      1.0  0.43791  0.67799  0.29265  1.0000
  C   C874      1.0  0.42468  0.67636  0.28266  1.0000
  C   C875      1.0  0.40598  0.68755  0.28533  1.0000
  C   C876      1.0  0.23890  0.59432  0.14858  1.0000
  H   H860      1.0  0.48062  0.61149  0.29270  1.0000
  H   H861      1.0  0.35592  0.92582  0.26799  1.0000
  H   H862      1.0  0.42879  0.66615  0.27322  1.0000
  C   C877      1.0  0.30450  0.90095  0.26712  1.0000
  H   H863      1.0  0.38618  0.70946  0.29967  1.0000
  H   H864      1.0  0.28673  0.80514  0.05046  1.0000
  C   C878      1.0  0.41352  0.78474  0.28439  1.0000
  C   C879      1.0  0.41121  0.79194  0.26512  1.0000
  C   C880      1.0  0.39421  0.80488  0.26112  1.0000
  C   C881      1.0  0.37942  0.81029  0.27638  1.0000
  C   C882      1.0  0.38179  0.80327  0.29554  1.0000
  H   H865      1.0  0.42680  0.77510  0.28744  1.0000
  H   H866      1.0  0.42265  0.78768  0.25333  1.0000
  H   H867      1.0  0.36629  0.82028  0.27348  1.0000
  H   H868      1.0  0.41901  0.62917  0.30785  1.0000
  N   N75       1.0  0.34176  0.60050  0.19427  1.0000
  C   C883      1.0  0.26665  0.83062  0.25723  1.0000
  C   C884      1.0  0.36574  0.93841  0.22570  1.0000
  C   C885      1.0  0.34707  0.94653  0.22246  1.0000
  C   C886      1.0  0.33638  0.93527  0.21836  1.0000
  C   C887      1.0  0.34410  0.91571  0.21789  1.0000
  C   C888      1.0  0.36254  0.90738  0.22172  1.0000
  C   C889      1.0  0.37340  0.91877  0.22543  1.0000
  C   C890      1.0  0.25502  0.86692  0.29056  1.0000
  H   H869      1.0  0.32211  0.94177  0.21542  1.0000
  H   H870      1.0  0.36869  0.89235  0.22110  1.0000
  H   H871      1.0  0.38790  0.91244  0.22778  1.0000
  C   C891      1.0  0.41996  0.82675  0.29177  1.0000
  H   H872      1.0  0.34019  0.77886  0.22973  1.0000
  N   N76       1.0  0.25432  0.68291  0.03794  1.0000
  C   C892      1.0  0.34828  0.96763  0.17675  1.0000
  C   C893      1.0  0.29553  0.74656  0.03489  1.0000
  C   C894      1.0  0.31416  0.73531  0.03113  1.0000
  C   C895      1.0  0.32563  0.73004  0.04515  1.0000
  C   C896      1.0  0.31845  0.73596  0.06293  1.0000
  C   C897      1.0  0.29968  0.74680  0.06681  1.0000
  C   C898      1.0  0.28825  0.75206  0.05284  1.0000
  H   H873      1.0  0.34021  0.72173  0.04205  1.0000
  H   H874      1.0  0.29417  0.75164  0.08033  1.0000
  H   H875      1.0  0.27384  0.76078  0.05580  1.0000
  S   S314      1.0  0.41827  0.62285  0.22435  1.0000
  C   C899      1.0  0.32051  0.68203  0.10382  1.0000
  H   H876      1.0  0.26048  0.72809  0.05192  1.0000
  H   H877      1.0  0.31236  0.88621  0.27288  1.0000
  H   H878      1.0  0.46859  0.70861  0.27867  1.0000
  H   H879      1.0  0.34536  0.68946  0.13219  1.0000
  C   C900      1.0  0.29384  0.66712  0.12253  1.0000
  C   C901      1.0  0.29956  0.48692  0.14547  1.0000
  C   C902      1.0  0.39063  0.85336  0.27599  1.0000
  C   C903      1.0  0.32838  0.94453  0.27538  1.0000
  S   S315      1.0  0.30695  0.71220  0.98876  1.0000
  C   C904      1.0  0.48670  0.67391  0.20492  1.0000
  H   H880      1.0  0.28522  0.93462  0.27710  1.0000
  H   H881      1.0  0.35824  0.67196  0.11731  1.0000
  C   C905      1.0  0.30837  0.53446  0.14745  1.0000
  H   H882      1.0  0.34842  0.69660  0.10648  1.0000
  C   C906      1.0  0.47362  0.64307  0.25564  1.0000
  H   H883      1.0  0.32284  0.52837  0.15117  1.0000
  C   C907      1.0  0.24505  0.86153  0.30958  1.0000
  C   C908      1.0  0.34589  0.68438  0.11894  1.0000
  C   C909      1.0  0.23845  0.69971  0.12588  1.0000
  H   H884      1.0  0.30353  0.78947  0.02246  1.0000
  C   C910      1.0  0.27874  0.52189  0.15493  1.0000
  H   H885      1.0  0.34372  0.76536  0.08627  1.0000
  C   C911      1.0  0.26905  0.50723  0.15648  1.0000
  C   C912      1.0  0.48658  0.64145  0.20325  1.0000
  H   H886      1.0  0.32970  0.78783  0.09235  1.0000
  H   H887      1.0  0.33688  0.77002  0.02158  1.0000
  C   C913      1.0  0.44953  0.61895  0.29899  1.0000
  C   C914      1.0  0.28558  0.85255  0.30054  1.0000
  C   C915      1.0  0.25163  0.66597  0.03257  1.0000
  H   H888      1.0  0.46372  0.69595  0.19427  1.0000
  H   H889      1.0  0.24122  0.67064  0.02274  1.0000
  C   C916      1.0  0.27372  0.70558  0.03573  1.0000
  H   H890      1.0  0.32446  0.66662  0.15047  1.0000
  H   H891      1.0  0.25349  0.50950  0.16138  1.0000
  C   C917      1.0  0.32963  0.77729  0.03352  1.0000
  H   H892      1.0  0.26326  0.56056  0.18080  1.0000
  C   C918      1.0  0.27290  0.81446  0.28896  1.0000
  C   C919      1.0  0.25830  0.54865  0.26228  1.0000
  H   H893      1.0  0.28042  0.66289  0.12348  1.0000
  C   C920      1.0  0.32615  0.60743  0.20746  1.0000
  C   C921      1.0  0.33971  0.58842  0.18206  1.0000
  H   H894      1.0  0.32755  0.58091  0.18903  1.0000
  H   H895      1.0  0.33694  0.59741  0.16789  1.0000
  H   H896      1.0  0.35291  0.57691  0.17970  1.0000
  N   N77       1.0  0.40698  0.84569  0.26405  1.0000
  H   H897      1.0  0.24587  0.65576  0.04569  1.0000
  H   H898      1.0  0.44958  0.67286  0.18575  1.0000
  H   H899      1.0  0.34108  0.96163  0.22244  1.0000
  C   C922      1.0  0.24953  0.72736  0.12834  1.0000
  C   C923      1.0  0.23948  0.69257  0.04986  1.0000
  C   C924      1.0  0.40912  0.85206  0.24297  1.0000
  H   H900      1.0  0.35204  0.78763  0.07484  1.0000
  H   H901      1.0  0.43448  0.82639  0.26224  1.0000
  H   H902      1.0  0.37903  0.86364  0.26995  1.0000
  C   C925      1.0  0.33221  0.91339  0.26776  1.0000
  C   C926      1.0  0.31869  0.66928  0.13754  1.0000
  H   H903      1.0  0.41530  0.86527  0.23786  1.0000
  H   H904      1.0  0.41856  0.84050  0.23540  1.0000
  H   H905      1.0  0.39497  0.85508  0.23867  1.0000
  N   N78       1.0  0.34970  0.76034  0.20957  1.0000
  C   C927      1.0  0.34760  0.76419  0.19077  1.0000
  C   C928      1.0  0.34880  0.74241  0.22107  1.0000
  C   C929      1.0  0.34382  0.75014  0.18322  1.0000
  C   C930      1.0  0.34529  0.72792  0.21391  1.0000
  C   C931      1.0  0.34255  0.73195  0.19495  1.0000
  C   C932      1.0  0.35257  0.77547  0.21772  1.0000
  H   H906      1.0  0.34855  0.77827  0.18153  1.0000
  H   H907      1.0  0.35072  0.73925  0.23591  1.0000
  H   H908      1.0  0.34169  0.75348  0.16843  1.0000
  H   H909      1.0  0.34462  0.71369  0.22303  1.0000
  H   H910      1.0  0.33937  0.72100  0.18938  1.0000
  H   H911      1.0  0.36616  0.77070  0.22329  1.0000
  H   H912      1.0  0.35337  0.78921  0.20682  1.0000
  H   H913      1.0  0.31237  0.60353  0.20937  1.0000
  S   S316      1.0  0.46478  0.61381  0.24429  1.0000
  H   H914      1.0  0.25898  0.54566  0.30754  1.0000
  S   S317      1.0  0.32997  0.50975  0.22420  1.0000
  Fe  Fe158     1.0  0.32328  0.51233  0.19532  1.0000
  C   C933      1.0  0.35914  0.60540  0.19184  1.0000
  C   C934      1.0  0.32786  0.61925  0.21898  1.0000
  C   C935      1.0  0.27958  0.48960  0.15182  1.0000
  H   H915      1.0  0.28267  0.86660  0.27138  1.0000
  S   S318      1.0  0.28117  0.75477  0.01733  1.0000
  C   C936      1.0  0.24705  0.83529  0.26546  1.0000
  C   C937      1.0  0.46187  0.63440  0.19069  1.0000
  C   C938      1.0  0.34560  0.62412  0.21676  1.0000
  H   H916      1.0  0.37159  0.59961  0.18164  1.0000
  N   N79       1.0  0.25364  0.81907  0.29693  1.0000
  C   C939      1.0  0.38841  0.84762  0.29615  1.0000
  C   C940      1.0  0.24073  0.82924  0.28545  1.0000
  C   C941      1.0  0.36131  0.61730  0.20300  1.0000
  H   H917      1.0  0.46124  0.62137  0.20262  1.0000
  H   H918      1.0  0.32765  0.68956  0.09004  1.0000
  H   H919      1.0  0.33454  0.95578  0.27719  1.0000
  H   H920      1.0  0.37528  0.62057  0.20159  1.0000
  C   C942      1.0  0.30342  0.67634  0.10479  1.0000
  H   H921      1.0  0.31568  0.62425  0.22987  1.0000
  H   H922      1.0  0.35292  0.76598  0.04876  1.0000
  H   H923      1.0  0.28713  0.71065  0.03007  1.0000
  H   H924      1.0  0.30558  0.90256  0.25132  1.0000
  C   C943      1.0  0.26069  0.52859  0.26885  1.0000
  S   S319      1.0  0.24937  0.74462  0.14118  1.0000
  H   H925      1.0  0.29402  0.65657  0.15292  1.0000
  H   H926      1.0  0.26882  0.55463  0.25043  1.0000
  H   H927      1.0  0.24811  0.62040  0.13166  1.0000
  C   C944      1.0  0.25871  0.71543  0.04799  1.0000
  Fe  Fe159     1.0  0.43400  0.62967  0.24367  1.0000
  H   H928      1.0  0.29905  0.96023  0.28176  1.0000
  C   C945      1.0  0.43240  0.69061  0.30553  1.0000
  N   N80       1.0  0.32784  0.67859  0.12013  1.0000
  H   H929      1.0  0.45892  0.65067  0.25535  1.0000
  C   C946      1.0  0.30149  0.66355  0.13903  1.0000
  H   H930      1.0  0.30334  0.80114  0.07722  1.0000
  C   C947      1.0  0.30142  0.79688  0.04982  1.0000
  C   C948      1.0  0.34037  0.92761  0.27035  1.0000
  H   H931      1.0  0.34163  0.90051  0.26330  1.0000
  H   H932      1.0  0.30021  0.54428  0.15754  1.0000
  C   C949      1.0  0.25161  0.69876  0.10825  1.0000
  H   H933      1.0  0.45222  0.66901  0.29086  1.0000
  C   C950      1.0  0.27967  0.82013  0.26902  1.0000
  H   H934      1.0  0.48565  0.67670  0.29423  1.0000
  C   C951      1.0  0.25129  0.60735  0.14237  1.0000
  C   C952      1.0  0.33861  0.77507  0.04893  1.0000
  H   H935      1.0  0.48041  0.66452  0.26675  1.0000
  H   H936      1.0  0.26535  0.65802  0.02494  1.0000
  C   C953      1.0  0.39890  0.79070  0.29958  1.0000
  H   H937      1.0  0.27181  0.83513  0.24173  1.0000
  C   C954      1.0  0.47034  0.68066  0.19675  1.0000
  H   H938      1.0  0.43117  0.81575  0.29783  1.0000
  C   C955      1.0  0.27522  0.86245  0.28607  1.0000
  C   C956      1.0  0.38135  0.94937  0.17776  1.0000
  H   H939      1.0  0.38942  0.95019  0.16254  1.0000
  H   H940      1.0  0.28912  0.90183  0.27463  1.0000
  H   H941      1.0  0.32441  0.49940  0.13979  1.0000
  H   H942      1.0  0.44684  0.64080  0.18863  1.0000
  C   C957      1.0  0.30879  0.50184  0.14418  1.0000
  H   H943      1.0  0.34483  0.95502  0.17429  1.0000
  C   C958      1.0  0.46239  0.66750  0.19198  1.0000
  H   H944      1.0  0.39162  0.94753  0.18729  1.0000
  C   C959      1.0  0.48024  0.62501  0.25048  1.0000
  N   N81       1.0  0.36631  0.96692  0.17934  1.0000
  C   C960      1.0  0.30843  0.94703  0.27787  1.0000
  H   H945      1.0  0.37500  0.93623  0.18256  1.0000
  C   C961      1.0  0.40066  0.70076  0.29763  1.0000
  H   H946      1.0  0.44806  0.61138  0.28863  1.0000
  S   S320      1.0  0.33478  0.48769  0.17941  1.0000
  H   H947      1.0  0.24672  0.65717  0.98896  1.0000
  H   H948      1.0  0.24075  0.57652  0.26644  1.0000
  C   C962      1.0  0.24144  0.70893  0.05511  1.0000
  H   H949      1.0  0.28320  0.80657  0.29804  1.0000
  H   H950      1.0  0.24875  0.50542  0.28923  1.0000
  H   H951      1.0  0.29451  0.48662  0.19682  1.0000
  C   C963      1.0  0.43320  0.62906  0.30984  1.0000
  H   H952      1.0  0.47067  0.62991  0.17714  1.0000
  C   C964      1.0  0.48582  0.65091  0.26205  1.0000
  S   S321      1.0  0.26550  0.73938  0.97873  1.0000
  C   C965      1.0  0.48225  0.70733  0.28256  1.0000
  H   H953      1.0  0.48291  0.73744  0.27215  1.0000
  Fe  Fe160     1.0  0.36635  0.98201  0.23633  1.0000
  C   C966      1.0  0.23753  0.71393  0.13602  1.0000
  H   H954      1.0  0.38488  0.98224  0.18468  1.0000
  C   C967      1.0  0.36935  0.76585  0.36675  1.0000
  H   H955      1.0  0.25679  0.95167  0.40271  1.0000
  S   S322      1.0  0.26760  0.75499  0.61931  1.0000
  H   H956      1.0  0.33588  0.73830  0.58954  1.0000
  C   C968      1.0  0.45299  0.63909  0.32487  1.0000
  S   S323      1.0  0.27962  0.79083  0.63026  1.0000
  H   H957      1.0  0.24777  0.84806  0.33897  1.0000
  H   H958      1.0  0.26481  0.50059  0.34320  1.0000
  H   H959      1.0  0.24327  0.72342  0.41180  1.0000
  Fe  Fe161     1.0  0.29146  0.77153  0.60853  1.0000
  S   S324      1.0  0.30107  0.78272  0.57646  1.0000
  C   C969      1.0  0.34860  0.74637  0.55129  1.0000
  S   S325      1.0  0.31203  0.75060  0.62620  1.0000
  H   H960      1.0  0.28348  0.96766  0.40002  1.0000
  Fe  Fe162     1.0  0.25759  0.77226  0.64260  1.0000
  C   C970      1.0  0.26700  0.79598  0.42806  1.0000
  S   S326      1.0  0.45965  0.71426  0.35496  1.0000
  H   H961      1.0  0.34017  0.76269  0.37096  1.0000
  Fe  Fe163     1.0  0.43254  0.73239  0.36913  1.0000
  S   S327      1.0  0.42017  0.72959  0.40118  1.0000
  S   S328      1.0  0.44131  0.76046  0.35312  1.0000
  C   C971      1.0  0.36010  0.76695  0.40580  1.0000
  Fe  Fe164     1.0  0.27432  0.72790  0.47203  1.0000
  S   S329      1.0  0.27433  0.75226  0.48531  1.0000
  C   C972      1.0  0.34077  0.71503  0.55393  1.0000
  Fe  Fe165     1.0  0.31693  0.72373  0.45255  1.0000
  S   S330      1.0  0.32080  0.74768  0.46424  1.0000
  S   S331      1.0  0.33775  0.70782  0.43048  1.0000
  Fe  Fe166     1.0  0.30262  0.73455  0.49216  1.0000
  S   S332      1.0  0.30797  0.72565  0.52260  1.0000
  Fe  Fe167     1.0  0.29219  0.76311  0.45635  1.0000
  S   S333      1.0  0.28660  0.79344  0.43876  1.0000
  S   S334      1.0  0.30122  0.70923  0.48097  1.0000
  S   S335      1.0  0.28977  0.74009  0.44257  1.0000
  H   H962      1.0  0.34385  0.76966  0.64160  1.0000
  N   N82       1.0  0.43508  0.63904  0.32249  1.0000
  H   H963      1.0  0.25891  0.85357  0.42460  1.0000
  H   H964      1.0  0.34527  0.75023  0.53656  1.0000
  H   H965      1.0  0.26230  0.83294  0.44372  1.0000
  H   H966      1.0  0.27796  0.68529  0.40547  1.0000
  C   C973      1.0  0.32708  0.69670  0.58472  1.0000
  C   C974      1.0  0.39766  0.72265  0.40962  1.0000
  C   C975      1.0  0.38639  0.72608  0.42759  1.0000
  C   C976      1.0  0.36792  0.72168  0.43409  1.0000
  C   C977      1.0  0.36082  0.71345  0.42280  1.0000
  C   C978      1.0  0.37224  0.70964  0.40505  1.0000
  C   C979      1.0  0.39057  0.71430  0.39843  1.0000
  H   H967      1.0  0.39189  0.73235  0.43641  1.0000
  H   H968      1.0  0.35936  0.72432  0.44799  1.0000
  H   H969      1.0  0.36692  0.70306  0.39637  1.0000
  H   H970      1.0  0.39933  0.71104  0.38487  1.0000
  C   C980      1.0  0.24495  0.72141  0.44139  1.0000
  N   N83       1.0  0.26344  0.67159  0.45402  1.0000
  H   H971      1.0  0.48387  0.62990  0.31543  1.0000
  H   H972      1.0  0.24637  0.57806  0.31536  1.0000
  C   C981      1.0  0.25296  0.54685  0.32252  1.0000
  H   H973      1.0  0.32613  0.74801  0.41253  1.0000
  C   C982      1.0  0.25537  0.85230  0.32426  1.0000
  C   C983      1.0  0.26021  0.68237  0.54388  1.0000
  S   S336      1.0  0.27135  0.66000  0.58999  1.0000
  H   H974      1.0  0.28176  0.69111  0.55304  1.0000
  C   C984      1.0  0.28736  0.69157  0.62804  1.0000
  C   C985      1.0  0.27452  0.70168  0.61579  1.0000
  C   C986      1.0  0.26921  0.69198  0.60431  1.0000
  C   C987      1.0  0.27726  0.67233  0.60460  1.0000
  C   C988      1.0  0.29048  0.66242  0.61643  1.0000
  H   H975      1.0  0.24956  0.85607  0.44961  1.0000
  H   H976      1.0  0.26837  0.71683  0.61541  1.0000
  C   C989      1.0  0.32706  0.76350  0.40837  1.0000
  H   H977      1.0  0.29672  0.64725  0.61668  1.0000
  H   H978      1.0  0.35683  0.76673  0.42122  1.0000
  C   C990      1.0  0.29948  0.76823  0.56133  1.0000
  C   C991      1.0  0.29519  0.74991  0.56920  1.0000
  C   C992      1.0  0.29659  0.73741  0.55702  1.0000
  C   C993      1.0  0.30223  0.74316  0.53688  1.0000
  C   C994      1.0  0.30548  0.76186  0.52887  1.0000
  C   C995      1.0  0.30420  0.77436  0.54111  1.0000
  H   H979      1.0  0.29176  0.74492  0.58470  1.0000
  H   H980      1.0  0.29407  0.72294  0.56333  1.0000
  H   H981      1.0  0.30991  0.76636  0.51333  1.0000
  H   H982      1.0  0.30751  0.78855  0.53496  1.0000
  H   H983      1.0  0.32316  0.70952  0.60929  1.0000
  H   H984      1.0  0.39777  0.76858  0.36720  1.0000
  H   H985      1.0  0.31577  0.77176  0.39999  1.0000
  N   N84       1.0  0.34131  0.72914  0.56283  1.0000
  H   H986      1.0  0.32368  0.76934  0.42175  1.0000
  C   C996      1.0  0.38331  0.76781  0.37553  1.0000
  S   S337      1.0  0.24787  0.71530  0.47965  1.0000
  C   C997      1.0  0.33348  0.69870  0.56470  1.0000
  C   C998      1.0  0.26362  0.67458  0.43467  1.0000
  C   C999      1.0  0.27811  0.68260  0.42076  1.0000
  Fe  Fe168     1.0  0.44285  0.71626  0.33260  1.0000
  C   C1000     1.0  0.32822  0.71088  0.59374  1.0000
  S   S338      1.0  0.40244  0.78486  0.32345  1.0000
  C   C1001     1.0  0.27564  0.84783  0.31973  1.0000
  C   C1002     1.0  0.46964  0.62928  0.31411  1.0000
  H   H987      1.0  0.33226  0.68798  0.55745  1.0000
  H   H988      1.0  0.34150  0.75916  0.55803  1.0000
  C   C1003     1.0  0.27032  0.97023  0.41085  1.0000
  H   H989      1.0  0.25730  0.77116  0.44765  1.0000
  H   H990      1.0  0.25907  0.69973  0.59507  1.0000
  H   H991      1.0  0.26875  0.51162  0.31790  1.0000
  Fe  Fe169     1.0  0.42530  0.75885  0.33146  1.0000
  C   C1004     1.0  0.24519  0.72151  0.53284  1.0000
  H   H992      1.0  0.32105  0.68429  0.59319  1.0000
  C   C1005     1.0  0.27768  0.67603  0.46000  1.0000
  H   H993      1.0  0.40707  0.65725  0.32438  1.0000
  C   C1006     1.0  0.29249  0.68388  0.44646  1.0000
  C   C1007     1.0  0.29263  0.68727  0.42674  1.0000
  H   H994      1.0  0.28360  0.84031  0.33104  1.0000
  C   C1008     1.0  0.24842  0.66280  0.46843  1.0000
  H   H995      1.0  0.27746  0.67381  0.47533  1.0000
  H   H996      1.0  0.34514  0.71675  0.53829  1.0000
  H   H997      1.0  0.30382  0.68739  0.45116  1.0000
  H   H998      1.0  0.30401  0.69354  0.41620  1.0000
  C   C1009     1.0  0.26312  0.81144  0.41263  1.0000
  H   H999      1.0  0.37821  0.76839  0.64141  1.0000
  H   H1000     1.0  0.36443  0.74376  0.55001  1.0000
  C   C1010     1.0  0.37872  0.76832  0.39517  1.0000
  C   C1011     1.0  0.35087  0.76452  0.37780  1.0000
  H   H1001     1.0  0.27258  0.82163  0.40686  1.0000
  H   H1002     1.0  0.37296  0.76517  0.35151  1.0000
  H   H1003     1.0  0.25375  0.64697  0.47290  1.0000
  C   C1012     1.0  0.26159  0.71558  0.54097  1.0000
  S   S339      1.0  0.41507  0.73184  0.34834  1.0000
  N   N85       1.0  0.34639  0.76538  0.39700  1.0000
  C   C1013     1.0  0.24668  0.81219  0.31771  1.0000
  Fe  Fe170     1.0  0.46670  0.74231  0.33684  1.0000
  H   H1004     1.0  0.38978  0.76898  0.40226  1.0000
  H   H1005     1.0  0.24379  0.82576  0.39294  1.0000
  C   C1014     1.0  0.26914  0.69589  0.54650  1.0000
  H   H1006     1.0  0.26835  0.72621  0.54302  1.0000
  H   H1007     1.0  0.42106  0.66067  0.33939  1.0000
  C   C1015     1.0  0.33550  0.72708  0.58251  1.0000
  H   H1008     1.0  0.26573  0.66702  0.54861  1.0000
  C   C1016     1.0  0.24384  0.53219  0.35567  1.0000
  C   C1017     1.0  0.29524  0.67192  0.62836  1.0000
  H   H1009     1.0  0.30513  0.66402  0.63782  1.0000
  Fe  Fe171     1.0  0.23938  0.66205  0.59576  1.0000
  H   H1010     1.0  0.25228  0.67117  0.42990  1.0000
  C   C1018     1.0  0.25479  0.78279  0.43541  1.0000
  H   H1011     1.0  0.41101  0.63918  0.34607  1.0000
  C   C1019     1.0  0.25193  0.84654  0.43924  1.0000
  C   C1020     1.0  0.24376  0.68880  0.53576  1.0000
  C   C1021     1.0  0.24594  0.56526  0.32687  1.0000
  H   H1012     1.0  0.24233  0.51936  0.36696  1.0000
  H   H1013     1.0  0.24528  0.50678  0.33034  1.0000
  H   H1014     1.0  0.24346  0.79762  0.32032  1.0000
  C   C1022     1.0  0.41770  0.64946  0.33371  1.0000
  H   H1015     1.0  0.24392  0.66942  0.48144  1.0000
  Fe  Fe172     1.0  0.28736  0.73518  0.63819  1.0000
  C   C1023     1.0  0.25514  0.96125  0.41243  1.0000
  H   H1016     1.0  0.45452  0.64725  0.33466  1.0000
  S   S340      1.0  0.44820  0.68982  0.32019  1.0000
  C   C1024     1.0  0.25800  0.51146  0.33184  1.0000
  C   C1025     1.0  0.24689  0.81375  0.40473  1.0000
  N   N86       1.0  0.25188  0.53061  0.33685  1.0000
  H   H1017     1.0  0.25769  0.72750  0.43737  1.0000
  H   H1018     1.0  0.24252  0.81736  0.63903  1.0000
  S   S341      1.0  0.29358  0.70269  0.64358  1.0000
  H   H1019     1.0  0.40956  0.71207  0.31768  1.0000
  H   H1020     1.0  0.40138  0.82897  0.31962  1.0000
  H   H1021     1.0  0.25755  0.81155  0.32613  1.0000
  H   H1022     1.0  0.23940  0.73685  0.52864  1.0000
  H   H1023     1.0  0.48453  0.75941  0.36221  1.0000
  C   C1026     1.0  0.23891  0.78483  0.42727  1.0000
  S   S342      1.0  0.45143  0.74331  0.31348  1.0000
  H   H1024     1.0  0.23772  0.92432  0.36801  1.0000
  N   N87       1.0  0.23829  0.96483  0.42571  1.0000
  C   C1027     1.0  0.23785  0.56699  0.34602  1.0000
  H   H1025     1.0  0.23755  0.81516  0.45816  1.0000
  Fe  Fe173     1.0  0.29791  0.76825  0.64911  1.0000
  C   C1028     1.0  0.34875  0.73014  0.71010  1.0000
  C   C1029     1.0  0.26066  0.97062  0.82875  1.0000
  H   H1026     1.0  0.26898  0.67206  0.91004  1.0000
  C   C1030     1.0  0.29237  0.67143  0.93297  1.0000
  Fe  Fe174     1.0  0.41961  0.66726  0.85124  1.0000
  S   S343      1.0  0.43786  0.64176  0.83900  1.0000
  S   S344      1.0  0.42429  0.69749  0.83834  1.0000
  Fe  Fe175     1.0  0.39905  0.64223  0.88642  1.0000
  S   S345      1.0  0.41627  0.61455  0.87756  1.0000
  S   S346      1.0  0.37535  0.64138  0.91310  1.0000
  Fe  Fe176     1.0  0.44168  0.62920  0.86961  1.0000
  Fe  Fe177     1.0  0.41067  0.62983  0.84801  1.0000
  S   S347      1.0  0.39820  0.61896  0.82849  1.0000
  S   S348      1.0  0.42477  0.65528  0.88134  1.0000
  S   S349      1.0  0.39205  0.65684  0.85744  1.0000
  Fe  Fe178     1.0  0.32026  0.72562  0.95856  1.0000
  S   S350      1.0  0.29850  0.72091  0.94472  1.0000
  S   S351      1.0  0.35131  0.71944  0.94356  1.0000
  H   H1027     1.0  0.46208  0.65551  0.88193  1.0000
  C   C1031     1.0  0.39051  0.85114  0.75575  1.0000
  C   C1032     1.0  0.34769  0.77201  0.65403  1.0000
  H   H1028     1.0  0.32436  0.54651  0.72920  1.0000
  Fe  Fe179     1.0  0.28264  0.75049  0.94949  1.0000
  S   S352      1.0  0.27064  0.77024  0.92420  1.0000
  C   C1033     1.0  0.26907  0.96642  0.86020  1.0000
  C   C1034     1.0  0.42912  0.61215  0.92378  1.0000
  Fe  Fe180     1.0  0.43101  0.78708  0.71600  1.0000
  S   S353      1.0  0.41386  0.77993  0.74626  1.0000
  Fe  Fe181     1.0  0.40290  0.77609  0.69767  1.0000
  S   S354      1.0  0.38390  0.76798  0.72653  1.0000
  Fe  Fe182     1.0  0.38811  0.79491  0.73262  1.0000
  S   S355      1.0  0.36192  0.81697  0.74229  1.0000
  Fe  Fe183     1.0  0.41135  0.75386  0.73692  1.0000
  S   S356      1.0  0.41544  0.72246  0.75114  1.0000
  S   S357      1.0  0.40549  0.80407  0.70289  1.0000
  S   S358      1.0  0.43030  0.75994  0.70759  1.0000
  Fe  Fe184     1.0  0.30641  0.90166  0.83670  1.0000
  S   S359      1.0  0.27823  0.89329  0.85227  1.0000
  S   S360      1.0  0.30752  0.93338  0.82641  1.0000
  Fe  Fe185     1.0  0.32529  0.86049  0.83097  1.0000
  S   S361      1.0  0.29836  0.84908  0.84524  1.0000
  S   S362      1.0  0.35267  0.83928  0.82239  1.0000
  Fe  Fe186     1.0  0.28324  0.87679  0.82891  1.0000
  C   C1035     1.0  0.38552  0.85637  0.77381  1.0000
  Fe  Fe187     1.0  0.29586  0.86642  0.86729  1.0000
  S   S363      1.0  0.28924  0.85407  0.89938  1.0000
  S   S364      1.0  0.31044  0.88661  0.81228  1.0000
  S   S365      1.0  0.32386  0.87633  0.85400  1.0000
  Fe  Fe188     1.0  0.29792  0.56101  0.84798  1.0000
  S   S366      1.0  0.32351  0.56361  0.82350  1.0000
  S   S367      1.0  0.27966  0.58912  0.85494  1.0000
  Fe  Fe189     1.0  0.31540  0.53999  0.81478  1.0000
  S   S368      1.0  0.31316  0.53749  0.78529  1.0000
  Fe  Fe190     1.0  0.33924  0.53977  0.84362  1.0000
  S   S369      1.0  0.36648  0.54112  0.85204  1.0000
  C   C1036     1.0  0.39847  0.84954  0.78626  1.0000
  N   N88       1.0  0.28108  0.81875  0.70481  1.0000
  H   H1029     1.0  0.24871  0.71907  0.68187  1.0000
  C   C1037     1.0  0.28900  0.53906  0.78462  1.0000
  C   C1038     1.0  0.28450  0.52766  0.77434  1.0000
  C   C1039     1.0  0.26516  0.52859  0.77414  1.0000
  C   C1040     1.0  0.25030  0.54089  0.78425  1.0000
  C   C1041     1.0  0.25485  0.55241  0.79432  1.0000
  C   C1042     1.0  0.27415  0.55164  0.79436  1.0000
  H   H1030     1.0  0.29595  0.51795  0.76674  1.0000
  H   H1031     1.0  0.26179  0.51949  0.76651  1.0000
  C   C1043     1.0  0.24124  0.86974  0.79295  1.0000
  C   C1044     1.0  0.26703  0.58742  0.87900  1.0000
  C   C1045     1.0  0.26563  0.56942  0.89124  1.0000
  H   H1032     1.0  0.24343  0.56208  0.80203  1.0000
  C   C1046     1.0  0.33335  0.77562  0.67030  1.0000
  C   C1047     1.0  0.41912  0.66098  0.93597  1.0000
  C   C1048     1.0  0.47266  0.79628  0.72537  1.0000
  H   H1033     1.0  0.27325  0.55626  0.88626  1.0000
  H   H1034     1.0  0.35253  0.73350  0.67923  1.0000
  H   H1035     1.0  0.41495  0.73303  0.68697  1.0000
  H   H1036     1.0  0.28986  0.96493  0.77641  1.0000
  S   S370      1.0  0.45907  0.79744  0.70821  1.0000
  C   C1049     1.0  0.27018  0.84812  0.80183  1.0000
  H   H1037     1.0  0.41498  0.72277  0.71199  1.0000
  H   H1038     1.0  0.27819  0.90807  0.78832  1.0000
  H   H1039     1.0  0.28226  0.84493  0.80888  1.0000
  C   C1050     1.0  0.35840  0.82137  0.76558  1.0000
  C   C1051     1.0  0.37153  0.81173  0.77758  1.0000
  C   C1052     1.0  0.36925  0.81675  0.79545  1.0000
  C   C1053     1.0  0.35383  0.83138  0.80134  1.0000
  C   C1054     1.0  0.34032  0.84051  0.78966  1.0000
  C   C1055     1.0  0.34265  0.83556  0.77176  1.0000
  H   H1040     1.0  0.38360  0.80068  0.77297  1.0000
  H   H1041     1.0  0.37970  0.80964  0.80449  1.0000
  H   H1042     1.0  0.32834  0.85173  0.79417  1.0000
  H   H1043     1.0  0.33242  0.84298  0.76254  1.0000
  C   C1056     1.0  0.26677  0.81746  0.69467  1.0000
  H   H1044     1.0  0.48128  0.67512  0.88880  1.0000
  C   C1057     1.0  0.24506  0.60339  0.90398  1.0000
  H   H1045     1.0  0.27285  0.80638  0.68552  1.0000
  H   H1046     1.0  0.27850  0.96422  0.88654  1.0000
  H   H1047     1.0  0.27081  0.61511  0.96413  1.0000
  Fe  Fe191     1.0  0.30706  0.51669  0.85553  1.0000
  C   C1058     1.0  0.27508  0.79379  0.91781  1.0000
  C   C1059     1.0  0.41305  0.83460  0.73105  1.0000
  C   C1060     1.0  0.47052  0.73758  0.76475  1.0000
  C   C1061     1.0  0.28298  0.83122  0.90650  1.0000
  C   C1062     1.0  0.28405  0.82034  0.92522  1.0000
  C   C1063     1.0  0.28023  0.80161  0.93084  1.0000
  C   C1064     1.0  0.23952  0.69724  0.94329  1.0000
  S   S371      1.0  0.25772  0.88222  0.81521  1.0000
  H   H1048     1.0  0.28805  0.82635  0.93533  1.0000
  H   H1049     1.0  0.28101  0.79334  0.94532  1.0000
  C   C1065     1.0  0.42155  0.70464  0.81421  1.0000
  C   C1066     1.0  0.42169  0.72380  0.80429  1.0000
  C   C1067     1.0  0.41954  0.72956  0.78493  1.0000
  C   C1068     1.0  0.41757  0.71605  0.77545  1.0000
  C   C1069     1.0  0.41760  0.69691  0.78535  1.0000
  C   C1070     1.0  0.41942  0.69124  0.80475  1.0000
  H   H1050     1.0  0.42320  0.73421  0.81167  1.0000
  H   H1051     1.0  0.41939  0.74438  0.77740  1.0000
  H   H1052     1.0  0.41606  0.68643  0.77806  1.0000
  H   H1053     1.0  0.41917  0.67648  0.81234  1.0000
  C   C1071     1.0  0.38975  0.59711  0.83527  1.0000
  C   C1072     1.0  0.37764  0.59434  0.82458  1.0000
  C   C1073     1.0  0.37029  0.57734  0.82968  1.0000
  C   C1074     1.0  0.37534  0.56275  0.84527  1.0000
  C   C1075     1.0  0.38765  0.56540  0.85582  1.0000
  C   C1076     1.0  0.39467  0.58261  0.85099  1.0000
  H   H1054     1.0  0.37392  0.60542  0.81229  1.0000
  H   H1055     1.0  0.36109  0.57536  0.82125  1.0000
  H   H1056     1.0  0.39176  0.55410  0.86780  1.0000
  H   H1057     1.0  0.40414  0.58450  0.85919  1.0000
  C   C1077     1.0  0.36794  0.66354  0.92082  1.0000
  C   C1078     1.0  0.35209  0.66618  0.93617  1.0000
  C   C1079     1.0  0.34663  0.68352  0.94297  1.0000
  C   C1080     1.0  0.35732  0.69803  0.93473  1.0000
  C   C1081     1.0  0.37313  0.69537  0.91939  1.0000
  C   C1082     1.0  0.37824  0.67829  0.91226  1.0000
  H   H1058     1.0  0.34410  0.65480  0.94288  1.0000
  H   H1059     1.0  0.33444  0.68549  0.95489  1.0000
  H   H1060     1.0  0.38131  0.70663  0.91285  1.0000
  H   H1061     1.0  0.39023  0.67658  0.90019  1.0000
  H   H1062     1.0  0.43987  0.60767  0.91101  1.0000
  S   S372      1.0  0.33394  0.51603  0.83229  1.0000
  C   C1083     1.0  0.35805  0.72668  0.72547  1.0000
  N   N89       1.0  0.40803  0.83957  0.75019  1.0000
  H   H1063     1.0  0.26715  0.51618  0.82295  1.0000
  C   C1084     1.0  0.31892  0.96958  0.86322  1.0000
  C   C1085     1.0  0.45043  0.63241  0.92499  1.0000
  C   C1086     1.0  0.31311  0.96624  0.83309  1.0000
  C   C1087     1.0  0.31323  0.94652  0.84048  1.0000
  C   C1088     1.0  0.31653  0.93821  0.85919  1.0000
  C   C1089     1.0  0.31946  0.94972  0.87049  1.0000
  N   N90       1.0  0.43206  0.62999  0.92711  1.0000
  H   H1064     1.0  0.31056  0.97275  0.81865  1.0000
  H   H1065     1.0  0.31659  0.92301  0.86502  1.0000
  H   H1066     1.0  0.32181  0.94331  0.88503  1.0000
  N   N91       1.0  0.28061  0.65725  0.93515  1.0000
  H   H1067     1.0  0.41851  0.84650  0.71982  1.0000
  C   C1090     1.0  0.26978  0.65940  0.92172  1.0000
  H   H1068     1.0  0.25828  0.61834  0.87614  1.0000
  N   N92       1.0  0.26237  0.97857  0.84457  1.0000
  C   C1091     1.0  0.25902  0.64564  0.92322  1.0000
  H   H1069     1.0  0.42669  0.83274  0.78986  1.0000
  H   H1070     1.0  0.27260  0.95087  0.86126  1.0000
  H   H1071     1.0  0.25213  0.49954  0.82595  1.0000
  H   H1072     1.0  0.33311  0.73281  0.71264  1.0000
  H   H1073     1.0  0.25107  0.61883  0.93987  1.0000
  C   C1092     1.0  0.47331  0.67263  0.83766  1.0000
  C   C1093     1.0  0.28235  0.95496  0.77417  1.0000
  C   C1094     1.0  0.24768  0.83621  0.85062  1.0000
  H   H1074     1.0  0.27104  0.58172  0.75232  1.0000
  C   C1095     1.0  0.24875  0.57303  0.73352  1.0000
  H   H1075     1.0  0.26652  0.97655  0.75453  1.0000
  H   H1076     1.0  0.41647  0.70723  0.69594  1.0000
  N   N93       1.0  0.38873  0.72473  0.70319  1.0000
  H   H1077     1.0  0.28454  0.82546  0.74788  1.0000
  C   C1096     1.0  0.23876  0.85622  0.78387  1.0000
  H   H1078     1.0  0.45087  0.78901  0.75061  1.0000
  C   C1097     1.0  0.37820  0.72376  0.72176  1.0000
  H   H1079     1.0  0.40020  0.83204  0.72745  1.0000
  S   S373      1.0  0.30554  0.75608  0.96126  1.0000
  C   C1098     1.0  0.42111  0.83332  0.76203  1.0000
  H   H1080     1.0  0.46821  0.65123  0.92628  1.0000
  N   N94       1.0  0.33955  0.59752  0.86668  1.0000
  C   C1099     1.0  0.34774  0.58870  0.88244  1.0000
  C   C1100     1.0  0.34239  0.61544  0.85644  1.0000
  C   C1101     1.0  0.35918  0.59785  0.88829  1.0000
  C   C1102     1.0  0.35384  0.62493  0.86182  1.0000
  C   C1103     1.0  0.36219  0.61608  0.87791  1.0000
  C   C1104     1.0  0.32708  0.58792  0.86131  1.0000
  H   H1081     1.0  0.34579  0.57433  0.89028  1.0000
  H   H1082     1.0  0.33624  0.62227  0.84372  1.0000
  H   H1083     1.0  0.36598  0.59071  0.90055  1.0000
  H   H1084     1.0  0.35678  0.63876  0.85319  1.0000
  H   H1085     1.0  0.37125  0.62321  0.88210  1.0000
  H   H1086     1.0  0.33342  0.57222  0.86247  1.0000
  H   H1087     1.0  0.31258  0.58975  0.87100  1.0000
  H   H1088     1.0  0.32533  0.59382  0.84608  1.0000
  H   H1089     1.0  0.25268  0.58473  0.65923  1.0000
  C   C1105     1.0  0.28902  0.82335  0.73305  1.0000
  H   H1090     1.0  0.26052  0.82279  0.73095  1.0000
  H   H1091     1.0  0.38530  0.72104  0.73381  1.0000
  H   H1092     1.0  0.32751  0.78098  0.69911  1.0000
  C   C1106     1.0  0.41646  0.83805  0.78032  1.0000
  C   C1107     1.0  0.30905  0.55222  0.72968  1.0000
  C   C1108     1.0  0.28563  0.93561  0.78367  1.0000
  H   H1093     1.0  0.26940  0.79889  0.88922  1.0000
  H   H1094     1.0  0.43067  0.60036  0.93672  1.0000
  C   C1109     1.0  0.33845  0.77870  0.68630  1.0000
  C   C1110     1.0  0.25344  0.56844  0.90965  1.0000
  C   C1111     1.0  0.27356  0.80484  0.89926  1.0000
  C   C1112     1.0  0.28121  0.64147  0.95012  1.0000
  H   H1095     1.0  0.42439  0.82115  0.73051  1.0000
  S   S374      1.0  0.47140  0.61582  0.87631  1.0000
  H   H1096     1.0  0.37137  0.86503  0.77847  1.0000
  N   N95       1.0  0.26268  0.92961  0.76879  1.0000
  H   H1097     1.0  0.40669  0.67211  0.94006  1.0000
  C   C1113     1.0  0.35965  0.73051  0.69131  1.0000
  N   N96       1.0  0.26966  0.56631  0.73173  1.0000
  C   C1114     1.0  0.27754  0.82348  0.89361  1.0000
  C   C1115     1.0  0.27952  0.55334  0.72021  1.0000
  C   C1116     1.0  0.35769  0.77845  0.68604  1.0000
  C   C1117     1.0  0.29936  0.54616  0.71895  1.0000
  C   C1118     1.0  0.25160  0.91649  0.76672  1.0000
  C   C1119     1.0  0.31580  0.97775  0.84445  1.0000
  S   S375      1.0  0.39664  0.77206  0.67035  1.0000
  H   H1098     1.0  0.27204  0.54840  0.71198  1.0000
  C   C1120     1.0  0.29885  0.56537  0.74145  1.0000
  C   C1121     1.0  0.27249  0.97387  0.87453  1.0000
  H   H1099     1.0  0.28966  0.63986  0.96085  1.0000
  H   H1100     1.0  0.27772  0.82072  0.79280  1.0000
  H   H1101     1.0  0.29391  0.67274  0.94732  1.0000
  H   H1102     1.0  0.34975  0.72641  0.74016  1.0000
  N   N97       1.0  0.33031  0.77905  0.89497  1.0000
  C   C1122     1.0  0.32716  0.79400  0.90419  1.0000
  C   C1123     1.0  0.33506  0.78214  0.87516  1.0000
  C   C1124     1.0  0.32932  0.81248  0.89357  1.0000
  C   C1125     1.0  0.33732  0.80046  0.86408  1.0000
  C   C1126     1.0  0.33446  0.81568  0.87340  1.0000
  C   C1127     1.0  0.32756  0.75991  0.90639  1.0000
  H   H1103     1.0  0.32272  0.79173  0.91985  1.0000
  H   H1104     1.0  0.33715  0.77041  0.86780  1.0000
  H   H1105     1.0  0.32656  0.82439  0.90089  1.0000
  H   H1106     1.0  0.34120  0.80295  0.84836  1.0000
  H   H1107     1.0  0.33606  0.82999  0.86500  1.0000
  H   H1108     1.0  0.33216  0.75687  0.92044  1.0000
  H   H1109     1.0  0.31209  0.75918  0.90936  1.0000
  H   H1110     1.0  0.33638  0.74817  0.89879  1.0000
  C   C1128     1.0  0.25173  0.83845  0.78393  1.0000
  S   S376      1.0  0.30888  0.77629  0.67165  1.0000
  H   H1111     1.0  0.47076  0.67804  0.82265  1.0000
  H   H1112     1.0  0.30698  0.66705  0.92417  1.0000
  S   S377      1.0  0.29364  0.49067  0.87069  1.0000
  H   H1113     1.0  0.26580  0.49707  0.84428  1.0000
  S   S378      1.0  0.27504  0.75075  0.66270  1.0000
  C   C1129     1.0  0.31378  0.81956  0.70440  1.0000
  H   H1114     1.0  0.27753  0.56097  0.80176  1.0000
  H   H1115     1.0  0.30431  0.81558  0.68045  1.0000
  C   C1130     1.0  0.48517  0.63049  0.88026  1.0000
  H   H1116     1.0  0.23773  0.81490  0.83155  1.0000
  H   H1117     1.0  0.46097  0.73273  0.77826  1.0000
  C   C1131     1.0  0.46527  0.79185  0.74533  1.0000
  C   C1132     1.0  0.24461  0.66848  0.97631  1.0000
  C   C1133     1.0  0.25140  0.69840  0.95506  1.0000
  H   H1118     1.0  0.29581  0.93038  0.79326  1.0000
  S   S379      1.0  0.31379  0.53823  0.86863  1.0000
  C   C1134     1.0  0.37214  0.77454  0.66998  1.0000
  C   C1135     1.0  0.26760  0.83445  0.79275  1.0000
  S   S380      1.0  0.28835  0.53961  0.83758  1.0000
  C   C1136     1.0  0.27549  0.82174  0.72340  1.0000
  H   H1119     1.0  0.25796  0.95570  0.83402  1.0000
  C   C1137     1.0  0.29990  0.81788  0.69522  1.0000
  H   H1120     1.0  0.47078  0.78785  0.77393  1.0000
  C   C1138     1.0  0.47695  0.64943  0.88273  1.0000
  C   C1139     1.0  0.45359  0.64928  0.92822  1.0000
  C   C1140     1.0  0.41651  0.64379  0.93297  1.0000
  H   H1121     1.0  0.24889  0.95393  0.75020  1.0000
  C   C1141     1.0  0.26919  0.96150  0.76192  1.0000
  C   C1142     1.0  0.24007  0.71449  0.65769  1.0000
  C   C1143     1.0  0.26603  0.50078  0.82847  1.0000
  C   C1144     1.0  0.25675  0.86565  0.80216  1.0000
  H   H1122     1.0  0.26222  0.83171  0.68525  1.0000
  C   C1145     1.0  0.25929  0.94862  0.75952  1.0000
  C   C1146     1.0  0.25430  0.68377  0.97134  1.0000
  H   H1123     1.0  0.25997  0.82621  0.84339  1.0000
  H   H1124     1.0  0.27433  0.97011  0.81765  1.0000
  H   H1125     1.0  0.31901  0.82322  0.73086  1.0000
  H   H1126     1.0  0.46537  0.68381  0.84632  1.0000
  H   H1127     1.0  0.25370  0.81326  0.70495  1.0000
  C   C1147     1.0  0.24275  0.58543  0.91583  1.0000
  H   H1128     1.0  0.39439  0.85294  0.80060  1.0000
  H   H1129     1.0  0.27613  0.83193  0.87940  1.0000
  H   H1130     1.0  0.25326  0.84909  0.85025  1.0000
  C   C1148     1.0  0.47658  0.79115  0.75850  1.0000
  H   H1131     1.0  0.41455  0.61416  0.92069  1.0000
  H   H1132     1.0  0.32875  0.81858  0.69683  1.0000
  H   H1133     1.0  0.24994  0.64775  0.91292  1.0000
  C   C1149     1.0  0.30831  0.82216  0.72349  1.0000
  C   C1150     1.0  0.36709  0.77138  0.65392  1.0000
  H   H1134     1.0  0.28552  0.68611  0.92591  1.0000
  C   C1151     1.0  0.27060  0.62744  0.95206  1.0000
  C   C1152     1.0  0.25948  0.62954  0.93847  1.0000
  H   H1135     1.0  0.25869  0.71038  0.95124  1.0000
  H   H1136     1.0  0.30710  0.53584  0.70983  1.0000
  C   C1153     1.0  0.25708  0.60439  0.88554  1.0000
  H   H1137     1.0  0.46683  0.65970  0.84438  1.0000
  H   H1138     1.0  0.36131  0.78108  0.69838  1.0000
  C   C1154     1.0  0.27899  0.57212  0.74251  1.0000
  C   C1155     1.0  0.43781  0.66373  0.93350  1.0000
  C   C1156     1.0  0.37974  0.72790  0.68808  1.0000
  C   C1157     1.0  0.40982  0.72174  0.69935  1.0000
  C   C1158     1.0  0.27559  0.92306  0.78082  1.0000
  H   H1139     1.0  0.30616  0.56968  0.75033  1.0000
  H   H1140     1.0  0.46277  0.62141  0.92045  1.0000
  H   H1141     1.0  0.43518  0.82451  0.75744  1.0000
  H   H1142     1.0  0.25184  0.55450  0.91887  1.0000
  H   H1143     1.0  0.38006  0.85594  0.74643  1.0000
  H   H1144     1.0  0.40194  0.64170  0.93511  1.0000
  H   H1145     1.0  0.38806  0.72902  0.67333  1.0000
  H   H1146     1.0  0.44008  0.67705  0.93565  1.0000
  H   H1147     1.0  0.24124  0.56289  0.74532  1.0000
  H   H1148     1.0  0.24303  0.82909  0.86597  1.0000
  H   H1149     1.0  0.33006  0.48486  0.79930  1.0000
  H   H1150     1.0  0.24387  0.58773  0.73682  1.0000
  C   C1159     1.0  0.46456  0.74141  0.74722  1.0000
  H   H1151     1.0  0.24867  0.97972  0.82166  1.0000
  H   H1152     1.0  0.26004  0.90135  0.76831  1.0000
  H   H1153     1.0  0.45038  0.73956  0.74705  1.0000
  H   H1154     1.0  0.24438  0.57382  0.71978  1.0000
  H   H1155     1.0  0.23811  0.91688  0.77803  1.0000
  H   H1156     1.0  0.25258  0.70314  0.65460  1.0000
  Fe  Fe192     1.0  0.28359  0.71029  0.97507  1.0000
  S   S381      1.0  0.24734  0.82108  0.77384  1.0000
  H   H1157     1.0  0.23768  0.70836  0.93044  1.0000
  H   H1158     1.0  0.24774  0.92060  0.75222  1.0000
  H   H1159     1.0  0.24021  0.84603  0.65225  1.0000
  C   C1160     1.0  0.30013  0.49292  0.81285  1.0000
  H   H1160     1.0  0.30207  0.50611  0.81554  1.0000
  H   H1161     1.0  0.47223  0.75125  0.71625  1.0000
  C   C1161     1.0  0.47689  0.74773  0.72993  1.0000
  S   S382      1.0  0.24255  0.55395  0.69108  1.0000
  S   S383      1.0  0.24143  0.51619  0.73887  1.0000
  C   C1162     1.0  0.23777  0.72330  0.67316  1.0000
  N   N98       1.0  0.28241  0.48807  0.81855  1.0000
  H   H1162     1.0  0.64745  0.22899  0.27006  1.0000
  C   C1163     1.0  0.63763  0.17689  0.22701  1.0000
  C   C1164     1.0  0.70176  0.42834  0.20782  1.0000
  C   C1165     1.0  0.72910  0.29221  0.16456  1.0000
  S   S384      1.0  0.73191  0.20125  0.09711  1.0000
  C   C1166     1.0  0.71476  0.27943  0.19843  1.0000
  H   H1163     1.0  0.52771  0.23577  0.15925  1.0000
  H   H1164     1.0  0.64254  0.11203  0.21413  1.0000
  H   H1165     1.0  0.66988  0.43937  0.25414  1.0000
  S   S385      1.0  0.67699  0.13830  0.99136  1.0000
  C   C1167     1.0  0.68376  0.43426  0.25830  1.0000
  H   H1166     1.0  0.51856  0.15266  0.28309  1.0000
  C   C1168     1.0  0.72467  0.20889  0.04904  1.0000
  Fe  Fe193     1.0  0.70197  0.03056  0.22530  1.0000
  S   S386      1.0  0.68984  0.00357  0.23505  1.0000
  S   S387      1.0  0.68681  0.05582  0.20572  1.0000
  Fe  Fe194     1.0  0.69495  0.00335  0.26404  1.0000
  Fe  Fe195     1.0  0.72062  0.98775  0.22933  1.0000
  C   C1169     1.0  0.57999  0.16987  0.25599  1.0000
  C   C1170     1.0  0.67485  0.40304  0.30425  1.0000
  S   S388      1.0  0.70444  0.03176  0.25504  1.0000
  H   H1167     1.0  0.54740  0.25897  0.13814  1.0000
  Fe  Fe196     1.0  0.72469  0.13041  0.12063  1.0000
  S   S389      1.0  0.70179  0.12774  0.10681  1.0000
  C   C1171     1.0  0.50930  0.24275  0.20944  1.0000
  C   C1172     1.0  0.73177  0.10656  0.98624  1.0000
  S   S390      1.0  0.69691  0.17483  0.08949  1.0000
  Fe  Fe197     1.0  0.68588  0.15516  0.11707  1.0000
  S   S391      1.0  0.65604  0.15825  0.13548  1.0000
  Fe  Fe198     1.0  0.71512  0.14757  0.08044  1.0000
  H   H1168     1.0  0.67212  0.02756  0.19402  1.0000
  S   S392      1.0  0.70804  0.15668  0.13245  1.0000
  H   H1169     1.0  0.52076  0.16576  0.29989  1.0000
  Fe  Fe199     1.0  0.62828  0.22832  0.22201  1.0000
  S   S393      1.0  0.60494  0.25025  0.23581  1.0000
  S   S394      1.0  0.64788  0.20492  0.23886  1.0000
  Fe  Fe200     1.0  0.61965  0.24529  0.18211  1.0000
  S   S395      1.0  0.59561  0.26896  0.19200  1.0000
  S   S396      1.0  0.62907  0.24313  0.15073  1.0000
  Fe  Fe201     1.0  0.61580  0.27158  0.20943  1.0000
  S   S397      1.0  0.62067  0.30077  0.20958  1.0000
  Fe  Fe202     1.0  0.58672  0.24581  0.21737  1.0000
  S   S398      1.0  0.55755  0.23756  0.22923  1.0000
  S   S399      1.0  0.64055  0.24991  0.19715  1.0000
  S   S400      1.0  0.60927  0.22192  0.20610  1.0000
  C   C1173     1.0  0.72129  0.06708  0.18797  1.0000
  C   C1174     1.0  0.72948  0.10425  0.00624  1.0000
  H   H1170     1.0  0.73589  0.36203  0.26876  1.0000
  Fe  Fe203     1.0  0.70092  0.37193  0.24333  1.0000
  S   S401      1.0  0.70780  0.34215  0.26185  1.0000
  S   S402      1.0  0.68214  0.39897  0.25318  1.0000
  N   N99       1.0  0.54203  0.16743  0.27395  1.0000
  H   H1171     1.0  0.65118  0.17155  0.26957  1.0000
  Fe  Fe204     1.0  0.70312  0.33137  0.23747  1.0000
  S   S403      1.0  0.69220  0.30400  0.24169  1.0000
  S   S404      1.0  0.67569  0.99163  0.29141  1.0000
  S   S405      1.0  0.69343  0.36118  0.22049  1.0000
  N   N100      1.0  0.67241  0.10619  0.21496  1.0000
  H   H1172     1.0  0.65754  0.08619  0.23661  1.0000
  C   C1175     1.0  0.71123  0.40846  0.26400  1.0000
  C   C1176     1.0  0.71908  0.42095  0.27003  1.0000
  H   H1173     1.0  0.71867  0.39363  0.26421  1.0000
  C   C1177     1.0  0.70962  0.31410  0.18443  1.0000
  H   H1174     1.0  0.66781  0.10116  0.24557  1.0000
  H   H1175     1.0  0.68299  0.08104  0.23486  1.0000
  H   H1176     1.0  0.70693  0.12536  0.18025  1.0000
  C   C1178     1.0  0.52783  0.09308  0.30592  1.0000
  H   H1177     1.0  0.64638  0.13395  0.18170  1.0000
  C   C1179     1.0  0.64611  0.21813  0.28343  1.0000
  C   C1180     1.0  0.53932  0.24616  0.21550  1.0000
  C   C1181     1.0  0.54016  0.26182  0.19971  1.0000
  C   C1182     1.0  0.52549  0.26801  0.18892  1.0000
  C   C1183     1.0  0.51012  0.25837  0.19363  1.0000
  H   H1178     1.0  0.55200  0.26925  0.19593  1.0000
  H   H1179     1.0  0.52617  0.28015  0.17675  1.0000
  C   C1184     1.0  0.64076  0.30151  0.21826  1.0000
  C   C1185     1.0  0.64541  0.31941  0.21656  1.0000
  C   C1186     1.0  0.66118  0.32043  0.22362  1.0000
  C   C1187     1.0  0.67228  0.30351  0.23259  1.0000
  C   C1188     1.0  0.66772  0.28560  0.23418  1.0000
  C   C1189     1.0  0.65207  0.28457  0.22697  1.0000
  H   H1180     1.0  0.63667  0.33256  0.20988  1.0000
  H   H1181     1.0  0.66452  0.33430  0.22237  1.0000
  H   H1182     1.0  0.67626  0.27247  0.24112  1.0000
  H   H1183     1.0  0.64856  0.27073  0.22840  1.0000
  C   C1190     1.0  0.64749  0.18194  0.13916  1.0000
  C   C1191     1.0  0.65274  0.19755  0.12473  1.0000
  C   C1192     1.0  0.64662  0.21638  0.12823  1.0000
  C   C1193     1.0  0.63559  0.21958  0.14631  1.0000
  C   C1194     1.0  0.63018  0.20396  0.16062  1.0000
  C   C1195     1.0  0.63598  0.18519  0.15701  1.0000
  H   H1184     1.0  0.66134  0.19515  0.11078  1.0000
  H   H1185     1.0  0.65064  0.22843  0.11699  1.0000
  H   H1186     1.0  0.62138  0.20623  0.17439  1.0000
  H   H1187     1.0  0.63179  0.17316  0.16816  1.0000
  S   S406      1.0  0.71917  0.45524  0.27853  1.0000
  H   H1188     1.0  0.53985  0.21203  0.18681  1.0000
  Fe  Fe205     1.0  0.73404  0.01370  0.24731  1.0000
  H   H1189     1.0  0.72465  0.26558  0.19572  1.0000
  H   H1190     1.0  0.51154  0.17848  0.27817  1.0000
  C   C1196     1.0  0.70181  0.06954  0.18769  1.0000
  N   N101      1.0  0.70851  0.44440  0.21068  1.0000
  H   H1191     1.0  0.67865  0.14048  0.16469  1.0000
  H   H1192     1.0  0.71629  0.20998  0.06346  1.0000
  C   C1197     1.0  0.70585  0.09394  0.15792  1.0000
  C   C1198     1.0  0.69411  0.08298  0.17264  1.0000
  C   C1199     1.0  0.73675  0.21041  0.11494  1.0000
  C   C1200     1.0  0.64118  0.15004  0.26167  1.0000
  H   H1193     1.0  0.69976  0.10435  0.14645  1.0000
  H   H1194     1.0  0.67902  0.08498  0.17237  1.0000
  C   C1201     1.0  0.52376  0.23679  0.22041  1.0000
  C   C1202     1.0  0.70976  0.14589  0.03357  1.0000
  C   C1203     1.0  0.71655  0.15062  0.01351  1.0000
  C   C1204     1.0  0.70615  0.14909  0.00056  1.0000
  C   C1205     1.0  0.68894  0.14247  0.00753  1.0000
  C   C1206     1.0  0.68183  0.13806  0.02765  1.0000
  C   C1207     1.0  0.69217  0.13989  0.04069  1.0000
  C   C1208     1.0  0.64598  0.16808  0.25857  1.0000
  C   C1209     1.0  0.70586  0.47866  0.20635  1.0000
  H   H1195     1.0  0.66849  0.13289  0.03315  1.0000
  H   H1196     1.0  0.68686  0.13602  0.05616  1.0000
  C   C1210     1.0  0.69340  0.41497  0.25847  1.0000
  S   S407      1.0  0.60215  0.13918  0.30061  1.0000
  S   S408      1.0  0.73247  0.01469  0.21680  1.0000
  C   C1211     1.0  0.68512  0.36804  0.30586  1.0000
  H   H1197     1.0  0.70985  0.18808  0.04616  1.0000
  C   C1212     1.0  0.65670  0.11491  0.20672  1.0000
  C   C1213     1.0  0.67684  0.13128  0.17902  1.0000
  Fe  Fe206     1.0  0.72068  0.17382  0.10402  1.0000
  C   C1214     1.0  0.69187  0.44694  0.26379  1.0000
  C   C1215     1.0  0.69267  0.12283  0.18780  1.0000
  N   N102      1.0  0.68466  0.21886  0.15463  1.0000
  C   C1216     1.0  0.68457  0.22552  0.17053  1.0000
  C   C1217     1.0  0.68139  0.20078  0.15672  1.0000
  C   C1218     1.0  0.68134  0.21388  0.18911  1.0000
  C   C1219     1.0  0.67788  0.18885  0.17510  1.0000
  C   C1220     1.0  0.67793  0.19546  0.19136  1.0000
  C   C1221     1.0  0.68719  0.23164  0.13543  1.0000
  H   H1198     1.0  0.68685  0.23997  0.16890  1.0000
  H   H1199     1.0  0.68132  0.19554  0.14416  1.0000
  H   H1200     1.0  0.68106  0.21922  0.20175  1.0000
  H   H1201     1.0  0.67492  0.17470  0.17667  1.0000
  H   H1202     1.0  0.67515  0.18646  0.20575  1.0000
  H   H1203     1.0  0.67331  0.24194  0.13365  1.0000
  H   H1204     1.0  0.69857  0.23986  0.13360  1.0000
  H   H1205     1.0  0.69181  0.22332  0.12365  1.0000
  H   H1206     1.0  0.71714  0.28225  0.21181  1.0000
  H   H1207     1.0  0.73039  0.15460  0.00799  1.0000
  C   C1222     1.0  0.54682  0.18519  0.26668  1.0000
  H   H1208     1.0  0.62385  0.20819  0.27704  1.0000
  C   C1223     1.0  0.61769  0.17954  0.30754  1.0000
  S   S409      1.0  0.72485  0.98541  0.25905  1.0000
  H   H1209     1.0  0.68777  0.46585  0.19667  1.0000
  H   H1210     1.0  0.69341  0.04633  0.16449  1.0000
  H   H1211     1.0  0.69951  0.35808  0.30410  1.0000
  H   H1212     1.0  0.56962  0.20076  0.25191  1.0000
  C   C1224     1.0  0.55587  0.15089  0.27263  1.0000
  H   H1213     1.0  0.55221  0.13682  0.27884  1.0000
  C   C1225     1.0  0.73203  0.30760  0.14884  1.0000
  C   C1226     1.0  0.70941  0.44022  0.26999  1.0000
  C   C1227     1.0  0.64298  0.04267  0.30414  1.0000
  N   N103      1.0  0.57046  0.24836  0.15349  1.0000
  C   C1228     1.0  0.57739  0.23510  0.16842  1.0000
  C   C1229     1.0  0.55302  0.24843  0.14989  1.0000
  C   C1230     1.0  0.56658  0.22176  0.18057  1.0000
  C   C1231     1.0  0.54188  0.23519  0.16166  1.0000
  C   C1232     1.0  0.54869  0.22186  0.17715  1.0000
  C   C1233     1.0  0.58220  0.26210  0.14103  1.0000
  H   H1214     1.0  0.59126  0.23500  0.17113  1.0000
  C   C1234     1.0  0.65655  0.02898  0.29440  1.0000
  H   H1215     1.0  0.57181  0.21180  0.19286  1.0000
  H   H1216     1.0  0.55547  0.09982  0.30245  1.0000
  C   C1235     1.0  0.73169  0.19486  0.02089  1.0000
  H   H1217     1.0  0.59442  0.25457  0.13118  1.0000
  H   H1218     1.0  0.57363  0.27442  0.13224  1.0000
  H   H1219     1.0  0.58834  0.26826  0.14995  1.0000
  C   C1236     1.0  0.56585  0.18666  0.25759  1.0000
  S   S410      1.0  0.62658  0.12375  0.25223  1.0000
  Fe  Fe207     1.0  0.72472  0.35931  0.20663  1.0000
  C   C1237     1.0  0.65870  0.12744  0.18855  1.0000
  H   H1220     1.0  0.68419  0.46169  0.26389  1.0000
  H   H1221     1.0  0.62839  0.15502  0.21878  1.0000
  H   H1222     1.0  0.67702  0.00196  0.19565  1.0000
  C   C1238     1.0  0.69018  0.11023  0.20589  1.0000
  H   H1223     1.0  0.67155  0.01816  0.17359  1.0000
  H   H1224     1.0  0.73261  0.41561  0.27490  1.0000
  S   S411      1.0  0.59427  0.09756  0.29851  1.0000
  H   H1225     1.0  0.70932  0.41404  0.21492  1.0000
  C   C1239     1.0  0.63459  0.14540  0.24745  1.0000
  H   H1226     1.0  0.70265  0.10325  0.21237  1.0000
  C   C1240     1.0  0.54026  0.10360  0.30828  1.0000
  H   H1227     1.0  0.69962  0.27769  0.20111  1.0000
  C   C1241     1.0  0.57498  0.15186  0.26349  1.0000
  H   H1228     1.0  0.66515  0.03371  0.28033  1.0000
  H   H1229     1.0  0.73206  0.04239  0.27301  1.0000
  C   C1242     1.0  0.72353  0.44083  0.21987  1.0000
  C   C1243     1.0  0.64360  0.18177  0.24153  1.0000
  Fe  Fe208     1.0  0.61673  0.11536  0.28448  1.0000
  H   H1230     1.0  0.63647  0.18710  0.21352  1.0000
  H   H1231     1.0  0.64259  0.13972  0.27511  1.0000
  H   H1232     1.0  0.49756  0.23517  0.21320  1.0000
  C   C1244     1.0  0.67012  0.09304  0.23396  1.0000
  H   H1233     1.0  0.73582  0.27755  0.16265  1.0000
  H   H1234     1.0  0.71702  0.09919  0.01594  1.0000
  H   H1235     1.0  0.53596  0.19836  0.26791  1.0000
  C   C1245     1.0  0.63335  0.15861  0.22987  1.0000
  C   C1246     1.0  0.52224  0.16608  0.28426  1.0000
  H   H1236     1.0  0.72596  0.33862  0.13916  1.0000
  H   H1237     1.0  0.52296  0.22471  0.23263  1.0000
  C   C1247     1.0  0.72090  0.19654  0.03935  1.0000
  C   C1248     1.0  0.70448  0.03340  0.16711  1.0000
  C   C1249     1.0  0.73301  0.00069  0.17417  1.0000
  N   N104      1.0  0.71809  0.29561  0.18210  1.0000
  H   H1238     1.0  0.72732  0.05687  0.19960  1.0000
  S   S412      1.0  0.73150  0.37233  0.22794  1.0000
  C   C1250     1.0  0.73180  0.20251  0.13475  1.0000
  H   H1239     1.0  0.70091  0.31678  0.19834  1.0000
  H   H1240     1.0  0.66840  0.22461  0.29348  1.0000
  C   C1251     1.0  0.67905  0.01594  0.18565  1.0000
  H   H1241     1.0  0.64123  0.05791  0.29757  1.0000
  S   S413      1.0  0.73402  0.32874  0.22169  1.0000
  C   C1252     1.0  0.72533  0.09157  0.15823  1.0000
  C   C1253     1.0  0.65881  0.00922  0.30291  1.0000
  H   H1242     1.0  0.58588  0.13870  0.26246  1.0000
  C   C1254     1.0  0.73570  0.21071  0.14841  1.0000
  C   C1255     1.0  0.72108  0.47513  0.21579  1.0000
  H   H1243     1.0  0.59481  0.17082  0.24909  1.0000
  H   H1244     1.0  0.72999  0.37839  0.29590  1.0000
  H   H1245     1.0  0.71188  0.15219  0.98519  1.0000
  N   N105      1.0  0.69951  0.01645  0.17790  1.0000
  C   C1256     1.0  0.73303  0.07805  0.17324  1.0000
  S   S414      1.0  0.72504  0.14564  0.04877  1.0000
  H   H1246     1.0  0.62500  0.16708  0.30047  1.0000
  C   C1257     1.0  0.72342  0.32651  0.15110  1.0000
  H   H1247     1.0  0.70427  0.42845  0.19212  1.0000
  H   H1248     1.0  0.72117  0.10312  0.98040  1.0000
  C   C1258     1.0  0.69968  0.46302  0.20394  1.0000
  H   H1249     1.0  0.72774  0.04820  0.15185  1.0000
  C   C1259     1.0  0.65793  0.21556  0.29649  1.0000
  C   C1260     1.0  0.67644  0.42021  0.30822  1.0000
  C   C1261     1.0  0.71346  0.00013  0.18126  1.0000
  S   S415      1.0  0.49262  0.26539  0.17908  1.0000
  H   H1250     1.0  0.66502  0.40373  0.29511  1.0000
  C   C1262     1.0  0.63272  0.20632  0.28747  1.0000
  H   H1251     1.0  0.70958  0.98660  0.18967  1.0000
  C   C1263     1.0  0.71219  0.32983  0.16901  1.0000
  C   C1264     1.0  0.72993  0.45613  0.22271  1.0000
  H   H1252     1.0  0.72492  0.19020  0.13952  1.0000
  H   H1253     1.0  0.70587  0.34453  0.17104  1.0000
  H   H1254     1.0  0.68056  0.37126  0.29174  1.0000
  H   H1255     1.0  0.73044  0.42610  0.22538  1.0000
  C   C1265     1.0  0.72389  0.03452  0.15989  1.0000
  H   H1256     1.0  0.73260  0.05916  0.29843  1.0000
  S   S416      1.0  0.73354  0.37221  0.17520  1.0000
  N   N106      1.0  0.63112  0.19237  0.30409  1.0000
  H   H1257     1.0  0.60455  0.18722  0.30169  1.0000
  H   H1258     1.0  0.72899  0.18523  0.01333  1.0000
  N   N107      1.0  0.68622  0.38578  0.31094  1.0000
  H   H1259     1.0  0.73179  0.20470  0.16374  1.0000
  H   H1260     1.0  0.68612  0.42944  0.21435  1.0000
  S   S417      1.0  0.63638  0.09967  0.30497  1.0000
  H   H1261     1.0  0.66797  0.43398  0.30223  1.0000
  H   H1262     1.0  0.53370  0.08119  0.29842  1.0000
  H   H1263     1.0  0.73111  0.23524  0.06321  1.0000
  Fe  Fe209     1.0  0.71577  0.14549  0.57301  1.0000
  S   S418      1.0  0.69996  0.17493  0.57819  1.0000
  H   H1264     1.0  0.72384  0.17365  0.48084  1.0000
  Fe  Fe210     1.0  0.68219  0.13431  0.46078  1.0000
  S   S419      1.0  0.67721  0.16244  0.43942  1.0000
  S   S420      1.0  0.67168  0.13134  0.49321  1.0000
  Fe  Fe211     1.0  0.70103  0.11146  0.42902  1.0000
  S   S421      1.0  0.69859  0.13760  0.40497  1.0000
  H   H1265     1.0  0.61297  0.17380  0.32331  1.0000
  Fe  Fe212     1.0  0.70756  0.15158  0.42440  1.0000
  H   H1266     1.0  0.62531  0.01202  0.34479  1.0000
  Fe  Fe213     1.0  0.66862  0.14596  0.42194  1.0000
  S   S422      1.0  0.64156  0.15460  0.40962  1.0000
  H   H1267     1.0  0.66662  0.12981  0.53391  1.0000
  S   S423      1.0  0.67059  0.11893  0.44493  1.0000
  H   H1268     1.0  0.68506  0.07927  0.32718  1.0000
  Fe  Fe214     1.0  0.71872  0.13031  0.61566  1.0000
  S   S424      1.0  0.64219  0.13547  0.32948  1.0000
  Fe  Fe215     1.0  0.62059  0.12249  0.32229  1.0000
  N   N108      1.0  0.55626  0.05912  0.33923  1.0000
  S   S425      1.0  0.54850  0.13159  0.32230  1.0000
  H   H1269     1.0  0.66500  0.09131  0.34276  1.0000
  C   C1266     1.0  0.67997  0.09183  0.33443  1.0000
  C   C1267     1.0  0.67479  0.18203  0.50043  1.0000
  N   N109      1.0  0.69283  0.09135  0.34702  1.0000
  S   S426      1.0  0.59786  0.10578  0.34004  1.0000
  C   C1268     1.0  0.72089  0.22486  0.62587  1.0000
  S   S427      1.0  0.69745  0.12966  0.59873  1.0000
  C   C1269     1.0  0.69242  0.20714  0.48804  1.0000
  C   C1270     1.0  0.64741  0.00319  0.32101  1.0000
  H   H1270     1.0  0.71847  0.08074  0.32755  1.0000
  H   H1271     1.0  0.67363  0.20053  0.45285  1.0000
  C   C1271     1.0  0.50050  0.11289  0.32324  1.0000
  H   H1272     1.0  0.50718  0.13532  0.33314  1.0000
  H   H1273     1.0  0.57581  0.07340  0.34434  1.0000
  S   S428      1.0  0.72700  0.14120  0.54218  1.0000
  H   H1274     1.0  0.69362  0.22086  0.45786  1.0000
  H   H1275     1.0  0.68789  0.13402  0.55342  1.0000
  H   H1276     1.0  0.69096  0.20252  0.52618  1.0000
  C   C1272     1.0  0.63174  0.03654  0.32236  1.0000
  S   S429      1.0  0.61471  0.05304  0.33514  1.0000
  H   H1277     1.0  0.71972  0.23720  0.59606  1.0000
  H   H1278     1.0  0.67465  0.36058  0.31728  1.0000
  S   S430      1.0  0.72603  0.10553  0.64001  1.0000
  H   H1279     1.0  0.70710  0.37118  0.32838  1.0000
  H   H1280     1.0  0.67301  0.13362  0.64163  1.0000
  H   H1281     1.0  0.71997  0.06459  0.45882  1.0000
  H   H1282     1.0  0.69147  0.10314  0.38933  1.0000
  C   C1273     1.0  0.72580  0.17267  0.45116  1.0000
  H   H1283     1.0  0.71055  0.21594  0.62770  1.0000
  H   H1284     1.0  0.50768  0.06897  0.35432  1.0000
  H   H1285     1.0  0.66958  0.17097  0.51224  1.0000
  C   C1274     1.0  0.64287  0.18952  0.31683  1.0000
  C   C1275     1.0  0.72980  0.22359  0.64100  1.0000
  C   C1276     1.0  0.64222  0.14770  0.38796  1.0000
  C   C1277     1.0  0.65894  0.14666  0.37339  1.0000
  C   C1278     1.0  0.65867  0.14275  0.35561  1.0000
  C   C1279     1.0  0.64192  0.13919  0.35248  1.0000
  C   C1280     1.0  0.62533  0.13975  0.36717  1.0000
  C   C1281     1.0  0.62542  0.14428  0.38476  1.0000
  H   H1286     1.0  0.67185  0.14959  0.37557  1.0000
  H   H1287     1.0  0.67151  0.14256  0.34422  1.0000
  H   H1288     1.0  0.61229  0.13720  0.36485  1.0000
  H   H1289     1.0  0.61241  0.14520  0.39594  1.0000
  C   C1282     1.0  0.71740  0.09236  0.36989  1.0000
  C   C1283     1.0  0.72935  0.17959  0.46583  1.0000
  H   H1290     1.0  0.58058  0.03586  0.33817  1.0000
  C   C1284     1.0  0.51299  0.12357  0.32545  1.0000
  C   C1285     1.0  0.71152  0.13786  0.52907  1.0000
  C   C1286     1.0  0.71798  0.13861  0.50911  1.0000
  C   C1287     1.0  0.70587  0.13659  0.49802  1.0000
  C   C1288     1.0  0.68733  0.13343  0.50688  1.0000
  C   C1289     1.0  0.68097  0.13228  0.52694  1.0000
  C   C1290     1.0  0.69296  0.13471  0.53800  1.0000
  C   C1291     1.0  0.68551  0.07721  0.48006  1.0000
  H   H1291     1.0  0.71093  0.13739  0.48263  1.0000
  H   H1292     1.0  0.68159  0.06382  0.48989  1.0000
  S   S431      1.0  0.71308  0.12431  0.44687  1.0000
  H   H1293     1.0  0.66556  0.19886  0.32352  1.0000
  S   S432      1.0  0.70358  0.15868  0.62396  1.0000
  C   C1292     1.0  0.67679  0.19870  0.46702  1.0000
  Fe  Fe216     1.0  0.61237  0.08434  0.32090  1.0000
  H   H1294     1.0  0.73304  0.26755  0.57974  1.0000
  N   N110      1.0  0.68610  0.19302  0.50296  1.0000
  Fe  Fe217     1.0  0.68339  0.15901  0.60543  1.0000
  C   C1293     1.0  0.72494  0.08590  0.35254  1.0000
  H   H1295     1.0  0.72696  0.09283  0.37880  1.0000
  C   C1294     1.0  0.68789  0.21018  0.46986  1.0000
  C   C1295     1.0  0.64070  0.16959  0.63818  1.0000
  C   C1296     1.0  0.72336  0.08914  0.49825  1.0000
  C   C1297     1.0  0.69747  0.09820  0.37577  1.0000
  C   C1298     1.0  0.70062  0.40183  0.32661  1.0000
  C   C1299     1.0  0.70551  0.08725  0.49626  1.0000
  H   H1296     1.0  0.67414  0.08991  0.48376  1.0000
  H   H1297     1.0  0.70807  0.18145  0.51920  1.0000
  C   C1300     1.0  0.67005  0.18461  0.48243  1.0000
  C   C1301     1.0  0.65634  0.20115  0.31332  1.0000
  C   C1302     1.0  0.52722  0.08344  0.35991  1.0000
  S   S433      1.0  0.65101  0.16411  0.61511  1.0000
  C   C1303     1.0  0.63395  0.01681  0.33071  1.0000
  S   S434      1.0  0.70962  0.08153  0.42305  1.0000
  H   H1298     1.0  0.55016  0.09566  0.36212  1.0000
  H   H1299     1.0  0.58140  0.05516  0.31706  1.0000
  H   H1300     1.0  0.51584  0.09339  0.36737  1.0000
  H   H1301     1.0  0.53361  0.04740  0.33618  1.0000
  H   H1302     1.0  0.66155  0.17542  0.48040  1.0000
  C   C1304     1.0  0.52265  0.06971  0.35264  1.0000
  H   H1303     1.0  0.66985  0.10231  0.36876  1.0000
  H   H1304     1.0  0.71750  0.16156  0.45485  1.0000
  C   C1305     1.0  0.53298  0.11871  0.31831  1.0000
  C   C1306     1.0  0.53743  0.05760  0.34226  1.0000
  H   H1305     1.0  0.64623  0.12040  0.64336  1.0000
  C   C1307     1.0  0.68974  0.41961  0.31911  1.0000
  H   H1306     1.0  0.73236  0.14098  0.50214  1.0000
  H   H1307     1.0  0.66504  0.17934  0.64072  1.0000
  H   H1308     1.0  0.69180  0.43293  0.32146  1.0000
  H   H1309     1.0  0.68429  0.17936  0.53303  1.0000
  N   N111      1.0  0.70437  0.07903  0.48188  1.0000
  H   H1310     1.0  0.73062  0.05090  0.40362  1.0000
  C   C1308     1.0  0.69261  0.18892  0.52126  1.0000
  C   C1309     1.0  0.68532  0.09762  0.36409  1.0000
  S   S435      1.0  0.72864  0.17151  0.41326  1.0000
  Fe  Fe218     1.0  0.72170  0.17150  0.59619  1.0000
  C   C1310     1.0  0.54646  0.08474  0.35694  1.0000
  H   H1311     1.0  0.68562  0.07671  0.46491  1.0000
  C   C1311     1.0  0.56089  0.07228  0.34664  1.0000
  C   C1312     1.0  0.57173  0.04648  0.32826  1.0000
  C   C1313     1.0  0.72079  0.07172  0.46979  1.0000
  H   H1312     1.0  0.70162  0.21566  0.48994  1.0000
  C   C1314     1.0  0.71239  0.08560  0.34114  1.0000
  H   H1313     1.0  0.69252  0.09262  0.50616  1.0000
  Fe  Fe219     1.0  0.58096  0.12008  0.31647  1.0000
  C   C1315     1.0  0.73296  0.18018  0.43171  1.0000
  S   S436      1.0  0.49358  0.08196  0.31245  1.0000
  C   C1316     1.0  0.50797  0.09740  0.31369  1.0000
  H   H1314     1.0  0.64909  0.98796  0.32765  1.0000
  H   H1315     1.0  0.61410  0.16132  0.63983  1.0000
  C   C1317     1.0  0.72614  0.23697  0.60796  1.0000
  H   H1316     1.0  0.67932  0.10547  0.32325  1.0000
  H   H1317     1.0  0.56605  0.03849  0.32070  1.0000
  H   H1318     1.0  0.64192  0.17812  0.32976  1.0000
  H   H1319     1.0  0.71115  0.40111  0.33499  1.0000
  C   C1318     1.0  0.73444  0.07337  0.41552  1.0000
  C   C1319     1.0  0.69835  0.38491  0.32270  1.0000
  H   H1320     1.0  0.72412  0.09597  0.50951  1.0000
  H   H1321     1.0  0.62679  0.11914  0.71373  1.0000
  S   S437      1.0  0.69324  0.35175  0.85295  1.0000
  S   S438      1.0  0.67745  0.21153  0.91081  1.0000
  Fe  Fe220     1.0  0.71463  0.32423  0.89842  1.0000
  S   S439      1.0  0.68289  0.33250  0.89912  1.0000
  S   S440      1.0  0.67346  0.98362  0.84753  1.0000
  Fe  Fe221     1.0  0.69071  0.32210  0.87116  1.0000
  S   S441      1.0  0.67757  0.29771  0.86996  1.0000
  Fe  Fe222     1.0  0.68872  0.36122  0.88108  1.0000
  S   S442      1.0  0.67095  0.39001  0.88791  1.0000
  S   S443      1.0  0.71790  0.45016  0.89075  1.0000
  S   S444      1.0  0.71982  0.35352  0.88287  1.0000
  Fe  Fe223     1.0  0.60097  0.23444  0.82168  1.0000
  S   S445      1.0  0.57670  0.22876  0.84685  1.0000
  S   S446      1.0  0.61474  0.21342  0.80176  1.0000
  Fe  Fe224     1.0  0.60171  0.27281  0.83082  1.0000
  S   S447      1.0  0.57666  0.27028  0.85604  1.0000
  S   S448      1.0  0.61466  0.29940  0.82378  1.0000
  Fe  Fe225     1.0  0.59232  0.23949  0.86310  1.0000
  S   S449      1.0  0.59472  0.22382  0.89346  1.0000
  Fe  Fe226     1.0  0.56358  0.25992  0.83693  1.0000
  S   S450      1.0  0.61803  0.24238  0.83877  1.0000
  S   S451      1.0  0.58722  0.26528  0.81089  1.0000
  S   S452      1.0  0.70899  0.16226  0.90400  1.0000
  Fe  Fe227     1.0  0.58915  0.16785  0.71573  1.0000
  S   S453      1.0  0.57749  0.14630  0.70758  1.0000
  S   S454      1.0  0.61325  0.18290  0.69842  1.0000
  Fe  Fe228     1.0  0.56506  0.16242  0.75673  1.0000
  S   S455      1.0  0.55130  0.14024  0.75243  1.0000
  S   S456      1.0  0.55669  0.17240  0.78489  1.0000
  Fe  Fe229     1.0  0.58118  0.12848  0.73700  1.0000
  S   S457      1.0  0.59805  0.09795  0.74119  1.0000
  Fe  Fe230     1.0  0.54863  0.16004  0.72361  1.0000
  S   S458      1.0  0.52129  0.17077  0.71178  1.0000
  S   S459      1.0  0.59505  0.14894  0.74387  1.0000
  S   S460      1.0  0.56007  0.18329  0.72927  1.0000
  Fe  Fe231     1.0  0.68759  0.05085  0.83758  1.0000
  S   S461      1.0  0.67676  0.06934  0.81118  1.0000
  S   S462      1.0  0.70519  0.06133  0.85279  1.0000
  S   S463      1.0  0.66261  0.03101  0.80782  1.0000
  Fe  Fe232     1.0  0.68939  0.04318  0.79803  1.0000
  Fe  Fe233     1.0  0.65096  0.05564  0.82327  1.0000
  S   S464      1.0  0.62083  0.07335  0.82342  1.0000
  S   S465      1.0  0.66063  0.03897  0.85085  1.0000
  H   H1322     1.0  0.68010  0.16549  0.87347  1.0000
  S   S466      1.0  0.72361  0.30994  0.92680  1.0000
  Fe  Fe234     1.0  0.72429  0.34266  0.85575  1.0000
  H   H1323     1.0  0.59818  0.18459  0.87316  1.0000
  C   C1320     1.0  0.58749  0.21651  0.73261  1.0000
  C   C1321     1.0  0.71710  0.23779  0.91016  1.0000
  H   H1324     1.0  0.61526  0.11136  0.66180  1.0000
  C   C1322     1.0  0.52825  0.23457  0.83203  1.0000
  C   C1323     1.0  0.50948  0.18037  0.77367  1.0000
  C   C1324     1.0  0.69136  0.39092  0.93104  1.0000
  C   C1325     1.0  0.62577  0.19145  0.85810  1.0000
  H   H1325     1.0  0.67620  0.45206  0.89840  1.0000
  H   H1326     1.0  0.67622  0.14012  0.66234  1.0000
  C   C1326     1.0  0.50776  0.13708  0.72852  1.0000
  C   C1327     1.0  0.49903  0.22883  0.82653  1.0000
  H   H1327     1.0  0.65764  0.12816  0.69484  1.0000
  H   H1328     1.0  0.67795  0.35705  0.94949  1.0000
  Fe  Fe235     1.0  0.72473  0.15128  0.92860  1.0000
  H   H1329     1.0  0.52157  0.13091  0.73264  1.0000
  C   C1328     1.0  0.62372  0.17748  0.67535  1.0000
  C   C1329     1.0  0.61367  0.17031  0.66585  1.0000
  H   H1330     1.0  0.51914  0.16681  0.77815  1.0000
  H   H1331     1.0  0.67584  0.39620  0.93378  1.0000
  H   H1332     1.0  0.51414  0.19414  0.79433  1.0000
  N   N112      1.0  0.62171  0.98716  0.84854  1.0000
  H   H1333     1.0  0.59922  0.16814  0.67260  1.0000
  C   C1330     1.0  0.61332  0.00685  0.81878  1.0000
  C   C1331     1.0  0.73074  0.06076  0.77477  1.0000
  H   H1334     1.0  0.73373  0.04779  0.73244  1.0000
  C   C1332     1.0  0.60412  0.09074  0.76415  1.0000
  C   C1333     1.0  0.59144  0.09741  0.78013  1.0000
  C   C1334     1.0  0.59642  0.09152  0.79842  1.0000
  C   C1335     1.0  0.61439  0.07960  0.80064  1.0000
  C   C1336     1.0  0.62720  0.07323  0.78458  1.0000
  C   C1337     1.0  0.62193  0.07852  0.76645  1.0000
  H   H1335     1.0  0.57763  0.10680  0.77846  1.0000
  H   H1336     1.0  0.58646  0.09651  0.81078  1.0000
  H   H1337     1.0  0.64121  0.06429  0.78601  1.0000
  H   H1338     1.0  0.63183  0.07342  0.75411  1.0000
  C   C1338     1.0  0.70383  0.09935  0.88552  1.0000
  C   C1339     1.0  0.70988  0.08475  0.87456  1.0000
  C   C1340     1.0  0.69680  0.07986  0.86645  1.0000
  C   C1341     1.0  0.67753  0.08979  0.86940  1.0000
  H   H1339     1.0  0.71406  0.10291  0.89168  1.0000
  H   H1340     1.0  0.72480  0.07714  0.87238  1.0000
  C   C1342     1.0  0.59920  0.20065  0.79801  1.0000
  C   C1343     1.0  0.60482  0.19133  0.78230  1.0000
  C   C1344     1.0  0.59198  0.18236  0.77825  1.0000
  C   C1345     1.0  0.57362  0.18235  0.79013  1.0000
  C   C1346     1.0  0.56833  0.19096  0.80623  1.0000
  C   C1347     1.0  0.58100  0.20022  0.81005  1.0000
  H   H1341     1.0  0.61894  0.19150  0.77298  1.0000
  H   H1342     1.0  0.59630  0.17558  0.76590  1.0000
  H   H1343     1.0  0.55421  0.19088  0.81553  1.0000
  H   H1344     1.0  0.57649  0.20715  0.82221  1.0000
  C   C1348     1.0  0.65436  0.21512  0.90628  1.0000
  C   C1349     1.0  0.62228  0.20808  0.91527  1.0000
  C   C1350     1.0  0.61772  0.22051  0.89823  1.0000
  C   C1351     1.0  0.63145  0.23040  0.88537  1.0000
  C   C1352     1.0  0.64971  0.22777  0.88942  1.0000
  H   H1345     1.0  0.61163  0.20057  0.92540  1.0000
  H   H1346     1.0  0.62782  0.24063  0.87267  1.0000
  H   H1347     1.0  0.66031  0.23539  0.87939  1.0000
  C   C1353     1.0  0.72557  0.05376  0.76117  1.0000
  C   C1354     1.0  0.56320  0.24202  0.78200  1.0000
  Fe  Fe236     1.0  0.69172  0.13923  0.91870  1.0000
  C   C1355     1.0  0.52036  0.25441  0.82971  1.0000
  H   H1348     1.0  0.62085  0.19926  0.84485  1.0000
  C   C1356     1.0  0.68348  0.40845  0.88561  1.0000
  C   C1357     1.0  0.67363  0.42551  0.89225  1.0000
  C   C1358     1.0  0.68379  0.43934  0.89255  1.0000
  C   C1359     1.0  0.70391  0.43598  0.88646  1.0000
  H   H1349     1.0  0.73038  0.10972  0.68480  1.0000
  C   C1360     1.0  0.70339  0.40583  0.87839  1.0000
  H   H1350     1.0  0.65818  0.42779  0.89768  1.0000
  H   H1351     1.0  0.60815  0.12912  0.84228  1.0000
  H   H1352     1.0  0.60574  0.11017  0.69736  1.0000
  H   H1353     1.0  0.71107  0.39325  0.87251  1.0000
  C   C1361     1.0  0.66183  0.29854  0.85498  1.0000
  C   C1362     1.0  0.65336  0.31587  0.84401  1.0000
  C   C1363     1.0  0.63923  0.31594  0.83405  1.0000
  C   C1364     1.0  0.63337  0.29876  0.83522  1.0000
  C   C1365     1.0  0.64210  0.28146  0.84596  1.0000
  C   C1366     1.0  0.65636  0.28134  0.85565  1.0000
  H   H1354     1.0  0.65738  0.32924  0.84351  1.0000
  H   H1355     1.0  0.63254  0.32938  0.82572  1.0000
  H   H1356     1.0  0.63784  0.26816  0.84687  1.0000
  H   H1357     1.0  0.66293  0.26791  0.86403  1.0000
  H   H1358     1.0  0.67548  0.36414  0.92442  1.0000
  C   C1367     1.0  0.68595  0.35859  0.93421  1.0000
  S   S467      1.0  0.53275  0.27068  0.83281  1.0000
  S   S468      1.0  0.70471  0.17142  0.94702  1.0000
  C   C1368     1.0  0.61653  0.98882  0.83137  1.0000
  C   C1369     1.0  0.58173  0.24369  0.77148  1.0000
  C   C1370     1.0  0.50408  0.15610  0.71803  1.0000
  H   H1359     1.0  0.64931  0.10782  0.79561  1.0000
  H   H1360     1.0  0.64395  0.16325  0.90472  1.0000
  C   C1371     1.0  0.62233  0.12458  0.78872  1.0000
  H   H1361     1.0  0.61264  0.03735  0.81444  1.0000
  H   H1362     1.0  0.50187  0.17051  0.75196  1.0000
  S   S469      1.0  0.66958  0.15814  0.93743  1.0000
  C   C1372     1.0  0.55277  0.23179  0.77627  1.0000
  H   H1363     1.0  0.72991  0.31927  0.80686  1.0000
  H   H1364     1.0  0.67661  0.19173  0.86859  1.0000
  H   H1365     1.0  0.49205  0.22517  0.78389  1.0000
  N   N113      1.0  0.63036  0.11828  0.81998  1.0000
  C   C1373     1.0  0.67149  0.10445  0.88028  1.0000
  H   H1366     1.0  0.49651  0.11111  0.74147  1.0000
  C   C1374     1.0  0.49967  0.18257  0.75891  1.0000
  C   C1375     1.0  0.68458  0.10928  0.88845  1.0000
  C   C1376     1.0  0.61915  0.11437  0.68905  1.0000
  H   H1367     1.0  0.72910  0.41667  0.87424  1.0000
  C   C1377     1.0  0.64387  0.10871  0.83297  1.0000
  C   C1378     1.0  0.62457  0.11488  0.66917  1.0000
  H   H1368     1.0  0.62164  0.03407  0.84581  1.0000
  H   H1369     1.0  0.62808  0.00178  0.86716  1.0000
  S   S470      1.0  0.72243  0.31228  0.87149  1.0000
  C   C1379     1.0  0.50193  0.26145  0.82533  1.0000
  C   C1380     1.0  0.49355  0.12589  0.73351  1.0000
  H   H1370     1.0  0.61000  0.16614  0.90312  1.0000
  C   C1381     1.0  0.72429  0.33498  0.80189  1.0000
  C   C1382     1.0  0.61504  0.02325  0.82405  1.0000
  H   H1371     1.0  0.70358  0.24257  0.90512  1.0000
  H   H1372     1.0  0.59183  0.20059  0.73733  1.0000
  C   C1383     1.0  0.60397  0.13462  0.79592  1.0000
  C   C1384     1.0  0.64064  0.20529  0.91924  1.0000
  H   H1373     1.0  0.59344  0.14049  0.78674  1.0000
  H   H1374     1.0  0.65005  0.18640  0.67345  1.0000
  C   C1385     1.0  0.62206  0.16659  0.64723  1.0000
  H   H1375     1.0  0.53866  0.22976  0.78483  1.0000
  N   N114      1.0  0.65090  0.18041  0.87639  1.0000
  H   H1376     1.0  0.71899  0.20768  0.91106  1.0000
  C   C1386     1.0  0.61313  0.18295  0.87387  1.0000
  H   H1377     1.0  0.68409  0.11519  0.65948  1.0000
  C   C1387     1.0  0.65083  0.17663  0.64773  1.0000
  H   H1378     1.0  0.72624  0.21388  0.65480  1.0000
  C   C1388     1.0  0.62015  0.02142  0.84165  1.0000
  C   C1389     1.0  0.72586  0.25112  0.91346  1.0000
  H   H1379     1.0  0.54238  0.22896  0.83541  1.0000
  H   H1380     1.0  0.65435  0.19706  0.84746  1.0000
  H   H1381     1.0  0.59030  0.25095  0.77619  1.0000
  C   C1390     1.0  0.72577  0.21817  0.91345  1.0000
  C   C1391     1.0  0.72954  0.47537  0.83566  1.0000
  N   N115      1.0  0.62951  0.28076  0.90219  1.0000
  C   C1392     1.0  0.61738  0.26881  0.90376  1.0000
  C   C1393     1.0  0.62653  0.29921  0.89142  1.0000
  C   C1394     1.0  0.60218  0.27498  0.89383  1.0000
  C   C1395     1.0  0.61146  0.30588  0.88132  1.0000
  C   C1396     1.0  0.59939  0.29358  0.88235  1.0000
  C   C1397     1.0  0.64669  0.27311  0.91076  1.0000
  H   H1382     1.0  0.61972  0.25419  0.91232  1.0000
  H   H1383     1.0  0.63637  0.30859  0.88981  1.0000
  H   H1384     1.0  0.59298  0.26519  0.89463  1.0000
  H   H1385     1.0  0.60973  0.32017  0.87201  1.0000
  H   H1386     1.0  0.58816  0.29835  0.87394  1.0000
  H   H1387     1.0  0.65807  0.26449  0.90115  1.0000
  H   H1388     1.0  0.65273  0.28492  0.91239  1.0000
  H   H1389     1.0  0.64329  0.26365  0.92527  1.0000
  H   H1390     1.0  0.66319  0.99067  0.80987  1.0000
  C   C1398     1.0  0.61971  0.17270  0.89072  1.0000
  H   H1391     1.0  0.55309  0.21502  0.75595  1.0000
  C   C1399     1.0  0.63885  0.17133  0.89163  1.0000
  C   C1400     1.0  0.50677  0.19578  0.78268  1.0000
  C   C1401     1.0  0.63104  0.11934  0.69829  1.0000
  H   H1392     1.0  0.65656  0.11195  0.88258  1.0000
  H   H1393     1.0  0.60418  0.23614  0.74762  1.0000
  C   C1402     1.0  0.67081  0.17898  0.87777  1.0000
  C   C1403     1.0  0.64471  0.19011  0.85965  1.0000
  H   H1394     1.0  0.72254  0.46782  0.85003  1.0000
  N   N116      1.0  0.69901  0.37191  0.93026  1.0000
  Fe  Fe237     1.0  0.67459  0.01515  0.83414  1.0000
  C   C1404     1.0  0.70341  0.40395  0.92773  1.0000
  H   H1395     1.0  0.72471  0.35029  0.92550  1.0000
  C   C1405     1.0  0.71357  0.41937  0.87904  1.0000
  H   H1396     1.0  0.71925  0.26645  0.91100  1.0000
  H   H1397     1.0  0.64189  0.09364  0.83944  1.0000
  C   C1406     1.0  0.61234  0.12805  0.82716  1.0000
  C   C1407     1.0  0.64229  0.18069  0.66622  1.0000
  S   S471      1.0  0.70470  0.04439  0.76702  1.0000
  H   H1398     1.0  0.64159  0.11648  0.84486  1.0000
  S   S472      1.0  0.70963  0.12621  0.94178  1.0000
  Fe  Fe238     1.0  0.68774  0.18031  0.92376  1.0000
  S   S473      1.0  0.67608  0.12795  0.90195  1.0000
  H   H1399     1.0  0.55717  0.24818  0.79488  1.0000
  H   H1400     1.0  0.72753  0.09867  0.72063  1.0000
  C   C1408     1.0  0.63538  0.11633  0.80107  1.0000
  C   C1409     1.0  0.59893  0.13649  0.81521  1.0000
  C   C1410     1.0  0.51757  0.22183  0.83055  1.0000
  H   H1401     1.0  0.72908  0.37125  0.79493  1.0000
  N   N117      1.0  0.65380  0.12456  0.66809  1.0000
  C   C1411     1.0  0.64211  0.11995  0.65885  1.0000
  C   C1412     1.0  0.64844  0.12440  0.68753  1.0000
  C   C1413     1.0  0.72337  0.39755  0.92305  1.0000
  H   H1402     1.0  0.72120  0.06156  0.78874  1.0000
  H   H1403     1.0  0.58460  0.14418  0.82086  1.0000
  H   H1404     1.0  0.71094  0.33698  0.79649  1.0000
  H   H1405     1.0  0.48834  0.20122  0.72373  1.0000
  H   H1406     1.0  0.48965  0.14025  0.67904  1.0000
  H   H1407     1.0  0.69385  0.34396  0.93178  1.0000
  C   C1414     1.0  0.49440  0.21320  0.77678  1.0000
  C   C1415     1.0  0.71860  0.36538  0.92613  1.0000
  Fe  Fe239     1.0  0.68879  0.14716  0.95912  1.0000
  H   H1408     1.0  0.60051  0.22189  0.72357  1.0000
  C   C1416     1.0  0.62359  0.00315  0.85373  1.0000
  H   H1409     1.0  0.62609  0.12249  0.77391  1.0000
  H   H1410     1.0  0.60962  0.00808  0.80499  1.0000
  H   H1411     1.0  0.72066  0.34151  0.81488  1.0000
  H   H1412     1.0  0.69732  0.41911  0.92801  1.0000
  C   C1417     1.0  0.73106  0.37814  0.92225  1.0000
  H   H1413     1.0  0.67152  0.17859  0.89288  1.0000
  H   H1414     1.0  0.65910  0.10820  0.82506  1.0000
  H   H1415     1.0  0.57695  0.21964  0.72311  1.0000
  H   H1416     1.0  0.66730  0.08600  0.86347  1.0000
  H   H1417     1.0  0.52352  0.20644  0.83294  1.0000
  H   H1418     1.0  0.64401  0.19584  0.93253  1.0000
  S   S474      1.0  0.70254  0.02548  0.82317  1.0000
  N   N118      1.0  0.57908  0.22553  0.74952  1.0000
  C   C1418     1.0  0.56101  0.22352  0.75993  1.0000
  C   C1419     1.0  0.58954  0.23522  0.75528  1.0000
  C   C1420     1.0  0.67272  0.12853  0.65741  1.0000
  H   H1419     1.0  0.49579  0.27680  0.82345  1.0000
  H   H1420     1.0  0.72487  0.47089  0.82449  1.0000
  H   H1421     1.0  0.73276  0.40779  0.91964  1.0000
  C   C1421     1.0  0.49133  0.24872  0.82362  1.0000
  Fe  Fe240     1.0  0.64020  0.74783  0.98646  1.0000
  Fe  Fe241     1.0  0.70915  0.52025  0.23437  1.0000
  H   H1422     1.0  0.70815  0.70318  0.03210  1.0000
  S   S475      1.0  0.62957  0.75829  0.01477  1.0000
  C   C1422     1.0  0.49034  0.72355  0.27909  1.0000
  C   C1423     1.0  0.70330  0.94079  0.28111  1.0000
  C   C1424     1.0  0.66107  0.71338  0.05485  1.0000
  H   H1423     1.0  0.53011  0.70305  0.29751  1.0000
  Fe  Fe242     1.0  0.70103  0.82937  0.24745  1.0000
  S   S476      1.0  0.71929  0.82270  0.21927  1.0000
  S   S477      1.0  0.69949  0.80421  0.27255  1.0000
  Fe  Fe243     1.0  0.69192  0.87238  0.23124  1.0000
  S   S478      1.0  0.70900  0.86932  0.20150  1.0000
  S   S479      1.0  0.67762  0.90143  0.23881  1.0000
  Fe  Fe244     1.0  0.69568  0.84360  0.20598  1.0000
  S   S480      1.0  0.68392  0.83869  0.18221  1.0000
  C   C1425     1.0  0.51588  0.73897  0.28004  1.0000
  C   C1426     1.0  0.60425  0.69724  0.30351  1.0000
  S   S481      1.0  0.67634  0.84858  0.23445  1.0000
  S   S482      1.0  0.71480  0.85345  0.24701  1.0000
  Fe  Fe245     1.0  0.67886  0.52475  0.27094  1.0000
  S   S483      1.0  0.68694  0.50303  0.25179  1.0000
  S   S484      1.0  0.64759  0.53731  0.28239  1.0000
  Fe  Fe246     1.0  0.70925  0.48761  0.26967  1.0000
  C   C1427     1.0  0.71257  0.66951  0.14197  1.0000
  S   S485      1.0  0.69938  0.50778  0.29062  1.0000
  H   H1424     1.0  0.61286  0.64207  0.21559  1.0000
  Fe  Fe247     1.0  0.56727  0.68626  0.26225  1.0000
  S   S486      1.0  0.54900  0.68377  0.24308  1.0000
  S   S487      1.0  0.56240  0.71408  0.27211  1.0000
  Fe  Fe248     1.0  0.59040  0.64494  0.26331  1.0000
  S   S488      1.0  0.57376  0.63867  0.24458  1.0000
  H   H1425     1.0  0.59467  0.68515  0.28452  1.0000
  Fe  Fe249     1.0  0.57663  0.66835  0.22693  1.0000
  S   S489      1.0  0.58723  0.67326  0.19460  1.0000
  Fe  Fe250     1.0  0.54751  0.65462  0.26250  1.0000
  S   S490      1.0  0.51771  0.64839  0.27603  1.0000
  S   S491      1.0  0.59494  0.67354  0.24439  1.0000
  S   S492      1.0  0.56403  0.65827  0.28298  1.0000
  Fe  Fe251     1.0  0.64962  0.74440  0.14019  1.0000
  S   S493      1.0  0.66565  0.76820  0.12411  1.0000
  S   S494      1.0  0.62076  0.74948  0.16037  1.0000
  Fe  Fe252     1.0  0.68371  0.71244  0.13028  1.0000
  S   S495      1.0  0.70287  0.73325  0.11433  1.0000
  Fe  Fe253     1.0  0.68965  0.74945  0.13852  1.0000
  S   S496      1.0  0.70687  0.75832  0.15534  1.0000
  Fe  Fe254     1.0  0.67729  0.74999  0.10119  1.0000
  S   S497      1.0  0.68538  0.75825  0.06844  1.0000
  S   S498      1.0  0.67296  0.72668  0.15580  1.0000
  S   S499      1.0  0.65884  0.72813  0.11602  1.0000
  C   C1428     1.0  0.64330  0.65069  0.18166  1.0000
  S   S500      1.0  0.61840  0.62734  0.27149  1.0000
  H   H1426     1.0  0.69386  0.54562  0.30184  1.0000
  H   H1427     1.0  0.51665  0.67386  0.30342  1.0000
  C   C1429     1.0  0.63728  0.67200  0.20316  1.0000
  H   H1428     1.0  0.65740  0.69859  0.01630  1.0000
  C   C1430     1.0  0.51664  0.70439  0.29331  1.0000
  N   N119      1.0  0.65304  0.57949  0.31021  1.0000
  C   C1431     1.0  0.51171  0.62333  0.25695  1.0000
  H   H1429     1.0  0.65223  0.71892  0.06744  1.0000
  S   S501      1.0  0.71404  0.52948  0.20199  1.0000
  C   C1432     1.0  0.50476  0.64090  0.26310  1.0000
  H   H1430     1.0  0.52619  0.61533  0.25804  1.0000
  C   C1433     1.0  0.59571  0.69490  0.18490  1.0000
  C   C1434     1.0  0.60621  0.69820  0.16578  1.0000
  C   C1435     1.0  0.61400  0.71491  0.15817  1.0000
  C   C1436     1.0  0.61090  0.72861  0.16952  1.0000
  C   C1437     1.0  0.59999  0.72553  0.18848  1.0000
  C   C1438     1.0  0.59258  0.70862  0.19623  1.0000
  H   H1431     1.0  0.60857  0.68769  0.15692  1.0000
  H   H1432     1.0  0.62217  0.71731  0.14344  1.0000
  H   H1433     1.0  0.59743  0.73614  0.19728  1.0000
  H   H1434     1.0  0.58428  0.70632  0.21092  1.0000
  C   C1439     1.0  0.63919  0.56247  0.27536  1.0000
  C   C1440     1.0  0.65213  0.57493  0.26780  1.0000
  C   C1441     1.0  0.64539  0.59499  0.26534  1.0000
  C   C1442     1.0  0.62562  0.60281  0.27012  1.0000
  H   H1435     1.0  0.62654  0.71736  0.03162  1.0000
  H   H1436     1.0  0.61563  0.68476  0.30648  1.0000
  H   H1437     1.0  0.66740  0.56918  0.26499  1.0000
  H   H1438     1.0  0.65560  0.60445  0.26049  1.0000
  H   H1439     1.0  0.68755  0.71535  0.06126  1.0000
  C   C1443     1.0  0.63950  0.80573  0.31136  1.0000
  C   C1444     1.0  0.69045  0.81627  0.17490  1.0000
  C   C1445     1.0  0.68271  0.81416  0.16005  1.0000
  C   C1446     1.0  0.68751  0.79646  0.15394  1.0000
  C   C1447     1.0  0.70028  0.78079  0.16252  1.0000
  C   C1448     1.0  0.70818  0.78298  0.17722  1.0000
  C   C1449     1.0  0.70318  0.80059  0.18349  1.0000
  H   H1440     1.0  0.67289  0.82625  0.15327  1.0000
  H   H1441     1.0  0.68148  0.79499  0.14248  1.0000
  C   C1450     1.0  0.73083  0.57640  0.21017  1.0000
  H   H1442     1.0  0.70923  0.80200  0.19493  1.0000
  H   H1443     1.0  0.64227  0.63717  0.17892  1.0000
  C   C1451     1.0  0.68539  0.93704  0.23466  1.0000
  H   H1444     1.0  0.52557  0.73746  0.29005  1.0000
  C   C1452     1.0  0.54661  0.79796  0.30596  1.0000
  C   C1453     1.0  0.66720  0.76637  0.20352  1.0000
  H   H1445     1.0  0.65649  0.66120  0.15182  1.0000
  C   C1454     1.0  0.69246  0.57629  0.29521  1.0000
  S   S502      1.0  0.63204  0.71973  0.98879  1.0000
  C   C1455     1.0  0.58650  0.72904  0.30839  1.0000
  H   H1446     1.0  0.56351  0.74186  0.29276  1.0000
  N   N120      1.0  0.50725  0.72195  0.28459  1.0000
  H   H1447     1.0  0.67020  0.94136  0.24076  1.0000
  C   C1456     1.0  0.66393  0.70229  0.02622  1.0000
  C   C1457     1.0  0.69757  0.95023  0.23029  1.0000
  H   H1448     1.0  0.57370  0.80476  0.28884  1.0000
  H   H1449     1.0  0.71571  0.57596  0.21246  1.0000
  H   H1450     1.0  0.67325  0.75171  0.20127  1.0000
  H   H1451     1.0  0.66657  0.83579  0.27829  1.0000
  H   H1452     1.0  0.63588  0.62528  0.21432  1.0000
  C   C1458     1.0  0.68112  0.71120  0.05151  1.0000
  H   H1453     1.0  0.66979  0.79679  0.23055  1.0000
  H   H1454     1.0  0.70768  0.89049  0.27093  1.0000
  C   C1459     1.0  0.61930  0.57033  0.27929  1.0000
  H   H1455     1.0  0.68253  0.76282  0.22624  1.0000
  C   C1460     1.0  0.67256  0.77258  0.21759  1.0000
  H   H1456     1.0  0.64114  0.76030  0.18487  1.0000
  C   C1461     1.0  0.72133  0.65016  0.14142  1.0000
  C   C1462     1.0  0.50906  0.68786  0.29683  1.0000
  C   C1463     1.0  0.64488  0.68592  0.18807  1.0000
  C   C1464     1.0  0.62835  0.64028  0.21572  1.0000
  H   H1457     1.0  0.68188  0.77444  0.29925  1.0000
  C   C1465     1.0  0.69285  0.91818  0.23149  1.0000
  C   C1466     1.0  0.71250  0.91266  0.22357  1.0000
  C   C1467     1.0  0.68463  0.55976  0.30237  1.0000
  H   H1458     1.0  0.71840  0.89811  0.22115  1.0000
  N   N121      1.0  0.65271  0.70943  0.04199  1.0000
  Fe  Fe255     1.0  0.72045  0.52480  0.26991  1.0000
  H   H1459     1.0  0.73302  0.55565  0.02995  1.0000
  H   H1460     1.0  0.59720  0.59644  0.28042  1.0000
  C   C1468     1.0  0.64528  0.75876  0.02927  1.0000
  C   C1469     1.0  0.63767  0.76019  0.04873  1.0000
  C   C1470     1.0  0.64980  0.75993  0.06094  1.0000
  C   C1471     1.0  0.66958  0.75882  0.05359  1.0000
  C   C1472     1.0  0.67713  0.75780  0.03403  1.0000
  C   C1473     1.0  0.66508  0.75745  0.02198  1.0000
  H   H1461     1.0  0.62232  0.76140  0.05441  1.0000
  H   H1462     1.0  0.64382  0.76091  0.07594  1.0000
  H   H1463     1.0  0.69240  0.75710  0.02822  1.0000
  H   H1464     1.0  0.67106  0.75654  0.00698  1.0000
  H   H1465     1.0  0.62434  0.72342  0.05417  1.0000
  C   C1474     1.0  0.72035  0.68015  0.15026  1.0000
  H   H1466     1.0  0.64477  0.69995  0.19053  1.0000
  C   C1475     1.0  0.71719  0.94475  0.22231  1.0000
  C   C1476     1.0  0.66823  0.94766  0.28513  1.0000
  H   H1467     1.0  0.72891  0.60337  0.18914  1.0000
  C   C1477     1.0  0.65120  0.66421  0.16629  1.0000
  H   H1468     1.0  0.50458  0.75222  0.28178  1.0000
  C   C1478     1.0  0.57770  0.71355  0.28722  1.0000
  C   C1479     1.0  0.72161  0.92898  0.27705  1.0000
  H   H1469     1.0  0.50756  0.64875  0.21467  1.0000
  C   C1480     1.0  0.67148  0.78798  0.29933  1.0000
  H   H1470     1.0  0.63834  0.80736  0.18554  1.0000
  H   H1471     1.0  0.73445  0.57315  0.00719  1.0000
  H   H1472     1.0  0.72594  0.48716  0.21775  1.0000
  C   C1481     1.0  0.73714  0.67153  0.15765  1.0000
  H   H1473     1.0  0.70684  0.85481  0.14332  1.0000
  H   H1474     1.0  0.63153  0.67538  0.21740  1.0000
  H   H1475     1.0  0.50468  0.60142  0.24666  1.0000
  H   H1476     1.0  0.72575  0.54835  0.99497  1.0000
  H   H1477     1.0  0.64783  0.81917  0.20982  1.0000
  N   N122      1.0  0.68710  0.93459  0.28156  1.0000
  H   H1478     1.0  0.71524  0.64189  0.13512  1.0000
  C   C1482     1.0  0.73283  0.82278  0.14708  1.0000
  C   C1483     1.0  0.67636  0.80505  0.28734  1.0000
  C   C1484     1.0  0.64445  0.82286  0.29950  1.0000
  C   C1485     1.0  0.49498  0.65421  0.20808  1.0000
  H   H1479     1.0  0.49279  0.62606  0.20625  1.0000
  C   C1486     1.0  0.57482  0.72936  0.29581  1.0000
  C   C1487     1.0  0.65195  0.68190  0.16957  1.0000
  C   C1488     1.0  0.66282  0.82251  0.28738  1.0000
  H   H1480     1.0  0.69169  0.96462  0.23299  1.0000
  C   C1489     1.0  0.64964  0.77172  0.17774  1.0000
  C   C1490     1.0  0.66539  0.79162  0.22003  1.0000
  H   H1481     1.0  0.65748  0.69269  0.15764  1.0000
  H   H1482     1.0  0.66286  0.76560  0.16792  1.0000
  S   S503      1.0  0.69259  0.68044  0.13122  1.0000
  C   C1491     1.0  0.64774  0.79741  0.19468  1.0000
  H   H1483     1.0  0.72580  0.70055  0.09638  1.0000
  C   C1492     1.0  0.61249  0.59050  0.27652  1.0000
  S   S504      1.0  0.69928  0.54319  0.25189  1.0000
  H   H1484     1.0  0.64084  0.78339  0.16854  1.0000
  H   H1485     1.0  0.72765  0.86606  0.13527  1.0000
  H   H1486     1.0  0.70785  0.57494  0.28924  1.0000
  Fe  Fe256     1.0  0.73083  0.84871  0.21757  1.0000
  H   H1487     1.0  0.66779  0.96099  0.27354  1.0000
  C   C1493     1.0  0.72461  0.92598  0.21885  1.0000
  H   H1488     1.0  0.62714  0.69828  0.05316  1.0000
  N   N123      1.0  0.65493  0.77874  0.19232  1.0000
  C   C1494     1.0  0.72325  0.91071  0.27350  1.0000
  H   H1489     1.0  0.63408  0.83642  0.29963  1.0000
  H   H1490     1.0  0.69278  0.69435  0.00984  1.0000
  C   C1495     1.0  0.63166  0.71210  0.04551  1.0000
  H   H1491     1.0  0.72612  0.81858  0.28480  1.0000
  H   H1492     1.0  0.71362  0.69510  0.15074  1.0000
  C   C1496     1.0  0.69262  0.70454  0.03511  1.0000
  N   N124      1.0  0.63680  0.65455  0.19989  1.0000
  H   H1493     1.0  0.52459  0.74067  0.26501  1.0000
  H   H1494     1.0  0.65620  0.94091  0.28541  1.0000
  C   C1497     1.0  0.68402  0.69980  0.02251  1.0000
  H   H1495     1.0  0.60917  0.56079  0.28514  1.0000
  H   H1496     1.0  0.62946  0.64200  0.23005  1.0000
  S   S505      1.0  0.73264  0.96116  0.21651  1.0000
  C   C1498     1.0  0.59238  0.69742  0.29112  1.0000
  C   C1499     1.0  0.65293  0.80415  0.20850  1.0000
  H   H1497     1.0  0.67580  0.91181  0.27810  1.0000
  C   C1500     1.0  0.49945  0.61539  0.25069  1.0000
  H   H1498     1.0  0.66571  0.95199  0.29926  1.0000
  C   C1501     1.0  0.66059  0.59582  0.30335  1.0000
  H   H1499     1.0  0.71809  0.77091  0.18390  1.0000
  C   C1502     1.0  0.68856  0.91662  0.27828  1.0000
  H   H1500     1.0  0.49293  0.68389  0.20891  1.0000
  H   H1501     1.0  0.72515  0.67054  0.08736  1.0000
  H   H1502     1.0  0.72371  0.82358  0.13720  1.0000
  C   C1503     1.0  0.56361  0.80461  0.30268  1.0000
  S   S506      1.0  0.73218  0.50329  0.25066  1.0000
  H   H1503     1.0  0.70204  0.95503  0.28377  1.0000
  C   C1504     1.0  0.49175  0.68940  0.29144  1.0000
  H   H1504     1.0  0.72790  0.55895  0.17066  1.0000
  H   H1505     1.0  0.62381  0.59484  0.31140  1.0000
  C   C1505     1.0  0.70663  0.90445  0.27415  1.0000
  H   H1506     1.0  0.71322  0.86512  0.15966  1.0000
  H   H1507     1.0  0.68627  0.60746  0.29002  1.0000
  C   C1506     1.0  0.65302  0.78829  0.31112  1.0000
  H   H1508     1.0  0.69893  0.49347  0.20099  1.0000
  C   C1507     1.0  0.71941  0.85710  0.14769  1.0000
  H   H1509     1.0  0.72878  0.83394  0.31027  1.0000
  N   N125      1.0  0.73198  0.83861  0.15420  1.0000
  H   H1510     1.0  0.73444  0.93402  0.27653  1.0000
  H   H1511     1.0  0.73563  0.63558  0.09253  1.0000
  S   S507      1.0  0.67646  0.68044  0.98052  1.0000
  H   H1512     1.0  0.54338  0.79280  0.29474  1.0000
  C   C1508     1.0  0.73736  0.53381  0.19171  1.0000
  C   C1509     1.0  0.68038  0.59447  0.29568  1.0000
  H   H1513     1.0  0.65121  0.61002  0.30335  1.0000
  H   H1514     1.0  0.73735  0.90148  0.27011  1.0000
  C   C1510     1.0  0.66480  0.56160  0.30996  1.0000
  C   C1511     1.0  0.73698  0.67085  0.09355  1.0000
  C   C1512     1.0  0.73728  0.68793  0.09859  1.0000
  H   H1515     1.0  0.73744  0.54948  0.23009  1.0000
  Fe  Fe257     1.0  0.70525  0.80956  0.59666  1.0000
  S   S508      1.0  0.71137  0.77863  0.61245  1.0000
  S   S509      1.0  0.69451  0.82076  0.56849  1.0000
  C   C1513     1.0  0.53448  0.70209  0.34812  1.0000
  H   H1516     1.0  0.64932  0.77499  0.31990  1.0000
  H   H1517     1.0  0.62699  0.56916  0.31629  1.0000
  H   H1518     1.0  0.71200  0.84891  0.36434  1.0000
  H   H1519     1.0  0.64445  0.83323  0.37597  1.0000
  S   S510      1.0  0.49774  0.74533  0.32607  1.0000
  H   H1520     1.0  0.62821  0.83188  0.62117  1.0000
  S   S511      1.0  0.68771  0.82105  0.62307  1.0000
  Fe  Fe258     1.0  0.70617  0.78135  0.47516  1.0000
  C   C1514     1.0  0.66747  0.75976  0.61914  1.0000
  S   S512      1.0  0.70928  0.76912  0.50635  1.0000
  Fe  Fe259     1.0  0.68336  0.79207  0.44307  1.0000
  S   S513      1.0  0.70948  0.79472  0.41918  1.0000
  S   S514      1.0  0.65458  0.79904  0.43434  1.0000
  H   H1521     1.0  0.67618  0.75817  0.60450  1.0000
  C   C1515     1.0  0.56828  0.69422  0.34920  1.0000
  Fe  Fe260     1.0  0.71742  0.81012  0.43778  1.0000
  H   H1522     1.0  0.73381  0.82956  0.53859  1.0000
  S   S515      1.0  0.69698  0.76354  0.45956  1.0000
  S   S516      1.0  0.69017  0.80980  0.46062  1.0000
  Fe  Fe261     1.0  0.57565  0.76050  0.36782  1.0000
  S   S517      1.0  0.59405  0.73114  0.37580  1.0000
  Fe  Fe262     1.0  0.60993  0.77775  0.34360  1.0000
  S   S518      1.0  0.63093  0.74953  0.34887  1.0000
  H   H1523     1.0  0.71872  0.72189  0.47507  1.0000
  Fe  Fe263     1.0  0.60840  0.73639  0.34436  1.0000
  C   C1516     1.0  0.54029  0.71451  0.39272  1.0000
  Fe  Fe264     1.0  0.61474  0.74709  0.37968  1.0000
  S   S519      1.0  0.63329  0.73636  0.40217  1.0000
  S   S520      1.0  0.58888  0.76500  0.33616  1.0000
  S   S521      1.0  0.59488  0.77612  0.37471  1.0000
  H   H1524     1.0  0.52881  0.80311  0.35252  1.0000
  H   H1525     1.0  0.55580  0.75052  0.34307  1.0000
  H   H1526     1.0  0.55223  0.83057  0.35204  1.0000
  H   H1527     1.0  0.64430  0.78454  0.35364  1.0000
  C   C1517     1.0  0.64283  0.81017  0.36346  1.0000
  H   H1528     1.0  0.55727  0.69086  0.32590  1.0000
  H   H1529     1.0  0.65492  0.82525  0.59308  1.0000
  S   S522      1.0  0.73402  0.78336  0.45371  1.0000
  H   H1530     1.0  0.71642  0.82182  0.47867  1.0000
  C   C1518     1.0  0.65044  0.81842  0.37426  1.0000
  H   H1531     1.0  0.70900  0.83595  0.39977  1.0000
  H   H1532     1.0  0.58324  0.68871  0.34299  1.0000
  H   H1533     1.0  0.63106  0.81856  0.35639  1.0000
  C   C1519     1.0  0.64837  0.78117  0.42635  1.0000
  C   C1520     1.0  0.63216  0.78607  0.41789  1.0000
  C   C1521     1.0  0.62744  0.77246  0.41039  1.0000
  C   C1522     1.0  0.63867  0.75370  0.41169  1.0000
  C   C1523     1.0  0.65473  0.74869  0.42041  1.0000
  C   C1524     1.0  0.65972  0.76245  0.42752  1.0000
  H   H1534     1.0  0.62332  0.80052  0.41698  1.0000
  H   H1535     1.0  0.61491  0.77640  0.40397  1.0000
  H   H1536     1.0  0.66343  0.73418  0.42151  1.0000
  H   H1537     1.0  0.67224  0.75855  0.43401  1.0000
  S   S523      1.0  0.73262  0.81577  0.59951  1.0000
  C   C1525     1.0  0.73171  0.53074  0.31515  1.0000
  C   C1526     1.0  0.55366  0.69524  0.33975  1.0000
  H   H1538     1.0  0.52595  0.72452  0.39474  1.0000
  N   N126      1.0  0.65621  0.77952  0.61919  1.0000
  H   H1539     1.0  0.57596  0.81513  0.34848  1.0000
  H   H1540     1.0  0.68007  0.75137  0.38103  1.0000
  N   N127      1.0  0.55552  0.80976  0.33529  1.0000
  H   H1541     1.0  0.68335  0.75947  0.35491  1.0000
  C   C1527     1.0  0.69721  0.80582  0.55207  1.0000
  C   C1528     1.0  0.70565  0.78613  0.55603  1.0000
  C   C1529     1.0  0.70866  0.77492  0.54209  1.0000
  C   C1530     1.0  0.70346  0.78334  0.52406  1.0000
  C   C1531     1.0  0.69460  0.80293  0.52029  1.0000
  C   C1532     1.0  0.69141  0.81409  0.53431  1.0000
  H   H1542     1.0  0.71020  0.77960  0.56963  1.0000
  C   C1533     1.0  0.73390  0.53103  0.33367  1.0000
  H   H1543     1.0  0.69027  0.80947  0.50658  1.0000
  H   H1544     1.0  0.68471  0.82929  0.53125  1.0000
  C   C1534     1.0  0.63109  0.80185  0.63548  1.0000
  H   H1545     1.0  0.53761  0.74378  0.32238  1.0000
  S   S524      1.0  0.54327  0.76612  0.37801  1.0000
  C   C1535     1.0  0.56359  0.70071  0.36657  1.0000
  C   C1536     1.0  0.50985  0.75123  0.34086  1.0000
  S   S525      1.0  0.61552  0.71176  0.32877  1.0000
  H   H1546     1.0  0.70406  0.70750  0.47094  1.0000
  H   H1547     1.0  0.67746  0.75599  0.62933  1.0000
  H   H1548     1.0  0.51533  0.71376  0.37196  1.0000
  H   H1549     1.0  0.55634  0.80562  0.36504  1.0000
  C   C1537     1.0  0.63587  0.81715  0.62046  1.0000
  C   C1538     1.0  0.53856  0.80380  0.33844  1.0000
  Fe  Fe265     1.0  0.71584  0.82457  0.62737  1.0000
  N   N128      1.0  0.54480  0.70784  0.37446  1.0000
  C   C1539     1.0  0.64154  0.78303  0.63464  1.0000
  H   H1550     1.0  0.73474  0.88143  0.64089  1.0000
  C   C1540     1.0  0.52994  0.74903  0.33542  1.0000
  H   H1551     1.0  0.67278  0.79178  0.59226  1.0000
  C   C1541     1.0  0.66565  0.80741  0.38312  1.0000
  C   C1542     1.0  0.63235  0.58114  0.31854  1.0000
  C   C1543     1.0  0.65039  0.79087  0.36193  1.0000
  H   H1552     1.0  0.68440  0.77961  0.38858  1.0000
  C   C1544     1.0  0.56023  0.81563  0.35095  1.0000
  C   C1545     1.0  0.50006  0.75773  0.35790  1.0000
  H   H1553     1.0  0.72534  0.52365  0.34649  1.0000
  S   S526      1.0  0.71982  0.85212  0.63321  1.0000
  Fe  Fe266     1.0  0.73741  0.78568  0.61759  1.0000
  Fe  Fe267     1.0  0.69575  0.79053  0.63922  1.0000
  H   H1554     1.0  0.67135  0.81351  0.39198  1.0000
  C   C1546     1.0  0.71742  0.71334  0.46506  1.0000
  S   S527      1.0  0.61652  0.80652  0.32664  1.0000
  C   C1547     1.0  0.53026  0.70814  0.36573  1.0000
  H   H1555     1.0  0.57514  0.70017  0.37357  1.0000
  H   H1556     1.0  0.50277  0.76759  0.38232  1.0000
  C   C1548     1.0  0.67289  0.75995  0.36891  1.0000
  C   C1549     1.0  0.51040  0.76228  0.36929  1.0000
  H   H1557     1.0  0.52295  0.70325  0.34083  1.0000
  H   H1558     1.0  0.66112  0.75273  0.36942  1.0000
  C   C1550     1.0  0.65083  0.81345  0.60474  1.0000
  C   C1551     1.0  0.54030  0.75293  0.34712  1.0000
  H   H1559     1.0  0.62957  0.58077  0.33430  1.0000
  N   N129      1.0  0.73427  0.69751  0.46260  1.0000
  H   H1560     1.0  0.55100  0.72282  0.39280  1.0000
  H   H1561     1.0  0.72551  0.84322  0.50632  1.0000
  C   C1552     1.0  0.73280  0.82819  0.50963  1.0000
  C   C1553     1.0  0.53056  0.75991  0.36389  1.0000
  H   H1562     1.0  0.54039  0.70197  0.40513  1.0000
  C   C1554     1.0  0.72303  0.84940  0.37146  1.0000
  C   C1555     1.0  0.72137  0.84198  0.39150  1.0000
  N   N130      1.0  0.66506  0.78007  0.37097  1.0000
  C   C1556     1.0  0.67290  0.78817  0.38123  1.0000
  Fe  Fe268     1.0  0.72374  0.76778  0.43710  1.0000
  S   S528      1.0  0.73362  0.83417  0.42593  1.0000
  H   H1563     1.0  0.52062  0.79257  0.32665  1.0000
  C   C1557     1.0  0.66095  0.79444  0.60437  1.0000
  C   C1558     1.0  0.53384  0.79783  0.32385  1.0000
  H   H1564     1.0  0.72154  0.52307  0.31375  1.0000
  H   H1565     1.0  0.73017  0.84045  0.47312  1.0000
  H   H1566     1.0  0.65880  0.54865  0.31511  1.0000
  C   C1559     1.0  0.56774  0.81074  0.31751  1.0000
  H   H1567     1.0  0.71548  0.75975  0.54509  1.0000
  H   H1568     1.0  0.65779  0.74925  0.62383  1.0000
  H   H1569     1.0  0.58102  0.81581  0.31484  1.0000
  H   H1570     1.0  0.71611  0.72361  0.45103  1.0000
  H   H1571     1.0  0.58401  0.74118  0.31506  1.0000
  C   C1560     1.0  0.73084  0.82461  0.47772  1.0000
  H   H1572     1.0  0.73380  0.69906  0.43313  1.0000
  C   C1561     1.0  0.73533  0.84309  0.40088  1.0000
  N   N131      1.0  0.73667  0.81667  0.49643  1.0000
  C   C1562     1.0  0.60132  0.71303  0.31222  1.0000
  H   H1573     1.0  0.72684  0.98192  0.31189  1.0000
  C   C1563     1.0  0.70759  0.71897  0.92341  1.0000
  C   C1564     1.0  0.61123  0.66222  0.93057  1.0000
  H   H1574     1.0  0.64585  0.67884  0.89369  1.0000
  Fe  Fe269     1.0  0.57981  0.79498  0.73204  1.0000
  S   S529      1.0  0.56200  0.80791  0.75752  1.0000
  S   S530      1.0  0.59523  0.81423  0.70654  1.0000
  Fe  Fe270     1.0  0.57478  0.75420  0.75294  1.0000
  S   S531      1.0  0.55757  0.76367  0.78014  1.0000
  S   S532      1.0  0.58163  0.72351  0.74904  1.0000
  Fe  Fe271     1.0  0.54212  0.78799  0.75995  1.0000
  S   S533      1.0  0.50942  0.79301  0.76877  1.0000
  Fe  Fe272     1.0  0.57898  0.78249  0.77501  1.0000
  S   S534      1.0  0.59653  0.78253  0.79628  1.0000
  S   S535      1.0  0.55846  0.77744  0.73282  1.0000
  S   S536      1.0  0.59770  0.77063  0.74944  1.0000
  Fe  Fe273     1.0  0.64947  0.89808  0.81718  1.0000
  S   S537      1.0  0.67392  0.87626  0.82841  1.0000
  S   S538      1.0  0.64944  0.93012  0.80569  1.0000
  Fe  Fe274     1.0  0.62773  0.86661  0.81844  1.0000
  S   S539      1.0  0.65043  0.84243  0.82975  1.0000
  S   S540      1.0  0.60086  0.86252  0.81160  1.0000
  Fe  Fe275     1.0  0.65064  0.86179  0.84903  1.0000
  S   S541      1.0  0.64827  0.85202  0.88134  1.0000
  Fe  Fe276     1.0  0.67149  0.85896  0.80809  1.0000
  S   S542      1.0  0.69503  0.84541  0.78597  1.0000
  S   S543      1.0  0.62618  0.88506  0.83930  1.0000
  S   S544      1.0  0.64863  0.88171  0.79534  1.0000
  Fe  Fe277     1.0  0.55275  0.66214  0.88490  1.0000
  S   S545      1.0  0.57222  0.63592  0.87457  1.0000
  S   S546      1.0  0.52016  0.66752  0.89322  1.0000
  Fe  Fe278     1.0  0.58561  0.68366  0.87643  1.0000
  S   S547      1.0  0.60720  0.65951  0.86462  1.0000
  S   S548      1.0  0.59846  0.70904  0.87485  1.0000
  Fe  Fe279     1.0  0.58457  0.65794  0.85005  1.0000
  S   S549      1.0  0.59232  0.65296  0.81971  1.0000
  Fe  Fe280     1.0  0.59303  0.64005  0.89033  1.0000
  S   S550      1.0  0.61426  0.61992  0.90784  1.0000
  S   S551      1.0  0.56413  0.68391  0.85936  1.0000
  S   S552      1.0  0.57241  0.66441  0.90308  1.0000
  S   S553      1.0  0.65277  0.72168  0.94347  1.0000
  H   H1575     1.0  0.59676  0.83037  0.73910  1.0000
  Fe  Fe281     1.0  0.65909  0.74993  0.94406  1.0000
  S   S554      1.0  0.67545  0.76264  0.91487  1.0000
  Fe  Fe282     1.0  0.66183  0.71131  0.97193  1.0000
  Fe  Fe283     1.0  0.68099  0.52140  0.89210  1.0000
  H   H1576     1.0  0.71305  0.65335  0.93082  1.0000
  S   S555      1.0  0.64943  0.53497  0.89303  1.0000
  C   C1565     1.0  0.71929  0.56157  0.94625  1.0000
  H   H1577     1.0  0.64735  0.82072  0.76159  1.0000
  S   S556      1.0  0.70453  0.53840  0.88252  1.0000
  S   S557      1.0  0.69275  0.50398  0.86877  1.0000
  C   C1566     1.0  0.62914  0.80462  0.74477  1.0000
  H   H1578     1.0  0.62163  0.65836  0.90107  1.0000
  H   H1579     1.0  0.58584  0.66574  0.96264  1.0000
  C   C1567     1.0  0.63690  0.67624  0.90810  1.0000
  C   C1568     1.0  0.62793  0.84805  0.76344  1.0000
  C   C1569     1.0  0.72107  0.86241  0.79305  1.0000
  C   C1570     1.0  0.61037  0.85977  0.75986  1.0000
  C   C1571     1.0  0.50731  0.65307  0.88769  1.0000
  C   C1572     1.0  0.51574  0.63426  0.88484  1.0000
  C   C1573     1.0  0.50462  0.62295  0.88133  1.0000
  H   H1580     1.0  0.62451  0.79373  0.75781  1.0000
  C   C1574     1.0  0.71658  0.85381  0.78023  1.0000
  H   H1581     1.0  0.72595  0.84533  0.75257  1.0000
  H   H1582     1.0  0.53066  0.62826  0.88583  1.0000
  H   H1583     1.0  0.51112  0.60827  0.87952  1.0000
  C   C1575     1.0  0.62378  0.59624  0.90387  1.0000
  C   C1576     1.0  0.64143  0.58617  0.90902  1.0000
  C   C1577     1.0  0.64960  0.56741  0.90558  1.0000
  C   C1578     1.0  0.63986  0.55849  0.89743  1.0000
  C   C1579     1.0  0.62209  0.56848  0.89252  1.0000
  C   C1580     1.0  0.61414  0.58739  0.89555  1.0000
  H   H1584     1.0  0.64887  0.59291  0.91559  1.0000
  H   H1585     1.0  0.66322  0.55973  0.90955  1.0000
  H   H1586     1.0  0.61447  0.56156  0.88633  1.0000
  H   H1587     1.0  0.60045  0.59498  0.89172  1.0000
  C   C1581     1.0  0.59734  0.71448  0.89727  1.0000
  C   C1582     1.0  0.61044  0.72469  0.89884  1.0000
  C   C1583     1.0  0.61028  0.72840  0.91685  1.0000
  C   C1584     1.0  0.59672  0.72225  0.93324  1.0000
  C   C1585     1.0  0.58368  0.70854  0.91362  1.0000
  H   H1588     1.0  0.62097  0.72939  0.88620  1.0000
  H   H1589     1.0  0.62065  0.73594  0.91808  1.0000
  C   C1586     1.0  0.65629  0.82721  0.89047  1.0000
  C   C1587     1.0  0.65176  0.81990  0.91050  1.0000
  C   C1588     1.0  0.65724  0.80003  0.91811  1.0000
  C   C1589     1.0  0.66772  0.78747  0.90573  1.0000
  C   C1590     1.0  0.67244  0.79481  0.88573  1.0000
  C   C1591     1.0  0.66656  0.81460  0.87808  1.0000
  H   H1590     1.0  0.64391  0.82962  0.92016  1.0000
  H   H1591     1.0  0.65373  0.79452  0.93357  1.0000
  H   H1592     1.0  0.68066  0.78516  0.87611  1.0000
  H   H1593     1.0  0.67028  0.82013  0.86265  1.0000
  C   C1592     1.0  0.58283  0.70423  0.76924  1.0000
  C   C1593     1.0  0.59217  0.68573  0.76601  1.0000
  C   C1594     1.0  0.59453  0.67011  0.78163  1.0000
  C   C1595     1.0  0.58749  0.67279  0.80067  1.0000
  C   C1596     1.0  0.57752  0.69118  0.80400  1.0000
  C   C1597     1.0  0.57521  0.70691  0.78828  1.0000
  H   H1594     1.0  0.59796  0.68353  0.75133  1.0000
  H   H1595     1.0  0.60214  0.65596  0.77892  1.0000
  H   H1596     1.0  0.57192  0.69341  0.81860  1.0000
  H   H1597     1.0  0.56778  0.72110  0.79090  1.0000
  S   S558      1.0  0.62890  0.76177  0.95893  1.0000
  C   C1598     1.0  0.62663  0.68148  0.94084  1.0000
  C   C1599     1.0  0.49548  0.79443  0.75183  1.0000
  C   C1600     1.0  0.50291  0.79861  0.73190  1.0000
  C   C1601     1.0  0.66917  0.96831  0.83457  1.0000
  H   H1598     1.0  0.51736  0.80136  0.72659  1.0000
  H   H1599     1.0  0.49726  0.80319  0.70331  1.0000
  C   C1602     1.0  0.59797  0.80505  0.79960  1.0000
  C   C1603     1.0  0.61413  0.80659  0.80554  1.0000
  C   C1604     1.0  0.61530  0.82419  0.80909  1.0000
  C   C1605     1.0  0.60011  0.84025  0.80705  1.0000
  C   C1606     1.0  0.58397  0.83869  0.80108  1.0000
  C   C1607     1.0  0.58299  0.82120  0.79714  1.0000
  H   H1600     1.0  0.62581  0.79414  0.80737  1.0000
  H   H1601     1.0  0.62789  0.82529  0.81347  1.0000
  H   H1602     1.0  0.57218  0.85107  0.79946  1.0000
  H   H1603     1.0  0.57040  0.82010  0.79272  1.0000
  H   H1604     1.0  0.63831  0.77131  0.64678  1.0000
  H   H1605     1.0  0.70516  0.56964  0.95169  1.0000
  C   C1608     1.0  0.60567  0.83532  0.74581  1.0000
  H   H1606     1.0  0.65346  0.96952  0.79417  1.0000
  H   H1607     1.0  0.62638  0.82979  0.67927  1.0000
  H   H1608     1.0  0.60522  0.87348  0.76456  1.0000
  C   C1609     1.0  0.59915  0.85341  0.75097  1.0000
  C   C1610     1.0  0.64107  0.77391  0.68748  1.0000
  C   C1611     1.0  0.62317  0.78274  0.69739  1.0000
  C   C1612     1.0  0.61777  0.80289  0.69443  1.0000
  C   C1613     1.0  0.63046  0.81417  0.68159  1.0000
  C   C1614     1.0  0.72585  0.90921  0.75295  1.0000
  H   H1609     1.0  0.64503  0.75830  0.68967  1.0000
  H   H1610     1.0  0.61340  0.77391  0.70703  1.0000
  H   H1611     1.0  0.67309  0.55118  0.82687  1.0000
  C   C1615     1.0  0.71066  0.65504  0.97523  1.0000
  C   C1616     1.0  0.66982  0.94863  0.84312  1.0000
  C   C1617     1.0  0.66428  0.93656  0.83423  1.0000
  C   C1618     1.0  0.65806  0.94412  0.81670  1.0000
  C   C1619     1.0  0.52250  0.67697  0.83978  1.0000
  S   S559      1.0  0.69504  0.49843  0.91462  1.0000
  H   H1612     1.0  0.67412  0.94281  0.85694  1.0000
  H   H1613     1.0  0.66440  0.92154  0.84117  1.0000
  H   H1614     1.0  0.65813  0.81410  0.66182  1.0000
  N   N132      1.0  0.60709  0.80718  0.86897  1.0000
  C   C1620     1.0  0.60471  0.82684  0.86286  1.0000
  C   C1621     1.0  0.61176  0.79834  0.88661  1.0000
  C   C1622     1.0  0.60633  0.83823  0.87482  1.0000
  C   C1623     1.0  0.61337  0.80931  0.89898  1.0000
  C   C1624     1.0  0.61046  0.82939  0.89307  1.0000
  C   C1625     1.0  0.60576  0.79544  0.85605  1.0000
  H   H1615     1.0  0.60164  0.83385  0.84863  1.0000
  H   H1616     1.0  0.61436  0.78270  0.89121  1.0000
  H   H1617     1.0  0.60479  0.85378  0.86986  1.0000
  H   H1618     1.0  0.61728  0.80228  0.91287  1.0000
  H   H1619     1.0  0.61213  0.83808  0.90231  1.0000
  H   H1620     1.0  0.60111  0.78181  0.86439  1.0000
  H   H1621     1.0  0.59494  0.80338  0.84696  1.0000
  H   H1622     1.0  0.62004  0.79183  0.84638  1.0000
  H   H1623     1.0  0.67225  0.90912  0.77570  1.0000
  H   H1624     1.0  0.64507  0.80088  0.73986  1.0000
  H   H1625     1.0  0.70201  0.64436  0.97765  1.0000
  C   C1626     1.0  0.66367  0.97563  0.81668  1.0000
  C   C1627     1.0  0.72036  0.66537  0.92696  1.0000
  C   C1628     1.0  0.63396  0.82998  0.75822  1.0000
  C   C1629     1.0  0.63902  0.60611  0.85399  1.0000
  H   H1626     1.0  0.63034  0.61968  0.85754  1.0000
  N   N133      1.0  0.62295  0.82393  0.74934  1.0000
  C   C1630     1.0  0.49147  0.79970  0.71874  1.0000
  C   C1631     1.0  0.69587  0.90176  0.75240  1.0000
  C   C1632     1.0  0.73328  0.68243  0.96854  1.0000
  H   H1627     1.0  0.61526  0.97610  0.82714  1.0000
  C   C1633     1.0  0.67167  0.55174  0.84224  1.0000
  H   H1628     1.0  0.70821  0.54421  0.93349  1.0000
  C   C1634     1.0  0.64846  0.80532  0.67174  1.0000
  H   H1629     1.0  0.72200  0.89663  0.73088  1.0000
  C   C1635     1.0  0.63241  0.59613  0.84400  1.0000
  C   C1636     1.0  0.70977  0.68428  0.92698  1.0000
  H   H1630     1.0  0.71154  0.86341  0.80692  1.0000
  S   S560      1.0  0.72884  0.53040  0.82944  1.0000
  C   C1637     1.0  0.71302  0.68810  0.97227  1.0000
  C   C1638     1.0  0.73578  0.56534  0.94972  1.0000
  H   H1631     1.0  0.52013  0.75342  0.76091  1.0000
  C   C1639     1.0  0.72099  0.54721  0.93593  1.0000
  H   H1632     1.0  0.49786  0.63953  0.83249  1.0000
  C   C1640     1.0  0.50268  0.68123  0.84013  1.0000
  S   S561      1.0  0.67533  0.77337  0.66136  1.0000
  C   C1641     1.0  0.69854  0.91540  0.77810  1.0000
  H   H1633     1.0  0.62785  0.68832  0.95189  1.0000
  H   H1634     1.0  0.52918  0.68738  0.84239  1.0000
  C   C1642     1.0  0.63883  0.68443  0.92257  1.0000
  N   N134      1.0  0.61272  0.67093  0.94446  1.0000
  H   H1635     1.0  0.57259  0.70803  0.94409  1.0000
  C   C1643     1.0  0.66706  0.58022  0.85617  1.0000
  S   S562      1.0  0.73405  0.49632  0.88061  1.0000
  H   H1636     1.0  0.68028  0.57388  0.86150  1.0000
  C   C1644     1.0  0.65642  0.59813  0.86016  1.0000
  N   N135      1.0  0.71764  0.91514  0.77011  1.0000
  C   C1645     1.0  0.48883  0.74013  0.76470  1.0000
  H   H1637     1.0  0.54891  0.65547  0.83635  1.0000
  C   C1646     1.0  0.70174  0.67430  0.97574  1.0000
  H   H1638     1.0  0.61096  0.96729  0.87331  1.0000
  N   N136      1.0  0.50083  0.74633  0.74766  1.0000
  C   C1647     1.0  0.64339  0.57821  0.84030  1.0000
  C   C1648     1.0  0.65374  0.78514  0.67458  1.0000
  S   S563      1.0  0.73318  0.58216  0.96416  1.0000
  C   C1649     1.0  0.58324  0.71262  0.93150  1.0000
  H   H1639     1.0  0.49334  0.73728  0.77836  1.0000
  H   H1640     1.0  0.57325  0.70106  0.91246  1.0000
  H   H1641     1.0  0.58530  0.86224  0.74844  1.0000
  C   C1650     1.0  0.53353  0.65901  0.83652  1.0000
  H   H1642     1.0  0.61868  0.60209  0.83950  1.0000
  Fe  Fe284     1.0  0.62355  0.73257  0.96018  1.0000
  N   N137      1.0  0.60253  0.72391  0.81401  1.0000
  C   C1651     1.0  0.60977  0.70508  0.82180  1.0000
  C   C1652     1.0  0.60649  0.73064  0.79439  1.0000
  C   C1653     1.0  0.62061  0.69224  0.80980  1.0000
  C   C1654     1.0  0.61730  0.71824  0.78194  1.0000
  C   C1655     1.0  0.62425  0.69888  0.78973  1.0000
  C   C1656     1.0  0.59107  0.73712  0.82679  1.0000
  H   H1643     1.0  0.60686  0.69982  0.83736  1.0000
  H   H1644     1.0  0.60094  0.74558  0.78825  1.0000
  H   H1645     1.0  0.62556  0.67711  0.81598  1.0000
  H   H1646     1.0  0.61963  0.72347  0.76634  1.0000
  H   H1647     1.0  0.63198  0.68893  0.78021  1.0000
  H   H1648     1.0  0.58292  0.72930  0.84030  1.0000
  H   H1649     1.0  0.60070  0.74430  0.83072  1.0000
  H   H1650     1.0  0.58029  0.74847  0.81961  1.0000
  H   H1651     1.0  0.62277  0.80380  0.73281  1.0000
  H   H1652     1.0  0.68655  0.54865  0.84488  1.0000
  H   H1653     1.0  0.63646  0.85264  0.77089  1.0000
  H   H1654     1.0  0.64926  0.69350  0.91953  1.0000
  H   H1655     1.0  0.72411  0.91887  0.79559  1.0000
  Fe  Fe285     1.0  0.71968  0.51426  0.90308  1.0000
  C   C1657     1.0  0.62318  0.66490  0.91216  1.0000
  H   H1656     1.0  0.66127  0.60542  0.86862  1.0000
  H   H1657     1.0  0.49418  0.69513  0.84293  1.0000
  C   C1658     1.0  0.65810  0.96359  0.80782  1.0000
  H   H1658     1.0  0.66430  0.54013  0.85181  1.0000
  N   N138      1.0  0.71899  0.69935  0.92284  1.0000
  S   S564      1.0  0.59695  0.72524  0.95631  1.0000
  H   H1659     1.0  0.63800  0.57029  0.83291  1.0000
  C   C1659     1.0  0.68738  0.90881  0.76932  1.0000
  Fe  Fe286     1.0  0.71729  0.51921  0.86101  1.0000
  N   N139      1.0  0.66059  0.57062  0.84616  1.0000
  C   C1660     1.0  0.52464  0.64553  0.83375  1.0000
  C   C1661     1.0  0.73079  0.64953  0.97097  1.0000
  H   H1660     1.0  0.70619  0.70302  0.97271  1.0000
  H   H1661     1.0  0.50449  0.75517  0.71689  1.0000
  H   H1662     1.0  0.69181  0.92058  0.79143  1.0000
  C   C1662     1.0  0.52021  0.74820  0.74787  1.0000
  C   C1663     1.0  0.48789  0.66058  0.88662  1.0000
  C   C1664     1.0  0.59975  0.66852  0.96354  1.0000
  C   C1665     1.0  0.49513  0.74999  0.73040  1.0000
  H   H1663     1.0  0.69413  0.68676  0.93093  1.0000
  H   H1664     1.0  0.53303  0.63140  0.83153  1.0000
  H   H1665     1.0  0.52560  0.75898  0.73513  1.0000
  H   H1666     1.0  0.53051  0.73405  0.74773  1.0000
  C   C1666     1.0  0.71519  0.90213  0.74401  1.0000
  C   C1667     1.0  0.72916  0.92202  0.77957  1.0000
  S   S565      1.0  0.67097  0.73836  0.97141  1.0000
  H   H1667     1.0  0.72427  0.49121  0.83459  1.0000
  H   H1668     1.0  0.60061  0.65334  0.93353  1.0000
  N   N140      1.0  0.49404  0.66787  0.83753  1.0000
  H   H1669     1.0  0.63660  0.96651  0.86906  1.0000
  C   C1668     1.0  0.62429  0.96837  0.86199  1.0000
  C   C1669     1.0  0.50476  0.65024  0.83426  1.0000
  H   H1670     1.0  0.71568  0.73020  0.91426  1.0000
  H   H1671     1.0  0.62771  0.95622  0.85432  1.0000
  H   H1672     1.0  0.68748  0.89600  0.74585  1.0000
  C   C1670     1.0  0.73435  0.85101  0.64953  1.0000
  H   H1673     1.0  0.70340  0.72125  0.93851  1.0000
  H   H1674     1.0  0.60673  0.65630  0.97377  1.0000
  H   H1675     1.0  0.72804  0.93785  0.77432  1.0000
  H   H1676     1.0  0.61981  0.80458  0.64805  1.0000
  H   H1677     1.0  0.69426  0.72149  0.91775  1.0000
  H   H1678     1.0  0.59615  0.68197  0.96935  1.0000
  C   C1671     1.0  0.72936  0.85203  0.76250  1.0000
  H   H1679     1.0  0.73666  0.82056  0.66141  1.0000
  S   S566      1.0  0.72249  0.79488  0.64570  1.0000
  H   H1680     1.0  0.73739  0.63488  0.96950  1.0000
  Fe  Fe287     1.0  0.70843  0.48235  0.89029  1.0000
  S   S567      1.0  0.78713  0.24312  0.02239  1.0000
  C   C1672     1.0  0.96123  0.20311  0.29872  1.0000
  H   H1681     1.0  0.94286  0.22690  0.28370  1.0000
  H   H1682     1.0  0.74561  0.24576  0.04106  1.0000
  C   C1673     1.0  0.74268  0.10970  0.01354  1.0000
  H   H1683     1.0  0.76912  0.18253  0.07127  1.0000
  C   C1674     1.0  0.75581  0.36406  0.14109  1.0000
  H   H1684     1.0  0.79108  0.01350  0.27321  1.0000
  N   N141      1.0  0.73875  0.21938  0.04045  1.0000
  H   H1685     1.0  0.82886  0.19844  0.07646  1.0000
  Fe  Fe288     1.0  0.92186  0.24760  0.24430  1.0000
  S   S568      1.0  0.93270  0.26523  0.21521  1.0000
  S   S569      1.0  0.93125  0.21524  0.25172  1.0000
  Fe  Fe289     1.0  0.89782  0.28251  0.26008  1.0000
  S   S570      1.0  0.90643  0.30321  0.23237  1.0000
  S   S571      1.0  0.87752  0.28858  0.28771  1.0000
  Fe  Fe290     1.0  0.90187  0.28164  0.21782  1.0000
  S   S572      1.0  0.88618  0.29132  0.19285  1.0000
  Fe  Fe291     1.0  0.93643  0.28500  0.23239  1.0000
  S   S573      1.0  0.89089  0.26242  0.24556  1.0000
  S   S574      1.0  0.92800  0.26594  0.26129  1.0000
  Fe  Fe292     1.0  0.81340  0.24861  0.11657  1.0000
  S   S575      1.0  0.80631  0.22952  0.14593  1.0000
  S   S576      1.0  0.82965  0.23603  0.09018  1.0000
  Fe  Fe293     1.0  0.79393  0.28517  0.13178  1.0000
  S   S577      1.0  0.78434  0.26926  0.16206  1.0000
  S   S578      1.0  0.78851  0.31727  0.12085  1.0000
  Fe  Fe294     1.0  0.81449  0.25129  0.15763  1.0000
  S   S579      1.0  0.82986  0.24327  0.18288  1.0000
  Fe  Fe295     1.0  0.77701  0.24911  0.14780  1.0000
  H   H1686     1.0  0.81666  0.19793  0.10987  1.0000
  S   S580      1.0  0.82451  0.26847  0.12805  1.0000
  S   S581      1.0  0.78365  0.26698  0.11787  1.0000
  H   H1687     1.0  0.77224  0.18847  0.10200  1.0000
  C   C1675     1.0  0.89446  0.18841  0.30799  1.0000
  H   H1688     1.0  0.77879  0.13412  0.99797  1.0000
  C   C1676     1.0  0.77349  0.33207  0.13646  1.0000
  C   C1677     1.0  0.76723  0.32459  0.15613  1.0000
  H   H1689     1.0  0.79504  0.18898  0.12189  1.0000
  H   H1690     1.0  0.79357  0.21394  0.10930  1.0000
  H   H1691     1.0  0.77145  0.30936  0.16197  1.0000
  H   H1692     1.0  0.79303  0.44404  0.29642  1.0000
  C   C1678     1.0  0.94818  0.09579  0.30898  1.0000
  C   C1679     1.0  0.86954  0.27870  0.19071  1.0000
  C   C1680     1.0  0.86362  0.28253  0.17302  1.0000
  C   C1681     1.0  0.85124  0.27199  0.17047  1.0000
  C   C1682     1.0  0.84445  0.25772  0.18573  1.0000
  C   C1683     1.0  0.84988  0.25432  0.20359  1.0000
  C   C1684     1.0  0.86245  0.26469  0.20606  1.0000
  H   H1693     1.0  0.86908  0.29333  0.16107  1.0000
  H   H1694     1.0  0.84728  0.27463  0.15659  1.0000
  H   H1695     1.0  0.84459  0.24338  0.21549  1.0000
  H   H1696     1.0  0.86674  0.26170  0.21978  1.0000
  H   H1697     1.0  0.97400  0.11737  0.29130  1.0000
  N   N142      1.0  0.76998  0.46683  0.30499  1.0000
  S   S582      1.0  0.75002  0.23669  0.15926  1.0000
  H   H1698     1.0  0.82076  0.36698  0.26338  1.0000
  N   N143      1.0  0.82842  0.33843  0.25783  1.0000
  C   C1685     1.0  0.94410  0.21693  0.29742  1.0000
  H   H1699     1.0  0.74147  0.45326  0.23049  1.0000
  H   H1700     1.0  0.80075  0.35656  0.26370  1.0000
  S   S583      1.0  0.78606  0.17504  0.98515  1.0000
  H   H1701     1.0  0.75461  0.20419  0.99797  1.0000
  C   C1686     1.0  0.86844  0.31305  0.28892  1.0000
  C   C1687     1.0  0.87180  0.32786  0.27271  1.0000
  H   H1702     1.0  0.75132  0.37930  0.13516  1.0000
  C   C1688     1.0  0.76210  0.04555  0.30033  1.0000
  C   C1689     1.0  0.98017  0.29050  0.23885  1.0000
  H   H1703     1.0  0.88078  0.32445  0.25930  1.0000
  H   H1704     1.0  0.78095  0.11148  0.01544  1.0000
  H   H1705     1.0  0.81863  0.46140  0.29408  1.0000
  C   C1690     1.0  0.91386  0.17970  0.30234  1.0000
  H   H1706     1.0  0.76075  0.22584  0.01564  1.0000
  C   C1691     1.0  0.76792  0.35182  0.12901  1.0000
  C   C1692     1.0  0.76947  0.34416  0.30573  1.0000
  C   C1693     1.0  0.81582  0.19468  0.07546  1.0000
  C   C1694     1.0  0.75527  0.33689  0.16829  1.0000
  H   H1707     1.0  0.82321  0.31543  0.28211  1.0000
  C   C1695     1.0  0.74171  0.36605  0.29463  1.0000
  H   H1708     1.0  0.79128  0.02949  0.29887  1.0000
  H   H1709     1.0  0.89093  0.22622  0.26965  1.0000
  C   C1696     1.0  0.75356  0.35948  0.30820  1.0000
  H   H1710     1.0  0.86548  0.35857  0.26104  1.0000
  C   C1697     1.0  0.92491  0.18759  0.28466  1.0000
  C   C1698     1.0  0.77057  0.12406  0.00921  1.0000
  C   C1699     1.0  0.78900  0.45848  0.29945  1.0000
  C   C1700     1.0  0.91679  0.20460  0.27295  1.0000
  C   C1701     1.0  0.89741  0.21327  0.27862  1.0000
  H   H1711     1.0  0.85831  0.33326  0.21462  1.0000
  C   C1702     1.0  0.83061  0.31943  0.26720  1.0000
  C   C1703     1.0  0.79759  0.18713  0.05621  1.0000
  H   H1712     1.0  0.74917  0.17113  0.98358  1.0000
  C   C1704     1.0  0.79937  0.24221  0.04057  1.0000
  C   C1705     1.0  0.78856  0.24645  0.05841  1.0000
  C   C1706     1.0  0.79774  0.24518  0.07349  1.0000
  C   C1707     1.0  0.81786  0.23985  0.07081  1.0000
  C   C1708     1.0  0.82871  0.23587  0.05283  1.0000
  C   C1709     1.0  0.81950  0.23698  0.03776  1.0000
  H   H1713     1.0  0.77300  0.25062  0.06066  1.0000
  H   H1714     1.0  0.78917  0.24798  0.08726  1.0000
  H   H1715     1.0  0.84428  0.23166  0.05064  1.0000
  C   C1710     1.0  0.98275  0.27161  0.24983  1.0000
  C   C1711     1.0  0.86313  0.34720  0.27372  1.0000
  C   C1712     1.0  0.80355  0.46822  0.29809  1.0000
  H   H1716     1.0  0.75704  0.24624  0.11749  1.0000
  H   H1717     1.0  0.97299  0.20250  0.28616  1.0000
  C   C1713     1.0  0.77842  0.03253  0.29325  1.0000
  H   H1718     1.0  0.97299  0.26249  0.25059  1.0000
  H   H1719     1.0  0.75935  0.44630  0.29657  1.0000
  C   C1714     1.0  0.81450  0.19140  0.05783  1.0000
  H   H1720     1.0  0.74400  0.98779  0.17727  1.0000
  S   S584      1.0  0.81906  0.20018  0.99921  1.0000
  C   C1715     1.0  0.74593  0.22614  0.10887  1.0000
  C   C1716     1.0  0.74499  0.03961  0.27865  1.0000
  C   C1717     1.0  0.85690  0.31771  0.30630  1.0000
  H   H1721     1.0  0.81331  0.34897  0.28358  1.0000
  H   H1722     1.0  0.83632  0.35852  0.23171  1.0000
  C   C1718     1.0  0.85117  0.35178  0.29097  1.0000
  S   S585      1.0  0.83866  0.37574  0.29142  1.0000
  H   H1723     1.0  0.75333  0.01883  0.15830  1.0000
  C   C1719     1.0  0.74309  0.23183  0.05090  1.0000
  N   N144      1.0  0.89548  0.21803  0.21007  1.0000
  C   C1720     1.0  0.88528  0.21685  0.19730  1.0000
  C   C1721     1.0  0.90781  0.23055  0.20474  1.0000
  C   C1722     1.0  0.88755  0.22817  0.17851  1.0000
  C   C1723     1.0  0.91027  0.24225  0.18614  1.0000
  C   C1724     1.0  0.90008  0.24100  0.17296  1.0000
  C   C1725     1.0  0.89242  0.20678  0.23000  1.0000
  H   H1724     1.0  0.87491  0.20752  0.20168  1.0000
  H   H1725     1.0  0.91562  0.23171  0.21500  1.0000
  H   H1726     1.0  0.87900  0.22760  0.16861  1.0000
  H   H1727     1.0  0.91955  0.25265  0.18216  1.0000
  H   H1728     1.0  0.90140  0.25041  0.15870  1.0000
  H   H1729     1.0  0.88282  0.21620  0.23991  1.0000
  H   H1730     1.0  0.88581  0.19431  0.23136  1.0000
  H   H1731     1.0  0.90638  0.20084  0.23485  1.0000
  C   C1726     1.0  0.85281  0.30993  0.23885  1.0000
  H   H1732     1.0  0.82797  0.23376  0.02402  1.0000
  H   H1733     1.0  0.74985  0.23230  0.09358  1.0000
  S   S586      1.0  0.96215  0.29935  0.22485  1.0000
  C   C1727     1.0  0.84292  0.30492  0.25791  1.0000
  N   N145      1.0  0.80067  0.19381  0.09101  1.0000
  N   N146      1.0  0.80458  0.31489  0.17561  1.0000
  C   C1728     1.0  0.79579  0.32982  0.18502  1.0000
  C   C1729     1.0  0.80394  0.29622  0.18504  1.0000
  C   C1730     1.0  0.78592  0.32620  0.20436  1.0000
  C   C1731     1.0  0.79428  0.29206  0.20436  1.0000
  C   C1732     1.0  0.78524  0.30718  0.21407  1.0000
  C   C1733     1.0  0.81555  0.31878  0.15563  1.0000
  H   H1734     1.0  0.79610  0.34465  0.17750  1.0000
  H   H1735     1.0  0.81079  0.28441  0.17757  1.0000
  H   H1736     1.0  0.77873  0.33803  0.21180  1.0000
  H   H1737     1.0  0.79388  0.27717  0.21169  1.0000
  H   H1738     1.0  0.77762  0.30421  0.22907  1.0000
  H   H1739     1.0  0.83077  0.31852  0.15562  1.0000
  H   H1740     1.0  0.81540  0.30782  0.14761  1.0000
  H   H1741     1.0  0.80911  0.33304  0.14738  1.0000
  C   C1734     1.0  0.80154  0.19882  0.10892  1.0000
  H   H1742     1.0  0.93990  0.18083  0.28034  1.0000
  C   C1735     1.0  0.74606  0.20551  0.01229  1.0000
  C   C1736     1.0  0.76044  0.11896  0.98166  1.0000
  C   C1737     1.0  0.83804  0.34346  0.23911  1.0000
  C   C1738     1.0  0.81510  0.35345  0.26755  1.0000
  Fe  Fe296     1.0  0.80362  0.23110  0.99581  1.0000
  C   C1739     1.0  0.85043  0.32930  0.22936  1.0000
  H   H1743     1.0  0.82635  0.19268  0.04536  1.0000
  S   S587      1.0  0.76202  0.01445  0.25366  1.0000
  C   C1740     1.0  0.76154  0.02679  0.27146  1.0000
  H   H1744     1.0  0.78510  0.32304  0.28821  1.0000
  N   N147      1.0  0.75758  0.11748  0.00123  1.0000
  H   H1745     1.0  0.79631  0.18487  0.04251  1.0000
  C   C1741     1.0  0.77311  0.33516  0.28993  1.0000
  C   C1742     1.0  0.76086  0.34156  0.27666  1.0000
  H   H1746     1.0  0.86246  0.29888  0.23145  1.0000
  H   H1747     1.0  0.75634  0.22449  0.05668  1.0000
  S   S588      1.0  0.76471  0.33047  0.25705  1.0000
  C   C1743     1.0  0.77822  0.02335  0.27875  1.0000
  H   H1748     1.0  0.84515  0.28995  0.26562  1.0000
  C   C1744     1.0  0.78416  0.18933  0.08963  1.0000
  C   C1745     1.0  0.78235  0.18591  0.07226  1.0000
  H   H1749     1.0  0.77283  0.35767  0.11379  1.0000
  H   H1750     1.0  0.76218  0.13221  0.02072  1.0000
  C   C1746     1.0  0.88622  0.20508  0.29601  1.0000
  H   H1751     1.0  0.90936  0.23757  0.29631  1.0000
  H   H1752     1.0  0.94639  0.10286  0.29435  1.0000
  C   C1747     1.0  0.75019  0.23398  0.12244  1.0000
  H   H1753     1.0  0.95954  0.13149  0.30907  1.0000
  H   H1754     1.0  0.74809  0.07620  0.17356  1.0000
  C   C1748     1.0  0.74947  0.21771  0.02237  1.0000
  H   H1755     1.0  0.74121  0.30494  0.13509  1.0000
  C   C1749     1.0  0.74939  0.35661  0.16073  1.0000
  H   H1756     1.0  0.87122  0.21185  0.30032  1.0000
  C   C1750     1.0  0.91119  0.23223  0.31157  1.0000
  C   C1751     1.0  0.74533  0.04914  0.29298  1.0000
  C   C1752     1.0  0.96942  0.11746  0.30703  1.0000
  C   C1753     1.0  0.74524  0.35701  0.27904  1.0000
  H   H1757     1.0  0.75029  0.33098  0.18332  1.0000
  C   C1754     1.0  0.74507  0.22639  0.14224  1.0000
  C   C1755     1.0  0.73822  0.01806  0.16355  1.0000
  C   C1756     1.0  0.84849  0.33703  0.30738  1.0000
  S   S589      1.0  0.73969  0.14774  0.09347  1.0000
  H   H1758     1.0  0.74714  0.98939  0.29383  1.0000
  S   S590      1.0  0.74018  0.10554  0.14029  1.0000
  H   H1759     1.0  0.74032  0.10868  0.02906  1.0000
  H   H1760     1.0  0.92038  0.16694  0.31157  1.0000
  H   H1761     1.0  0.74131  0.46614  0.30388  1.0000
  Fe  Fe297     1.0  0.73802  0.34179  0.24443  1.0000
  H   H1762     1.0  0.87197  0.10051  0.31143  1.0000
  C   C1757     1.0  0.75496  0.45616  0.30697  1.0000
  H   H1763     1.0  0.82911  0.06843  0.40547  1.0000
  H   H1764     1.0  0.77819  0.40561  0.39008  1.0000
  H   H1765     1.0  0.75205  0.32912  0.42340  1.0000
  H   H1766     1.0  0.74526  0.16376  0.62508  1.0000
  Fe  Fe298     1.0  0.81026  0.24228  0.61090  1.0000
  C   C1758     1.0  0.74092  0.05777  0.40611  1.0000
  S   S591      1.0  0.79605  0.25947  0.58566  1.0000
  H   H1767     1.0  0.75863  0.12352  0.61981  1.0000
  H   H1768     1.0  0.81703  0.19639  0.37316  1.0000
  S   S592      1.0  0.85297  0.06975  0.31443  1.0000
  C   C1759     1.0  0.74776  0.08223  0.41873  1.0000
  S   S593      1.0  0.83190  0.25108  0.62217  1.0000
  S   S594      1.0  0.82701  0.21194  0.61129  1.0000
  H   H1769     1.0  0.83426  0.26291  0.39854  1.0000
  C   C1760     1.0  0.93063  0.20491  0.33030  1.0000
  H   H1770     1.0  0.77859  0.33888  0.31627  1.0000
  H   H1771     1.0  0.81456  0.31449  0.35869  1.0000
  Fe  Fe299     1.0  0.79462  0.23049  0.48923  1.0000
  S   S595      1.0  0.76335  0.24394  0.48963  1.0000
  S   S596      1.0  0.80745  0.21826  0.51596  1.0000
  Fe  Fe300     1.0  0.80332  0.22884  0.44648  1.0000
  S   S597      1.0  0.77270  0.24188  0.44367  1.0000
  S   S598      1.0  0.82306  0.22313  0.41843  1.0000
  Fe  Fe301     1.0  0.77442  0.26237  0.46093  1.0000
  S   S599      1.0  0.76088  0.29364  0.45066  1.0000
  Fe  Fe302     1.0  0.76470  0.22229  0.47216  1.0000
  C   C1761     1.0  0.75435  0.18966  0.60735  1.0000
  S   S600      1.0  0.80577  0.25065  0.46190  1.0000
  S   S601      1.0  0.79520  0.20748  0.47368  1.0000
  Fe  Fe303     1.0  0.90216  0.14190  0.39043  1.0000
  S   S602      1.0  0.92562  0.11618  0.38423  1.0000
  S   S603      1.0  0.88887  0.14772  0.42027  1.0000
  H   H1772     1.0  0.94220  0.19101  0.62853  1.0000
  S   S604      1.0  0.92050  0.13089  0.33893  1.0000
  Fe  Fe304     1.0  0.90682  0.11252  0.36604  1.0000
  S   S605      1.0  0.90042  0.08314  0.36938  1.0000
  Fe  Fe305     1.0  0.93731  0.13690  0.35781  1.0000
  S   S606      1.0  0.88262  0.13662  0.37427  1.0000
  S   S607      1.0  0.91544  0.16296  0.36561  1.0000
  Fe  Fe306     1.0  0.83124  0.05045  0.32856  1.0000
  H   H1773     1.0  0.77968  0.33091  0.36933  1.0000
  Fe  Fe307     1.0  0.79013  0.04626  0.33009  1.0000
  S   S608      1.0  0.73863  0.14308  0.58937  1.0000
  Fe  Fe308     1.0  0.80437  0.04171  0.36713  1.0000
  S   S609      1.0  0.79881  0.05132  0.39528  1.0000
  S   S610      1.0  0.80171  0.06574  0.34122  1.0000
  Fe  Fe309     1.0  0.80269  0.36377  0.36105  1.0000
  S   S611      1.0  0.81870  0.38720  0.34411  1.0000
  S   S612      1.0  0.81471  0.34361  0.38609  1.0000
  Fe  Fe310     1.0  0.78925  0.40592  0.34353  1.0000
  C   C1762     1.0  0.81132  0.30267  0.37066  1.0000
  S   S613      1.0  0.77340  0.38313  0.36264  1.0000
  H   H1774     1.0  0.85452  0.30634  0.31897  1.0000
  C   C1763     1.0  0.76071  0.05118  0.39961  1.0000
  H   H1775     1.0  0.77872  0.19762  0.55957  1.0000
  H   H1776     1.0  0.79390  0.20164  0.40369  1.0000
  C   C1764     1.0  0.74011  0.08240  0.48551  1.0000
  C   C1765     1.0  0.79472  0.45027  0.34730  1.0000
  C   C1766     1.0  0.81450  0.44417  0.34037  1.0000
  C   C1767     1.0  0.82727  0.45620  0.33869  1.0000
  C   C1768     1.0  0.74354  0.19479  0.42699  1.0000
  C   C1769     1.0  0.98641  0.14932  0.38846  1.0000
  H   H1777     1.0  0.84518  0.16878  0.37388  1.0000
  H   H1778     1.0  0.81999  0.43018  0.33645  1.0000
  H   H1779     1.0  0.84261  0.45141  0.33355  1.0000
  H   H1780     1.0  0.76245  0.15178  0.54577  1.0000
  H   H1781     1.0  0.78397  0.39623  0.41390  1.0000
  H   H1782     1.0  0.74893  0.20076  0.41193  1.0000
  C   C1770     1.0  0.76220  0.20611  0.53732  1.0000
  Fe  Fe311     1.0  0.89785  0.15547  0.34883  1.0000
  S   S614      1.0  0.80161  0.35354  0.33500  1.0000
  H   H1783     1.0  0.85937  0.24195  0.58547  1.0000
  H   H1784     1.0  0.83684  0.26723  0.56728  1.0000
  C   C1771     1.0  0.84476  0.25442  0.56161  1.0000
  H   H1785     1.0  0.94903  0.18104  0.34586  1.0000
  C   C1772     1.0  0.76761  0.07517  0.41283  1.0000
  C   C1773     1.0  0.77407  0.05975  0.40312  1.0000
  C   C1774     1.0  0.89402  0.20383  0.62890  1.0000
  C   C1775     1.0  0.78856  0.28690  0.39479  1.0000
  C   C1776     1.0  0.76262  0.16702  0.54339  1.0000
  H   H1786     1.0  0.77795  0.08190  0.41541  1.0000
  H   H1787     1.0  0.76565  0.03918  0.39225  1.0000
  C   C1777     1.0  0.88868  0.07914  0.35299  1.0000
  C   C1778     1.0  0.88525  0.09299  0.33632  1.0000
  H   H1788     1.0  0.98042  0.15075  0.40334  1.0000
  C   C1779     1.0  0.86751  0.07274  0.32887  1.0000
  C   C1780     1.0  0.87144  0.05873  0.34526  1.0000
  C   C1781     1.0  0.88216  0.06184  0.35715  1.0000
  H   H1789     1.0  0.89032  0.10634  0.33293  1.0000
  H   H1790     1.0  0.75400  0.26989  0.58655  1.0000
  H   H1791     1.0  0.86629  0.04544  0.34876  1.0000
  H   H1792     1.0  0.88501  0.05094  0.36987  1.0000
  S   S615      1.0  0.96869  0.13827  0.34472  1.0000
  C   C1782     1.0  0.79491  0.18046  0.43921  1.0000
  Fe  Fe312     1.0  0.81966  0.01102  0.34239  1.0000
  C   C1783     1.0  0.82027  0.47431  0.34390  1.0000
  H   H1793     1.0  0.84346  0.05386  0.38833  1.0000
  C   C1784     1.0  0.93832  0.08095  0.31900  1.0000
  C   C1785     1.0  0.80414  0.42528  0.39075  1.0000
  C   C1786     1.0  0.77587  0.30814  0.43356  1.0000
  C   C1787     1.0  0.76759  0.32494  0.42161  1.0000
  C   C1788     1.0  0.77934  0.33615  0.40715  1.0000
  C   C1789     1.0  0.79943  0.33068  0.40474  1.0000
  C   C1790     1.0  0.80768  0.31426  0.41707  1.0000
  C   C1791     1.0  0.79594  0.30294  0.43135  1.0000
  S   S616      1.0  0.78727  0.39965  0.31576  1.0000
  H   H1794     1.0  0.77284  0.34895  0.39789  1.0000
  H   H1795     1.0  0.82321  0.31005  0.41536  1.0000
  H   H1796     1.0  0.80246  0.29023  0.44066  1.0000
  C   C1792     1.0  0.84230  0.20302  0.41958  1.0000
  C   C1793     1.0  0.84484  0.19045  0.43719  1.0000
  C   C1794     1.0  0.85958  0.17372  0.43742  1.0000
  C   C1795     1.0  0.87170  0.16954  0.42005  1.0000
  C   C1796     1.0  0.86935  0.18235  0.40251  1.0000
  C   C1797     1.0  0.85472  0.19908  0.40230  1.0000
  H   H1797     1.0  0.83540  0.19350  0.45060  1.0000
  H   H1798     1.0  0.86143  0.16387  0.45102  1.0000
  H   H1799     1.0  0.87856  0.17921  0.38906  1.0000
  H   H1800     1.0  0.85279  0.20878  0.38864  1.0000
  C   C1798     1.0  0.83463  0.17078  0.38711  1.0000
  C   C1799     1.0  0.77912  0.19921  0.61715  1.0000
  C   C1800     1.0  0.76684  0.20218  0.60436  1.0000
  C   C1801     1.0  0.75301  0.18015  0.52953  1.0000
  H   H1801     1.0  0.91871  0.20546  0.34273  1.0000
  S   S617      1.0  0.79172  0.23529  0.64045  1.0000
  H   H1802     1.0  0.78819  0.20936  0.61498  1.0000
  H   H1803     1.0  0.76682  0.21443  0.59230  1.0000
  C   C1802     1.0  0.82668  0.10059  0.34921  1.0000
  H   H1804     1.0  0.74279  0.09442  0.42582  1.0000
  C   C1803     1.0  0.79754  0.24778  0.56680  1.0000
  C   C1804     1.0  0.80542  0.22805  0.56830  1.0000
  C   C1805     1.0  0.80798  0.21923  0.55269  1.0000
  C   C1806     1.0  0.80218  0.22992  0.53553  1.0000
  C   C1807     1.0  0.79352  0.24954  0.53413  1.0000
  C   C1808     1.0  0.79130  0.25849  0.54974  1.0000
  H   H1805     1.0  0.80970  0.21948  0.58139  1.0000
  H   H1806     1.0  0.81465  0.20403  0.55390  1.0000
  H   H1807     1.0  0.78905  0.25793  0.52087  1.0000
  H   H1808     1.0  0.78509  0.27379  0.54844  1.0000
  S   S618      1.0  0.81953  0.03313  0.31451  1.0000
  H   H1809     1.0  0.96022  0.14405  0.38432  1.0000
  C   C1809     1.0  0.83707  0.15824  0.40473  1.0000
  C   C1810     1.0  0.73887  0.07351  0.47124  1.0000
  H   H1810     1.0  0.78936  0.19620  0.43872  1.0000
  C   C1811     1.0  0.78188  0.15961  0.56848  1.0000
  H   H1811     1.0  0.85565  0.09954  0.38679  1.0000
  C   C1812     1.0  0.84713  0.09992  0.37651  1.0000
  H   H1812     1.0  0.78976  0.43411  0.39387  1.0000
  C   C1813     1.0  0.84091  0.40330  0.38131  1.0000
  C   C1814     1.0  0.96111  0.09324  0.33642  1.0000
  N   N148      1.0  0.83954  0.08433  0.37768  1.0000
  H   H1813     1.0  0.81802  0.44963  0.38393  1.0000
  C   C1815     1.0  0.81891  0.18638  0.38671  1.0000
  H   H1814     1.0  0.84958  0.14644  0.40544  1.0000
  H   H1815     1.0  0.78307  0.14434  0.56775  1.0000
  C   C1816     1.0  0.94765  0.19105  0.33217  1.0000
  C   C1817     1.0  0.76325  0.11123  0.63066  1.0000
  N   N149      1.0  0.85168  0.23543  0.53732  1.0000
  C   C1818     1.0  0.84226  0.25189  0.54413  1.0000
  C   C1819     1.0  0.86384  0.22131  0.54743  1.0000
  C   C1820     1.0  0.86677  0.22345  0.56488  1.0000
  C   C1821     1.0  0.85720  0.24015  0.57194  1.0000
  C   C1822     1.0  0.84945  0.23306  0.51873  1.0000
  H   H1816     1.0  0.83243  0.26301  0.53629  1.0000
  H   H1817     1.0  0.87135  0.20828  0.54203  1.0000
  H   H1818     1.0  0.87636  0.21224  0.57298  1.0000
  H   H1819     1.0  0.83685  0.24356  0.51372  1.0000
  H   H1820     1.0  0.86263  0.23512  0.50745  1.0000
  H   H1821     1.0  0.84685  0.21839  0.52012  1.0000
  H   H1822     1.0  0.89829  0.22615  0.31977  1.0000
  H   H1823     1.0  0.79672  0.16198  0.56636  1.0000
  S   S619      1.0  0.88039  0.17893  0.33009  1.0000
  Fe  Fe313     1.0  0.84690  0.21981  0.62510  1.0000
  C   C1823     1.0  0.74580  0.25928  0.58599  1.0000
  N   N150      1.0  0.95968  0.10149  0.31760  1.0000
  H   H1824     1.0  0.80182  0.17464  0.45199  1.0000
  C   C1824     1.0  0.77171  0.19259  0.55102  1.0000
  C   C1825     1.0  0.75176  0.99883  0.32466  1.0000
  C   C1826     1.0  0.96296  0.19006  0.31622  1.0000
  C   C1827     1.0  0.80351  0.27284  0.40182  1.0000
  C   C1828     1.0  0.95142  0.07838  0.34687  1.0000
  H   H1825     1.0  0.85089  0.42998  0.37524  1.0000
  S   S620      1.0  0.78990  0.02349  0.35742  1.0000
  H   H1826     1.0  0.91946  0.20132  0.60619  1.0000
  H   H1827     1.0  0.80687  0.99533  0.31305  1.0000
  S   S621      1.0  0.83427  0.02703  0.35501  1.0000
  Fe  Fe314     1.0  0.80940  0.20527  0.64119  1.0000
  H   H1828     1.0  0.78257  0.17345  0.44131  1.0000
  H   H1829     1.0  0.75178  0.06809  0.46127  1.0000
  C   C1829     1.0  0.75021  0.09983  0.64230  1.0000
  H   H1830     1.0  0.74584  0.01156  0.31489  1.0000
  S   S622      1.0  0.87840  0.21096  0.61256  1.0000
  C   C1830     1.0  0.76030  0.00106  0.33876  1.0000
  H   H1831     1.0  0.91145  0.24478  0.31732  1.0000
  Fe  Fe315     1.0  0.77387  0.37527  0.33485  1.0000
  H   H1832     1.0  0.84142  0.28992  0.37059  1.0000
  C   C1831     1.0  0.92681  0.19399  0.63428  1.0000
  C   C1832     1.0  0.84198  0.06735  0.39345  1.0000
  H   H1833     1.0  0.95216  0.07213  0.36193  1.0000
  H   H1834     1.0  0.79233  0.11580  0.62433  1.0000
  C   C1833     1.0  0.78966  0.39698  0.39813  1.0000
  C   C1834     1.0  0.74369  0.23451  0.63811  1.0000
  H   H1835     1.0  0.82338  0.07222  0.36534  1.0000
  C   C1835     1.0  0.82262  0.27377  0.39303  1.0000
  C   C1836     1.0  0.82919  0.08465  0.36446  1.0000
  H   H1836     1.0  0.85523  0.06586  0.39889  1.0000
  H   H1837     1.0  0.77242  0.47335  0.35733  1.0000
  N   N151      1.0  0.92897  0.21750  0.31302  1.0000
  H   H1838     1.0  0.77377  0.28619  0.40209  1.0000
  N   N152      1.0  0.79258  0.30163  0.37942  1.0000
  H   H1839     1.0  0.96949  0.09835  0.34358  1.0000
  H   H1840     1.0  0.80031  0.26149  0.41427  1.0000
  C   C1837     1.0  0.80043  0.48051  0.35032  1.0000
  H   H1841     1.0  0.84017  0.34050  0.32098  1.0000
  H   H1842     1.0  0.83317  0.12865  0.33565  1.0000
  H   H1843     1.0  0.93234  0.06076  0.34603  1.0000
  N   N153      1.0  0.80660  0.40588  0.39174  1.0000
  H   H1844     1.0  0.82670  0.37940  0.38820  1.0000
  C   C1838     1.0  0.87486  0.08968  0.32417  1.0000
  N   N154      1.0  0.77193  0.17332  0.55383  1.0000
  C   C1839     1.0  0.94020  0.07206  0.33796  1.0000
  C   C1840     1.0  0.83852  0.42310  0.38019  1.0000
  S   S623      1.0  0.76228  0.05662  0.31897  1.0000
  H   H1845     1.0  0.82626  0.15217  0.43543  1.0000
  H   H1846     1.0  0.75528  0.24969  0.57620  1.0000
  N   N155      1.0  0.80870  0.17718  0.42126  1.0000
  C   C1841     1.0  0.80592  0.18931  0.40403  1.0000
  C   C1842     1.0  0.82388  0.16166  0.42175  1.0000
  C   C1843     1.0  0.76736  0.17043  0.63543  1.0000
  H   H1847     1.0  0.77543  0.31352  0.35809  1.0000
  C   C1844     1.0  0.77943  0.18337  0.63276  1.0000
  C   C1845     1.0  0.84481  0.11618  0.36149  1.0000
  C   C1846     1.0  0.78773  0.46846  0.35218  1.0000
  C   C1847     1.0  0.82005  0.43415  0.38513  1.0000
  H   H1848     1.0  0.79317  0.38202  0.39548  1.0000
  C   C1848     1.0  0.83459  0.11643  0.34772  1.0000
  Fe  Fe316     1.0  0.81532  0.37850  0.31807  1.0000
  H   H1849     1.0  0.85520  0.39457  0.37740  1.0000
  H   H1850     1.0  0.81921  0.10033  0.33827  1.0000
  C   C1849     1.0  0.82471  0.39482  0.38735  1.0000
  H   H1851     1.0  0.77379  0.16170  0.58318  1.0000
  H   H1852     1.0  0.85139  0.12824  0.36015  1.0000
  H   H1853     1.0  0.76118  0.01538  0.33962  1.0000
  C   C1850     1.0  0.91394  0.19982  0.62164  1.0000
  C   C1851     1.0  0.82661  0.28881  0.37735  1.0000
  C   C1852     1.0  0.98258  0.14345  0.35853  1.0000
  S   S624      1.0  0.77822  0.43560  0.35029  1.0000
  C   C1853     1.0  0.74671  0.20204  0.44169  1.0000
  C   C1854     1.0  0.77684  0.31617  0.37191  1.0000
  H   H1854     1.0  0.75435  0.21369  0.43791  1.0000
  C   C1855     1.0  0.74869  0.24640  0.61996  1.0000
  C   C1856     1.0  0.78231  0.10689  0.63331  1.0000
  C   C1857     1.0  0.75477  0.17359  0.62276  1.0000
  C   C1858     1.0  0.97493  0.14552  0.37770  1.0000
  C   C1859     1.0  0.76813  0.98471  0.35131  1.0000
  S   S625      1.0  0.74765  0.37003  0.32854  1.0000
  H   H1855     1.0  0.75212  0.44741  0.32194  1.0000
  H   H1856     1.0  0.76282  0.31604  0.38241  1.0000
  S   S626      1.0  0.73789  0.19495  0.59205  1.0000
  H   H1857     1.0  0.97609  0.17917  0.31753  1.0000
  H   H1858     1.0  0.76228  0.22134  0.53502  1.0000
  H   H1859     1.0  0.75994  0.25440  0.61764  1.0000
  C   C1860     1.0  0.75280  0.19981  0.52655  1.0000
  H   H1860     1.0  0.77549  0.98615  0.36183  1.0000
  H   H1861     1.0  0.75401  0.08401  0.48674  1.0000
  H   H1862     1.0  0.74577  0.17509  0.52117  1.0000
  S   S627      1.0  0.74263  0.20361  0.47996  1.0000
  H   H1863     1.0  0.74535  0.21014  0.51590  1.0000
  C   C1861     1.0  0.73963  0.19442  0.46116  1.0000
  H   H1864     1.0  0.74044  0.08117  0.34789  1.0000
  N   N156      1.0  0.73983  0.24758  0.60523  1.0000
  H   H1865     1.0  0.98257  0.11643  0.31246  1.0000
  H   H1866     1.0  0.82393  0.14378  0.64467  1.0000
  H   H1867     1.0  0.92896  0.07660  0.31231  1.0000
  Fe  Fe317     1.0  0.84287  0.32784  0.71287  1.0000
  S   S628      1.0  0.85172  0.30431  0.73741  1.0000
  Fe  Fe318     1.0  0.83257  0.35953  0.73648  1.0000
  S   S629      1.0  0.84057  0.33831  0.76281  1.0000
  S   S630      1.0  0.81864  0.39002  0.74109  1.0000
  Fe  Fe319     1.0  0.86621  0.32548  0.74235  1.0000
  S   S631      1.0  0.89610  0.31544  0.74862  1.0000
  Fe  Fe320     1.0  0.82539  0.31901  0.75573  1.0000
  S   S632      1.0  0.80699  0.30080  0.77899  1.0000
  S   S633      1.0  0.85964  0.34821  0.71626  1.0000
  S   S634      1.0  0.81509  0.34106  0.73084  1.0000
  Fe  Fe321     1.0  0.96711  0.24104  0.83663  1.0000
  S   S635      1.0  0.96400  0.21161  0.85405  1.0000
  H   H1868     1.0  0.87311  0.16481  0.66752  1.0000
  Fe  Fe322     1.0  0.92353  0.25520  0.84148  1.0000
  S   S636      1.0  0.91710  0.22685  0.85962  1.0000
  S   S637      1.0  0.89691  0.27790  0.83688  1.0000
  Fe  Fe323     1.0  0.94025  0.22729  0.87425  1.0000
  S   S638      1.0  0.94112  0.22036  0.90589  1.0000
  Fe  Fe324     1.0  0.94133  0.21422  0.83760  1.0000
  S   S639      1.0  0.94156  0.18970  0.82448  1.0000
  S   S640      1.0  0.94485  0.25680  0.85794  1.0000
  S   S641      1.0  0.94622  0.24243  0.81834  1.0000
  C   C1862     1.0  0.77183  0.27399  0.94179  1.0000
  H   H1869     1.0  0.86501  0.09757  0.67094  1.0000
  S   S642      1.0  0.83110  0.99331  0.71134  1.0000
  S   S643      1.0  0.87197  0.20047  0.97501  1.0000
  H   H1870     1.0  0.84831  0.30323  0.65202  1.0000
  C   C1863     1.0  0.74702  0.29562  0.92532  1.0000
  H   H1871     1.0  0.76663  0.21346  0.94605  1.0000
  Fe  Fe325     1.0  0.81055  0.23641  0.95180  1.0000
  S   S644      1.0  0.80666  0.25582  0.92298  1.0000
  H   H1872     1.0  0.80623  0.46019  0.82553  1.0000
  S   S645      1.0  0.82653  0.20570  0.95170  1.0000
  Fe  Fe326     1.0  0.89753  0.15162  0.73176  1.0000
  S   S646      1.0  0.87244  0.13689  0.73820  1.0000
  Fe  Fe327     1.0  0.90738  0.18623  0.73992  1.0000
  S   S647      1.0  0.93728  0.18073  0.72220  1.0000
  S   S648      1.0  0.89904  0.21159  0.75457  1.0000
  Fe  Fe328     1.0  0.92379  0.17450  0.70103  1.0000
  S   S649      1.0  0.89349  0.18312  0.71723  1.0000
  S   S650      1.0  0.90866  0.15548  0.75612  1.0000
  H   H1873     1.0  0.75326  0.38651  0.76921  1.0000
  C   C1864     1.0  0.75148  0.33322  0.77404  1.0000
  H   H1874     1.0  0.76715  0.03368  0.79735  1.0000
  H   H1875     1.0  0.80497  0.16934  0.94601  1.0000
  Fe  Fe329     1.0  0.84793  0.05797  0.70346  1.0000
  S   S651      1.0  0.82149  0.08115  0.70066  1.0000
  S   S652      1.0  0.87627  0.06521  0.70296  1.0000
  S   S653      1.0  0.79938  0.04693  0.70093  1.0000
  Fe  Fe330     1.0  0.81783  0.06622  0.67912  1.0000
  H   H1876     1.0  0.87659  0.23660  0.69076  1.0000
  Fe  Fe331     1.0  0.80546  0.06014  0.72266  1.0000
  C   C1865     1.0  0.78785  0.12823  0.67715  1.0000
  S   S654      1.0  0.84557  0.04417  0.68025  1.0000
  C   C1866     1.0  0.98384  0.20115  0.79230  1.0000
  N   N157      1.0  0.77132  0.12001  0.68906  1.0000
  S   S655      1.0  0.86600  0.45485  0.73129  1.0000
  H   H1877     1.0  0.77945  0.20659  0.92334  1.0000
  C   C1867     1.0  0.78326  0.01727  0.76725  1.0000
  C   C1868     1.0  0.76973  0.11427  0.70870  1.0000
  C   C1869     1.0  0.83092  0.28149  0.66323  1.0000
  H   H1878     1.0  0.75446  0.30107  0.89411  1.0000
  H   H1879     1.0  0.77806  0.23037  0.92653  1.0000
  H   H1880     1.0  0.97805  0.17502  0.78877  1.0000
  Fe  Fe332     1.0  0.80336  0.19815  0.97752  1.0000
  H   H1881     1.0  0.77984  0.06778  0.67042  1.0000
  H   H1882     1.0  0.90275  0.28674  0.72477  1.0000
  C   C1870     1.0  0.85811  0.11279  0.66791  1.0000
  H   H1883     1.0  0.87685  0.28775  0.67807  1.0000
  C   C1871     1.0  0.76136  0.06440  0.75280  1.0000
  C   C1872     1.0  0.75573  0.05825  0.73892  1.0000
  C   C1873     1.0  0.81534  0.27855  0.69709  1.0000
  H   H1884     1.0  0.76507  0.05753  0.72499  1.0000
  C   C1874     1.0  0.88513  0.25178  0.71619  1.0000
  C   C1875     1.0  0.87369  0.11774  0.72723  1.0000
  C   C1876     1.0  0.89113  0.10870  0.71694  1.0000
  C   C1877     1.0  0.89183  0.09243  0.70971  1.0000
  C   C1878     1.0  0.87505  0.08539  0.71241  1.0000
  C   C1879     1.0  0.85758  0.09465  0.72241  1.0000
  C   C1880     1.0  0.85693  0.11074  0.72983  1.0000
  H   H1885     1.0  0.90413  0.11397  0.71490  1.0000
  H   H1886     1.0  0.90538  0.08535  0.70189  1.0000
  H   H1887     1.0  0.84461  0.08922  0.72474  1.0000
  H   H1888     1.0  0.84340  0.11762  0.73787  1.0000
  C   C1881     1.0  0.86366  0.12627  0.67476  1.0000
  H   H1889     1.0  0.87271  0.19978  0.79152  1.0000
  C   C1882     1.0  0.75921  0.29348  0.90743  1.0000
  C   C1883     1.0  0.93101  0.19684  0.80408  1.0000
  C   C1884     1.0  0.93340  0.18341  0.79266  1.0000
  C   C1885     1.0  0.92447  0.18838  0.77678  1.0000
  C   C1886     1.0  0.91276  0.20667  0.77243  1.0000
  C   C1887     1.0  0.91102  0.22048  0.78331  1.0000
  C   C1888     1.0  0.92010  0.21554  0.79920  1.0000
  H   H1890     1.0  0.94202  0.16901  0.79622  1.0000
  H   H1891     1.0  0.92650  0.17786  0.76814  1.0000
  H   H1892     1.0  0.90231  0.23481  0.77975  1.0000
  H   H1893     1.0  0.91828  0.22605  0.80790  1.0000
  C   C1889     1.0  0.79063  0.46275  0.82762  1.0000
  H   H1894     1.0  0.75149  0.31805  0.77567  1.0000
  C   C1890     1.0  0.75339  0.28592  0.94247  1.0000
  S   S656      1.0  0.84649  0.32059  0.68366  1.0000
  H   H1895     1.0  0.77675  0.26694  0.95509  1.0000
  C   C1891     1.0  0.83503  0.13867  0.65325  1.0000
  C   C1892     1.0  0.89637  0.27955  0.71750  1.0000
  C   C1893     1.0  0.92152  0.21388  0.92414  1.0000
  C   C1894     1.0  0.90390  0.21340  0.92023  1.0000
  C   C1895     1.0  0.88830  0.20943  0.93569  1.0000
  C   C1896     1.0  0.89057  0.20561  0.95493  1.0000
  C   C1897     1.0  0.90833  0.20564  0.95861  1.0000
  C   C1898     1.0  0.92363  0.20991  0.94334  1.0000
  H   H1896     1.0  0.90221  0.21635  0.90540  1.0000
  H   H1897     1.0  0.87466  0.20916  0.93277  1.0000
  Fe  Fe333     1.0  0.81500  0.24087  0.65193  1.0000
  H   H1898     1.0  0.93718  0.21018  0.94648  1.0000
  H   H1899     1.0  0.77740  0.29183  0.81284  1.0000
  C   C1899     1.0  0.83196  0.40803  0.73786  1.0000
  C   C1900     1.0  0.82300  0.42462  0.74566  1.0000
  H   H1900     1.0  0.80172  0.34085  0.77994  1.0000
  C   C1901     1.0  0.85235  0.43737  0.73349  1.0000
  C   C1902     1.0  0.86126  0.42088  0.72552  1.0000
  C   C1903     1.0  0.85116  0.40620  0.72779  1.0000
  H   H1901     1.0  0.93880  0.07227  0.73510  1.0000
  C   C1904     1.0  0.81881  0.27269  0.67941  1.0000
  H   H1902     1.0  0.87606  0.41940  0.71758  1.0000
  H   H1903     1.0  0.85816  0.39358  0.72160  1.0000
  C   C1905     1.0  0.89638  0.30474  0.77310  1.0000
  C   C1906     1.0  0.87917  0.30503  0.78699  1.0000
  C   C1907     1.0  0.87953  0.29738  0.80660  1.0000
  C   C1908     1.0  0.89706  0.28853  0.81236  1.0000
  C   C1909     1.0  0.91432  0.28800  0.79849  1.0000
  C   C1910     1.0  0.91399  0.29628  0.77890  1.0000
  H   H1904     1.0  0.86554  0.31118  0.78272  1.0000
  H   H1905     1.0  0.86615  0.29802  0.81729  1.0000
  H   H1906     1.0  0.92796  0.28160  0.80289  1.0000
  H   H1907     1.0  0.92739  0.29607  0.76826  1.0000
  S   S657      1.0  0.92705  0.14279  0.71402  1.0000
  N   N158      1.0  0.76519  0.01670  0.77845  1.0000
  S   S658      1.0  0.81187  0.08698  0.65157  1.0000
  H   H1908     1.0  0.96876  0.16426  0.69056  1.0000
  C   C1911     1.0  0.76020  0.02179  0.79755  1.0000
  N   N159      1.0  0.86498  0.22562  0.80269  1.0000
  C   C1912     1.0  0.85458  0.23617  0.78893  1.0000
  C   C1913     1.0  0.86965  0.23460  0.81460  1.0000
  C   C1914     1.0  0.84854  0.25627  0.78685  1.0000
  C   C1915     1.0  0.86400  0.25467  0.81281  1.0000
  C   C1916     1.0  0.85327  0.26554  0.79891  1.0000
  H   H1909     1.0  0.80291  0.01217  0.74049  1.0000
  H   H1910     1.0  0.85088  0.22906  0.77948  1.0000
  H   H1911     1.0  0.87799  0.22628  0.82545  1.0000
  H   H1912     1.0  0.84008  0.26467  0.77610  1.0000
  H   H1913     1.0  0.86792  0.26170  0.82220  1.0000
  H   H1914     1.0  0.84851  0.28111  0.79749  1.0000
  S   S659      1.0  0.80769  0.25442  0.67821  1.0000
  H   H1915     1.0  0.78601  0.45327  0.85869  1.0000
  C   C1917     1.0  0.77776  0.17090  0.96642  1.0000
  N   N160      1.0  0.86610  0.26272  0.90182  1.0000
  C   C1918     1.0  0.85953  0.25871  0.92148  1.0000
  C   C1919     1.0  0.88502  0.26383  0.89418  1.0000
  C   C1920     1.0  0.87194  0.25606  0.93406  1.0000
  C   C1921     1.0  0.89781  0.26127  0.90634  1.0000
  C   C1922     1.0  0.89118  0.25741  0.92640  1.0000
  C   C1923     1.0  0.85287  0.26488  0.88904  1.0000
  H   H1916     1.0  0.84466  0.25731  0.92751  1.0000
  H   H1917     1.0  0.89040  0.26650  0.87862  1.0000
  C   C1924     1.0  0.76523  0.34150  0.75932  1.0000
  H   H1918     1.0  0.91293  0.26161  0.90028  1.0000
  H   H1919     1.0  0.90112  0.25466  0.93599  1.0000
  H   H1920     1.0  0.83881  0.27442  0.89386  1.0000
  H   H1921     1.0  0.85879  0.27141  0.87377  1.0000
  H   H1922     1.0  0.85013  0.25051  0.88952  1.0000
  N   N161      1.0  0.88587  0.39596  0.76309  1.0000
  C   C1925     1.0  0.90043  0.38031  0.76001  1.0000
  C   C1926     1.0  0.86702  0.39405  0.76840  1.0000
  C   C1927     1.0  0.89631  0.36206  0.76267  1.0000
  C   C1928     1.0  0.86238  0.37605  0.77101  1.0000
  C   C1929     1.0  0.87718  0.35997  0.76830  1.0000
  C   C1930     1.0  0.89064  0.41496  0.75985  1.0000
  H   H1923     1.0  0.91534  0.38190  0.75541  1.0000
  H   H1924     1.0  0.85540  0.40655  0.77020  1.0000
  H   H1925     1.0  0.90778  0.34956  0.76020  1.0000
  H   H1926     1.0  0.84738  0.37469  0.77473  1.0000
  H   H1927     1.0  0.87391  0.34590  0.77034  1.0000
  H   H1928     1.0  0.90240  0.41401  0.76726  1.0000
  H   H1929     1.0  0.89524  0.42057  0.74405  1.0000
  H   H1930     1.0  0.87803  0.42578  0.76542  1.0000
  H   H1931     1.0  0.75806  0.12403  0.66514  1.0000
  N   N162      1.0  0.89773  0.09117  0.76393  1.0000
  C   C1931     1.0  0.90991  0.07969  0.75178  1.0000
  C   C1932     1.0  0.90452  0.10375  0.77014  1.0000
  C   C1933     1.0  0.92931  0.08106  0.74508  1.0000
  C   C1934     1.0  0.92393  0.10517  0.76406  1.0000
  C   C1935     1.0  0.93633  0.09390  0.75131  1.0000
  C   C1936     1.0  0.87752  0.08938  0.77114  1.0000
  H   H1932     1.0  0.90454  0.06971  0.74683  1.0000
  S   S660      1.0  0.83115  0.20986  0.65536  1.0000
  H   H1933     1.0  0.79049  0.47418  0.79734  1.0000
  H   H1934     1.0  0.87263  0.08289  0.76154  1.0000
  H   H1935     1.0  0.87567  0.08023  0.78596  1.0000
  H   H1936     1.0  0.86790  0.10388  0.77149  1.0000
  C   C1937     1.0  0.76984  0.21863  0.93007  1.0000
  S   S661      1.0  0.74663  0.35444  0.83139  1.0000
  C   C1938     1.0  0.74860  0.06625  0.77050  1.0000
  C   C1939     1.0  0.75920  0.46302  0.84862  1.0000
  H   H1937     1.0  0.89152  0.30425  0.69425  1.0000
  H   H1938     1.0  0.79358  0.02234  0.77197  1.0000
  C   C1940     1.0  0.76435  0.31878  0.82239  1.0000
  H   H1939     1.0  0.74408  0.28768  0.95634  1.0000
  C   C1941     1.0  0.75375  0.10695  0.72034  1.0000
  C   C1942     1.0  0.86951  0.25209  0.69021  1.0000
  C   C1943     1.0  0.83560  0.30221  0.68232  1.0000
  H   H1940     1.0  0.78703  0.27972  0.89289  1.0000
  Fe  Fe334     1.0  0.82739  0.02603  0.70408  1.0000
  S   S662      1.0  0.83226  0.03805  0.72747  1.0000
  S   S663      1.0  0.78418  0.06998  0.74829  1.0000
  C   C1944     1.0  0.76585  0.36081  0.75749  1.0000
  H   H1941     1.0  0.77928  0.00154  0.72882  1.0000
  Fe  Fe335     1.0  0.93803  0.14976  0.73688  1.0000
  C   C1945     1.0  0.77776  0.30697  0.81043  1.0000
  C   C1946     1.0  0.79014  0.16782  0.94886  1.0000
  H   H1942     1.0  0.88299  0.23716  0.72264  1.0000
  C   C1947     1.0  0.84080  0.15171  0.66052  1.0000
  H   H1943     1.0  0.89439  0.19432  0.67699  1.0000
  C   C1948     1.0  0.79133  0.31490  0.79507  1.0000
  C   C1949     1.0  0.74325  0.24457  0.91999  1.0000
  H   H1944     1.0  0.74982  0.19685  0.92237  1.0000
  H   H1945     1.0  0.74627  0.00088  0.74928  1.0000
  C   C1950     1.0  0.80799  0.98730  0.68957  1.0000
  S   S664      1.0  0.96459  0.13081  0.74732  1.0000
  C   C1951     1.0  0.97742  0.16341  0.74625  1.0000
  H   H1946     1.0  0.75052  0.46018  0.86313  1.0000
  C   C1952     1.0  0.79173  0.33445  0.79199  1.0000
  H   H1947     1.0  0.85838  0.19804  0.81595  1.0000
  C   C1953     1.0  0.84369  0.11906  0.65709  1.0000
  C   C1954     1.0  0.83317  0.43917  0.74360  1.0000
  H   H1948     1.0  0.77247  0.12476  0.97188  1.0000
  C   C1955     1.0  0.75875  0.16861  0.97011  1.0000
  H   H1949     1.0  0.74438  0.02709  0.80199  1.0000
  C   C1956     1.0  0.77931  0.45899  0.84620  1.0000
  C   C1957     1.0  0.88174  0.27995  0.69132  1.0000
  Fe  Fe336     1.0  0.84078  0.21073  0.97317  1.0000
  H   H1950     1.0  0.80813  0.42617  0.75339  1.0000
  C   C1958     1.0  0.89021  0.28932  0.70033  1.0000
  H   H1951     1.0  0.75360  0.31278  0.83394  1.0000
  C   C1959     1.0  0.77855  0.34613  0.80399  1.0000
  H   H1952     1.0  0.77872  0.36136  0.80122  1.0000
  S   S665      1.0  0.78615  0.22838  0.97586  1.0000
  C   C1960     1.0  0.74321  0.21214  0.91987  1.0000
  H   H1953     1.0  0.76488  0.00897  0.80860  1.0000
  C   C1961     1.0  0.78394  0.27157  0.92395  1.0000
  H   H1954     1.0  0.88377  0.19856  0.81097  1.0000
  H   H1955     1.0  0.80599  0.27181  0.70967  1.0000
  C   C1962     1.0  0.91984  0.19181  0.65429  1.0000
  C   C1963     1.0  0.76463  0.33845  0.81894  1.0000
  H   H1956     1.0  0.95133  0.09520  0.74628  1.0000
  C   C1964     1.0  0.77767  0.28145  0.90675  1.0000
  C   C1965     1.0  0.89385  0.26064  0.72550  1.0000
  H   H1957     1.0  0.96284  0.17127  0.74609  1.0000
  H   H1958     1.0  0.89845  0.25295  0.73894  1.0000
  H   H1959     1.0  0.74627  0.07524  0.66561  1.0000
  H   H1960     1.0  0.75272  0.07141  0.78115  1.0000
  H   H1961     1.0  0.82099  0.29757  0.71227  1.0000
  H   H1962     1.0  0.80664  0.00245  0.68264  1.0000
  C   C1966     1.0  0.87014  0.20446  0.80547  1.0000
  H   H1963     1.0  0.79330  0.15874  0.92208  1.0000
  H   H1964     1.0  0.89486  0.11291  0.77971  1.0000
  C   C1967     1.0  0.89989  0.19575  0.66162  1.0000
  C   C1968     1.0  0.78357  0.16168  0.93542  1.0000
  H   H1965     1.0  0.97036  0.20302  0.70233  1.0000
  C   C1969     1.0  0.74121  0.11117  0.69175  1.0000
  S   S666      1.0  0.93644  0.18433  0.66969  1.0000
  C   C1970     1.0  0.86105  0.15927  0.67845  1.0000
  H   H1966     1.0  0.77684  0.36728  0.74653  1.0000
  C   C1971     1.0  0.75213  0.01055  0.77231  1.0000
  H   H1967     1.0  0.82615  0.45178  0.74980  1.0000
  H   H1968     1.0  0.85415  0.25315  0.69784  1.0000
  H   H1969     1.0  0.87165  0.20523  0.65461  1.0000
  C   C1972     1.0  0.82381  0.29315  0.69860  1.0000
  C   C1973     1.0  0.88698  0.20193  0.64891  1.0000
  H   H1970     1.0  0.86686  0.25231  0.94964  1.0000
  C   C1974     1.0  0.75706  0.11904  0.68063  1.0000
  C   C1975     1.0  0.75221  0.16259  0.95673  1.0000
  H   H1971     1.0  0.86597  0.15246  0.69235  1.0000
  H   H1972     1.0  0.77573  0.33276  0.74983  1.0000
  C   C1976     1.0  0.73783  0.05301  0.74306  1.0000
  H   H1973     1.0  0.87512  0.12136  0.68281  1.0000
  H   H1974     1.0  0.83400  0.16692  0.65741  1.0000
  H   H1975     1.0  0.92938  0.11506  0.76906  1.0000
  C   C1977     1.0  0.76462  0.15879  0.93948  1.0000
  S   S667      1.0  0.75683  0.14987  0.92326  1.0000
  H   H1976     1.0  0.74934  0.11578  0.95823  1.0000
  H   H1977     1.0  0.98361  0.22491  0.91136  1.0000
  N   N163      1.0  0.87932  0.26140  0.69925  1.0000
  C   C1978     1.0  0.78859  0.01170  0.74933  1.0000
  H   H1978     1.0  0.97969  0.20834  0.88772  1.0000
  N   N164      1.0  0.85477  0.14538  0.67135  1.0000
  C   C1979     1.0  0.76162  0.47471  0.81473  1.0000
  C   C1980     1.0  0.75260  0.37164  0.77021  1.0000
  H   H1979     1.0  0.83366  0.27713  0.64954  1.0000
  C   C1981     1.0  0.83919  0.29627  0.66467  1.0000
  H   H1980     1.0  0.79097  0.12602  0.66204  1.0000
  H   H1981     1.0  0.78487  0.14400  0.67682  1.0000
  H   H1982     1.0  0.96597  0.19824  0.68096  1.0000
  H   H1983     1.0  0.84903  0.17170  0.68139  1.0000
  C   C1982     1.0  0.77529  0.07992  0.65938  1.0000
  C   C1983     1.0  0.75629  0.08412  0.65660  1.0000
  H   H1984     1.0  0.91021  0.20254  0.97341  1.0000
  C   C1984     1.0  0.78177  0.47059  0.81175  1.0000
  C   C1985     1.0  0.74746  0.11376  0.97384  1.0000
  S   S668      1.0  0.82657  0.24210  0.97146  1.0000
  H   H1985     1.0  0.86978  0.25911  0.67470  1.0000
  C   C1986     1.0  0.75691  0.00513  0.75433  1.0000
  H   H1986     1.0  0.78089  0.11516  0.71552  1.0000
  C   C1987     1.0  0.77530  0.00566  0.74282  1.0000
  S   S669      1.0  0.79466  0.17998  0.64900  1.0000
  H   H1987     1.0  0.80112  0.12105  0.68293  1.0000
  N   N165      1.0  0.75182  0.22533  0.92286  1.0000
  H   H1988     1.0  0.96919  0.20927  0.79217  1.0000
  H   H1989     1.0  0.76751  0.15814  0.64742  1.0000
  N   N166      1.0  0.75063  0.47064  0.83296  1.0000
  H   H1990     1.0  0.75252  0.10254  0.73591  1.0000
  H   H1991     1.0  0.74985  0.25500  0.92270  1.0000
  H   H1992     1.0  0.75085  0.23340  0.64974  1.0000
  N   N167      1.0  0.73872  0.34386  0.78664  1.0000
  C   C1988     1.0  0.78832  0.09130  0.64777  1.0000
  H   H1993     1.0  0.75481  0.48150  0.80242  1.0000
  C   C1989     1.0  0.98188  0.14331  0.74826  1.0000
  C   C1990     1.0  0.97741  0.19820  0.68846  1.0000
  H   H1994     1.0  0.74655  0.37301  0.91844  1.0000
  H   H1995     1.0  0.83935  0.10875  0.65159  1.0000
  C   C1991     1.0  0.73962  0.10501  0.71176  1.0000
  H   H1996     1.0  0.98605  0.20879  0.67891  1.0000
  C   C1992     1.0  0.98299  0.16285  0.69328  1.0000
  H   H1997     1.0  0.98503  0.26088  0.85728  1.0000
  H   H1998     1.0  0.73788  0.15989  0.96030  1.0000
  H   H1999     1.0  0.73768  0.01036  0.78104  1.0000
  C   C1993     1.0  0.73896  0.36292  0.78471  1.0000
  H   H2000     1.0  0.75202  0.70131  0.11184  1.0000
  C   C1994     1.0  0.95524  0.58967  0.26545  1.0000
  H   H2001     1.0  0.87650  0.82721  0.28908  1.0000
  H   H2002     1.0  0.80265  0.84193  0.20460  1.0000
  H   H2003     1.0  0.90243  0.71860  0.30105  1.0000
  C   C1995     1.0  0.97158  0.69864  0.25422  1.0000
  S   S670      1.0  0.79397  0.56911  0.02236  1.0000
  C   C1996     1.0  0.77720  0.95064  0.23814  1.0000
  S   S671      1.0  0.81128  0.86656  0.25678  1.0000
  C   C1997     1.0  0.75576  0.82008  0.17286  1.0000
  Fe  Fe337     1.0  0.89744  0.65651  0.24794  1.0000
  S   S672      1.0  0.92170  0.63126  0.25343  1.0000
  S   S673      1.0  0.88524  0.67917  0.26606  1.0000
  Fe  Fe338     1.0  0.89207  0.64480  0.21268  1.0000
  S   S674      1.0  0.87010  0.65313  0.19362  1.0000
  Fe  Fe339     1.0  0.90403  0.61411  0.24674  1.0000
  S   S675      1.0  0.90208  0.58407  0.26367  1.0000
  S   S676      1.0  0.87856  0.63864  0.24429  1.0000
  S   S677      1.0  0.90893  0.66500  0.21604  1.0000
  H   H2004     1.0  0.77637  0.97264  0.26455  1.0000
  H   H2005     1.0  0.77704  0.64232  0.10738  1.0000
  S   S678      1.0  0.76255  0.84728  0.20686  1.0000
  H   H2006     1.0  0.76716  0.79709  0.25148  1.0000
  C   C1998     1.0  0.75202  0.68834  0.10723  1.0000
  Fe  Fe340     1.0  0.78814  0.61931  0.14943  1.0000
  S   S679      1.0  0.81167  0.62671  0.12405  1.0000
  S   S680      1.0  0.76815  0.64247  0.16431  1.0000
  Fe  Fe341     1.0  0.80069  0.57653  0.15014  1.0000
  S   S681      1.0  0.82507  0.58026  0.12435  1.0000
  S   S682      1.0  0.79752  0.54721  0.16847  1.0000
  Fe  Fe342     1.0  0.83082  0.60121  0.13887  1.0000
  S   S683      1.0  0.86116  0.60030  0.14118  1.0000
  Fe  Fe343     1.0  0.80373  0.60539  0.11166  1.0000
  S   S684      1.0  0.80022  0.61741  0.08058  1.0000
  S   S685      1.0  0.80803  0.59569  0.16542  1.0000
  S   S686      1.0  0.77869  0.59980  0.13625  1.0000
  H   H2007     1.0  0.81486  0.93573  0.26041  1.0000
  H   H2008     1.0  0.95507  0.59427  0.29356  1.0000
  H   H2009     1.0  0.78980  0.98161  0.24077  1.0000
  C   C1999     1.0  0.74633  0.65241  0.15644  1.0000
  N   N168      1.0  0.79060  0.95135  0.24781  1.0000
  C   C2000     1.0  0.90712  0.70578  0.29498  1.0000
  H   H2010     1.0  0.97686  0.64446  0.26871  1.0000
  H   H2011     1.0  0.83080  0.58138  0.28124  1.0000
  H   H2012     1.0  0.81762  0.64021  0.25034  1.0000
  H   H2013     1.0  0.74498  0.62678  0.14800  1.0000
  H   H2014     1.0  0.76609  0.96332  0.23467  1.0000
  H   H2015     1.0  0.85944  0.57489  0.25518  1.0000
  N   N169      1.0  0.75118  0.54489  0.00565  1.0000
  H   H2016     1.0  0.76922  0.53214  0.23208  1.0000
  C   C2001     1.0  0.77436  0.54201  0.17656  1.0000
  C   C2002     1.0  0.77166  0.52576  0.19131  1.0000
  N   N170      1.0  0.75103  0.65465  0.09693  1.0000
  Fe  Fe344     1.0  0.79992  0.87546  0.28549  1.0000
  H   H2017     1.0  0.96923  0.70329  0.26778  1.0000
  H   H2018     1.0  0.78390  0.51633  0.19693  1.0000
  C   C2003     1.0  0.97688  0.68629  0.22003  1.0000
  C   C2004     1.0  0.86335  0.61434  0.15656  1.0000
  C   C2005     1.0  0.88102  0.61160  0.16205  1.0000
  C   C2006     1.0  0.88321  0.62310  0.17378  1.0000
  C   C2007     1.0  0.86780  0.63764  0.17978  1.0000
  C   C2008     1.0  0.85011  0.64024  0.17440  1.0000
  C   C2009     1.0  0.84781  0.62852  0.16300  1.0000
  H   H2019     1.0  0.89310  0.60069  0.15706  1.0000
  H   H2020     1.0  0.89696  0.62111  0.17768  1.0000
  H   H2021     1.0  0.83816  0.65151  0.17893  1.0000
  H   H2022     1.0  0.83415  0.63078  0.15882  1.0000
  H   H2023     1.0  0.92947  0.68887  0.23510  1.0000
  C   C2010     1.0  0.79671  0.86186  0.24355  1.0000
  C   C2011     1.0  0.75644  0.80377  0.16598  1.0000
  C   C2012     1.0  0.79855  0.48643  0.30282  1.0000
  C   C2013     1.0  0.85008  0.58915  0.25388  1.0000
  N   N171      1.0  0.75574  0.81683  0.27059  1.0000
  C   C2014     1.0  0.79195  0.91728  0.23682  1.0000
  C   C2015     1.0  0.77301  0.82100  0.27017  1.0000
  H   H2024     1.0  0.91697  0.83786  0.29782  1.0000
  H   H2025     1.0  0.81657  0.90547  0.25031  1.0000
  C   C2016     1.0  0.75782  0.59168  0.19394  1.0000
  C   C2017     1.0  0.98294  0.64237  0.25403  1.0000
  C   C2018     1.0  0.88193  0.58474  0.28292  1.0000
  H   H2026     1.0  0.88274  0.58809  0.22840  1.0000
  C   C2019     1.0  0.80546  0.91812  0.24680  1.0000
  C   C2020     1.0  0.79524  0.84886  0.21670  1.0000
  C   C2021     1.0  0.80597  0.85303  0.22780  1.0000
  H   H2027     1.0  0.88287  0.55410  0.28877  1.0000
  H   H2028     1.0  0.76475  0.55732  0.28784  1.0000
  C   C2022     1.0  0.76644  0.67183  0.11038  1.0000
  C   C2023     1.0  0.89476  0.70077  0.28615  1.0000
  C   C2024     1.0  0.90088  0.68453  0.27763  1.0000
  C   C2025     1.0  0.91934  0.67308  0.27827  1.0000
  H   H2029     1.0  0.87719  0.61255  0.21581  1.0000
  C   C2026     1.0  0.77522  0.54549  0.22705  1.0000
  H   H2030     1.0  0.94046  0.58758  0.26967  1.0000
  H   H2031     1.0  0.92417  0.66050  0.27184  1.0000
  H   H2032     1.0  0.78863  0.83300  0.28390  1.0000
  H   H2033     1.0  0.79271  0.51224  0.99595  1.0000
  S   S687      1.0  0.74105  0.54008  0.27503  1.0000
  H   H2034     1.0  0.85520  0.60906  0.03282  1.0000
  C   C2027     1.0  0.79491  0.58265  0.03883  1.0000
  C   C2028     1.0  0.79237  0.60280  0.03371  1.0000
  C   C2029     1.0  0.79353  0.61325  0.04690  1.0000
  C   C2030     1.0  0.79724  0.60368  0.06531  1.0000
  C   C2031     1.0  0.79964  0.58354  0.07054  1.0000
  C   C2032     1.0  0.79847  0.57307  0.05731  1.0000
  H   H2035     1.0  0.78963  0.61033  0.01951  1.0000
  H   H2036     1.0  0.79178  0.62882  0.04266  1.0000
  H   H2037     1.0  0.80260  0.57600  0.08465  1.0000
  H   H2038     1.0  0.80043  0.55748  0.06138  1.0000
  H   H2039     1.0  0.78536  0.81800  0.25858  1.0000
  H   H2040     1.0  0.77821  0.53836  0.01436  1.0000
  H   H2041     1.0  0.86671  0.59484  0.21136  1.0000
  S   S688      1.0  0.91645  0.61893  0.21481  1.0000
  Fe  Fe345     1.0  0.93215  0.63846  0.22126  1.0000
  S   S689      1.0  0.77309  0.89734  0.29300  1.0000
  Fe  Fe346     1.0  0.78849  0.58542  0.99266  1.0000
  H   H2042     1.0  0.95539  0.64447  0.24761  1.0000
  C   C2033     1.0  0.77510  0.85350  0.22115  1.0000
  C   C2034     1.0  0.93161  0.67793  0.28734  1.0000
  H   H2043     1.0  0.84553  0.63284  0.22400  1.0000
  C   C2035     1.0  0.89218  0.85816  0.30949  1.0000
  H   H2044     1.0  0.83635  0.59538  0.04367  1.0000
  H   H2045     1.0  0.93739  0.70556  0.21311  1.0000
  S   S690      1.0  0.96372  0.63799  0.20826  1.0000
  H   H2046     1.0  0.83216  0.61989  0.04599  1.0000
  H   H2047     1.0  0.77775  0.67181  0.11748  1.0000
  S   S691      1.0  0.78883  0.94126  0.29893  1.0000
  H   H2048     1.0  0.94592  0.66910  0.28773  1.0000
  C   C2036     1.0  0.94188  0.69160  0.22292  1.0000
  C   C2037     1.0  0.77648  0.86682  0.24803  1.0000
  C   C2038     1.0  0.97074  0.64221  0.24213  1.0000
  H   H2049     1.0  0.87749  0.61533  0.28125  1.0000
  C   C2039     1.0  0.76583  0.65509  0.10488  1.0000
  H   H2050     1.0  0.79260  0.90399  0.23246  1.0000
  H   H2051     1.0  0.85824  0.61698  0.09922  1.0000
  H   H2052     1.0  0.84681  0.84797  0.30418  1.0000
  H   H2053     1.0  0.76465  0.81929  0.18297  1.0000
  C   C2040     1.0  0.87152  0.82428  0.30466  1.0000
  H   H2054     1.0  0.94136  0.70436  0.25414  1.0000
  H   H2055     1.0  0.81031  0.61432  0.27946  1.0000
  C   C2041     1.0  0.76708  0.51534  0.98517  1.0000
  C   C2042     1.0  0.80451  0.93533  0.25233  1.0000
  C   C2043     1.0  0.83398  0.59274  0.26871  1.0000
  C   C2044     1.0  0.74130  0.83021  0.29909  1.0000
  C   C2045     1.0  0.74345  0.83752  0.16671  1.0000
  C   C2046     1.0  0.77789  0.51986  0.99593  1.0000
  H   H2056     1.0  0.75129  0.50925  0.21043  1.0000
  C   C2047     1.0  0.75894  0.83417  0.29898  1.0000
  C   C2048     1.0  0.87506  0.56783  0.29248  1.0000
  H   H2057     1.0  0.76926  0.87384  0.26008  1.0000
  C   C2049     1.0  0.85442  0.60339  0.30149  1.0000
  C   C2050     1.0  0.77766  0.93360  0.23251  1.0000
  H   H2058     1.0  0.75411  0.56614  0.01951  1.0000
  C   C2051     1.0  0.92561  0.69444  0.29550  1.0000
  C   C2052     1.0  0.76980  0.57628  0.20388  1.0000
  H   H2059     1.0  0.76059  0.56640  0.15754  1.0000
  H   H2060     1.0  0.95753  0.59764  0.21961  1.0000
  H   H2061     1.0  0.75754  0.62386  0.10078  1.0000
  C   C2053     1.0  0.76960  0.53466  0.00631  1.0000
  H   H2062     1.0  0.78956  0.54180  0.21742  1.0000
  H   H2063     1.0  0.76011  0.84092  0.31009  1.0000
  N   N172      1.0  0.96553  0.58915  0.24697  1.0000
  Fe  Fe347     1.0  0.79156  0.90885  0.30580  1.0000
  H   H2064     1.0  0.87465  0.58272  0.10820  1.0000
  H   H2065     1.0  0.88051  0.70969  0.28568  1.0000
  C   C2054     1.0  0.74291  0.54015  0.29857  1.0000
  C   C2055     1.0  0.75066  0.63695  0.09128  1.0000
  N   N173      1.0  0.76246  0.56130  0.21656  1.0000
  C   C2056     1.0  0.76565  0.86263  0.23680  1.0000
  C   C2057     1.0  0.73993  0.82151  0.28467  1.0000
  C   C2058     1.0  0.82238  0.61125  0.26764  1.0000
  C   C2059     1.0  0.82653  0.62575  0.25142  1.0000
  C   C2060     1.0  0.75857  0.55397  0.16907  1.0000
  H   H2066     1.0  0.75010  0.86666  0.24009  1.0000
  N   N174      1.0  0.85103  0.59974  0.06338  1.0000
  C   C2061     1.0  0.85038  0.61270  0.07422  1.0000
  C   C2062     1.0  0.85987  0.58076  0.06839  1.0000
  C   C2063     1.0  0.85891  0.60679  0.09045  1.0000
  C   C2064     1.0  0.86849  0.57434  0.08457  1.0000
  C   C2065     1.0  0.86813  0.58751  0.09554  1.0000
  C   C2066     1.0  0.84338  0.60635  0.04557  1.0000
  H   H2067     1.0  0.84307  0.62768  0.07048  1.0000
  H   H2068     1.0  0.86027  0.57047  0.05987  1.0000
  C   C2067     1.0  0.77492  0.82958  0.28443  1.0000
  H   H2069     1.0  0.87532  0.55926  0.08866  1.0000
  C   C2068     1.0  0.87102  0.59946  0.22269  1.0000
  N   N175      1.0  0.85427  0.60355  0.23822  1.0000
  H   H2070     1.0  0.82158  0.84930  0.22418  1.0000
  C   C2069     1.0  0.84245  0.62152  0.23661  1.0000
  C   C2070     1.0  0.85765  0.56877  0.30632  1.0000
  C   C2071     1.0  0.87190  0.60238  0.28794  1.0000
  C   C2072     1.0  0.74284  0.97897  0.30748  1.0000
  C   C2073     1.0  0.75318  0.52180  0.19905  1.0000
  H   H2071     1.0  0.74308  0.85012  0.17213  1.0000
  H   H2072     1.0  0.78507  0.57618  0.20116  1.0000
  C   C2074     1.0  0.74320  0.56136  0.22002  1.0000
  N   N176      1.0  0.95860  0.69212  0.23011  1.0000
  C   C2075     1.0  0.95584  0.69897  0.24658  1.0000
  H   H2073     1.0  0.76708  0.93311  0.22474  1.0000
  H   H2074     1.0  0.76577  0.79010  0.17078  1.0000
  S   S692      1.0  0.90476  0.79657  0.30557  1.0000
  C   C2076     1.0  0.75404  0.80822  0.25524  1.0000
  S   S693      1.0  0.94197  0.70128  0.30498  1.0000
  C   C2077     1.0  0.75615  0.54988  0.30059  1.0000
  S   S694      1.0  0.75976  0.60452  0.98962  1.0000
  H   H2075     1.0  0.74149  0.80101  0.25976  1.0000
  H   H2076     1.0  0.74518  0.79246  0.14764  1.0000
  H   H2077     1.0  0.75876  0.63700  0.07611  1.0000
  S   S695      1.0  0.81897  0.88836  0.29603  1.0000
  H   H2078     1.0  0.97911  0.68108  0.20682  1.0000
  H   H2079     1.0  0.94141  0.58474  0.23835  1.0000
  H   H2080     1.0  0.74330  0.67986  0.16384  1.0000
  C   C2078     1.0  0.97850  0.63927  0.22323  1.0000
  C   C2079     1.0  0.78974  0.96938  0.25352  1.0000
  C   C2080     1.0  0.74811  0.52540  0.98514  1.0000
  H   H2081     1.0  0.77697  0.54974  0.23994  1.0000
  H   H2082     1.0  0.94531  0.67966  0.21494  1.0000
  C   C2081     1.0  0.95684  0.58564  0.23259  1.0000
  H   H2083     1.0  0.73976  0.92166  0.21261  1.0000
  C   C2082     1.0  0.84709  0.58668  0.31040  1.0000
  H   H2084     1.0  0.80212  0.96853  0.26006  1.0000
  C   C2083     1.0  0.80097  0.95122  0.31067  1.0000
  H   H2085     1.0  0.88993  0.86630  0.29528  1.0000
  C   C2084     1.0  0.96345  0.59333  0.27909  1.0000
  C   C2085     1.0  0.79981  0.97129  0.30621  1.0000
  C   C2086     1.0  0.74499  0.80511  0.15291  1.0000
  H   H2086     1.0  0.76371  0.60348  0.18380  1.0000
  H   H2087     1.0  0.75220  0.81964  0.24209  1.0000
  H   H2088     1.0  0.79217  0.98035  0.29514  1.0000
  H   H2089     1.0  0.96470  0.57181  0.22812  1.0000
  C   C2087     1.0  0.98242  0.59606  0.27382  1.0000
  C   C2088     1.0  0.74276  0.56069  0.01616  1.0000
  H   H2090     1.0  0.84635  0.61725  0.30468  1.0000
  C   C2089     1.0  0.74011  0.54970  0.17646  1.0000
  C   C2090     1.0  0.77915  0.49469  0.30878  1.0000
  C   C2091     1.0  0.90761  0.84224  0.31081  1.0000
  C   C2092     1.0  0.98412  0.59181  0.24169  1.0000
  H   H2091     1.0  0.80971  0.49385  0.30252  1.0000
  H   H2092     1.0  0.74810  0.96429  0.30411  1.0000
  C   C2093     1.0  0.73826  0.64165  0.14856  1.0000
  C   C2094     1.0  0.74032  0.54017  0.99559  1.0000
  C   C2095     1.0  0.76497  0.48459  0.30987  1.0000
  C   C2096     1.0  0.73824  0.59165  0.19703  1.0000
  S   S696      1.0  0.76820  0.76907  0.61480  1.0000
  H   H2093     1.0  0.81204  0.68782  0.51447  1.0000
  H   H2094     1.0  0.92412  0.65370  0.41801  1.0000
  Fe  Fe348     1.0  0.81989  0.66557  0.62532  1.0000
  S   S697      1.0  0.84051  0.68332  0.60544  1.0000
  H   H2095     1.0  0.75286  0.70563  0.62139  1.0000
  H   H2096     1.0  0.76145  0.84166  0.60519  1.0000
  S   S698      1.0  0.87530  0.64873  0.61899  1.0000
  C   C2097     1.0  0.90681  0.70105  0.42028  1.0000
  Fe  Fe349     1.0  0.85631  0.67476  0.62989  1.0000
  H   H2097     1.0  0.74081  0.56487  0.38811  1.0000
  Fe  Fe350     1.0  0.85703  0.65552  0.59661  1.0000
  S   S699      1.0  0.86817  0.65729  0.56435  1.0000
  C   C2098     1.0  0.79231  0.83676  0.63458  1.0000
  S   S700      1.0  0.83535  0.63801  0.61501  1.0000
  H   H2098     1.0  0.84718  0.58036  0.35684  1.0000
  H   H2099     1.0  0.78511  0.53880  0.44941  1.0000
  H   H2100     1.0  0.76160  0.67150  0.42917  1.0000
  H   H2101     1.0  0.92164  0.81836  0.33011  1.0000
  H   H2102     1.0  0.91583  0.72490  0.59693  1.0000
  C   C2099     1.0  0.75824  0.96474  0.33561  1.0000
  H   H2103     1.0  0.83686  0.67909  0.51729  1.0000
  C   C2100     1.0  0.77177  0.81531  0.62451  1.0000
  N   N177      1.0  0.75128  0.98083  0.32288  1.0000
  H   H2104     1.0  0.77877  0.71556  0.41555  1.0000
  H   H2105     1.0  0.77333  0.95360  0.35931  1.0000
  H   H2106     1.0  0.85092  0.61590  0.41195  1.0000
  Fe  Fe351     1.0  0.91541  0.76740  0.32338  1.0000
  C   C2101     1.0  0.78510  0.77867  0.39875  1.0000
  C   C2102     1.0  0.85913  0.81731  0.34493  1.0000
  Fe  Fe352     1.0  0.82126  0.51717  0.35186  1.0000
  S   S701      1.0  0.78475  0.89038  0.33541  1.0000
  C   C2103     1.0  0.74061  0.69154  0.44532  1.0000
  Fe  Fe353     1.0  0.83645  0.62559  0.48723  1.0000
  S   S702      1.0  0.84650  0.65311  0.47195  1.0000
  S   S703      1.0  0.84039  0.61093  0.51776  1.0000
  Fe  Fe354     1.0  0.81372  0.62788  0.45642  1.0000
  S   S704      1.0  0.82144  0.65604  0.43948  1.0000
  S   S705      1.0  0.79333  0.61910  0.44333  1.0000
  Fe  Fe355     1.0  0.85104  0.64201  0.44484  1.0000
  S   S706      1.0  0.87551  0.64521  0.41911  1.0000
  Fe  Fe356     1.0  0.81604  0.66438  0.46810  1.0000
  S   S707      1.0  0.79949  0.69184  0.47772  1.0000
  S   S708      1.0  0.84383  0.61308  0.46025  1.0000
  S   S709      1.0  0.80553  0.63757  0.48478  1.0000
  C   C2104     1.0  0.89752  0.83633  0.34563  1.0000
  S   S710      1.0  0.93072  0.71671  0.35372  1.0000
  C   C2105     1.0  0.78103  0.84560  0.62069  1.0000
  S   S711      1.0  0.91549  0.76269  0.35496  1.0000
  C   C2106     1.0  0.75746  0.73303  0.45658  1.0000
  Fe  Fe357     1.0  0.94400  0.74248  0.34815  1.0000
  C   C2107     1.0  0.80111  0.65844  0.58082  1.0000
  Fe  Fe358     1.0  0.90228  0.73743  0.35784  1.0000
  S   S712      1.0  0.87700  0.73313  0.38260  1.0000
  H   H2107     1.0  0.85339  0.95946  0.64114  1.0000
  C   C2108     1.0  0.81008  0.80058  0.37257  1.0000
  Fe  Fe359     1.0  0.81538  0.56102  0.34173  1.0000
  S   S713      1.0  0.79031  0.56482  0.36665  1.0000
  H   H2108     1.0  0.87200  0.85579  0.35674  1.0000
  Fe  Fe360     1.0  0.80914  0.54088  0.38354  1.0000
  S   S714      1.0  0.81406  0.54137  0.41268  1.0000
  Fe  Fe361     1.0  0.78118  0.54149  0.35855  1.0000
  H   H2109     1.0  0.85567  0.87861  0.31312  1.0000
  H   H2110     1.0  0.75565  0.77398  0.52302  1.0000
  N   N178      1.0  0.92163  0.70877  0.40775  1.0000
  H   H2111     1.0  0.90582  0.73770  0.40157  1.0000
  H   H2112     1.0  0.79232  0.77697  0.63863  1.0000
  C   C2109     1.0  0.77080  0.83480  0.61548  1.0000
  H   H2113     1.0  0.80515  0.64550  0.53830  1.0000
  H   H2114     1.0  0.76351  0.80710  0.62069  1.0000
  C   C2110     1.0  0.76057  0.73090  0.43746  1.0000
  H   H2115     1.0  0.86160  0.64193  0.38497  1.0000
  C   C2111     1.0  0.73883  0.85762  0.36072  1.0000
  H   H2116     1.0  0.74508  0.74312  0.46237  1.0000
  C   C2112     1.0  0.80119  0.59814  0.43348  1.0000
  C   C2113     1.0  0.81346  0.58180  0.44182  1.0000
  C   C2114     1.0  0.81777  0.56456  0.43496  1.0000
  C   C2115     1.0  0.81026  0.56373  0.41943  1.0000
  C   C2116     1.0  0.79867  0.58032  0.41058  1.0000
  C   C2117     1.0  0.79391  0.59737  0.41778  1.0000
  H   H2117     1.0  0.81901  0.58221  0.45405  1.0000
  H   H2118     1.0  0.82669  0.55175  0.44194  1.0000
  H   H2119     1.0  0.79273  0.57984  0.39870  1.0000
  H   H2120     1.0  0.78441  0.60999  0.41129  1.0000
  C   C2118     1.0  0.87457  0.66967  0.40793  1.0000
  C   C2119     1.0  0.88751  0.67473  0.39055  1.0000
  C   C2120     1.0  0.88790  0.69427  0.38232  1.0000
  C   C2121     1.0  0.87540  0.70876  0.39150  1.0000
  C   C2122     1.0  0.86209  0.70371  0.40858  1.0000
  C   C2123     1.0  0.86167  0.68419  0.41679  1.0000
  H   H2121     1.0  0.89747  0.66355  0.38361  1.0000
  H   H2122     1.0  0.89796  0.69805  0.36895  1.0000
  H   H2123     1.0  0.85237  0.71486  0.41573  1.0000
  H   H2124     1.0  0.85170  0.68042  0.43026  1.0000
  S   S715      1.0  0.90013  0.74352  0.32671  1.0000
  C   C2124     1.0  0.81078  0.93965  0.32509  1.0000
  C   C2125     1.0  0.79116  0.80961  0.37974  1.0000
  H   H2125     1.0  0.74469  0.74151  0.61698  1.0000
  C   C2126     1.0  0.92044  0.72968  0.40391  1.0000
  H   H2126     1.0  0.78632  0.82512  0.37514  1.0000
  H   H2127     1.0  0.85468  0.81487  0.36055  1.0000
  H   H2128     1.0  0.81972  0.80937  0.36243  1.0000
  S   S716      1.0  0.80450  0.53997  0.33185  1.0000
  H   H2129     1.0  0.80080  0.69494  0.43697  1.0000
  S   S717      1.0  0.82754  0.97856  0.34461  1.0000
  C   C2127     1.0  0.81766  0.96831  0.33100  1.0000
  C   C2128     1.0  0.81916  0.94818  0.33516  1.0000
  C   C2129     1.0  0.76548  0.66669  0.45839  1.0000
  S   S718      1.0  0.86323  0.69821  0.64037  1.0000
  C   C2130     1.0  0.76692  0.96642  0.34989  1.0000
  S   S719      1.0  0.96753  0.73747  0.36474  1.0000
  H   H2130     1.0  0.82658  0.93921  0.34643  1.0000
  S   S720      1.0  0.75067  0.54028  0.35881  1.0000
  H   H2131     1.0  0.85147  0.57567  0.63156  1.0000
  H   H2132     1.0  0.77968  0.86093  0.61446  1.0000
  C   C2131     1.0  0.86110  0.64348  0.55185  1.0000
  C   C2132     1.0  0.85043  0.62921  0.56158  1.0000
  C   C2133     1.0  0.84463  0.61891  0.55101  1.0000
  C   C2134     1.0  0.84908  0.62310  0.53066  1.0000
  C   C2135     1.0  0.86003  0.63712  0.52098  1.0000
  C   C2136     1.0  0.86609  0.64718  0.53153  1.0000
  H   H2133     1.0  0.84674  0.62604  0.57722  1.0000
  H   H2134     1.0  0.83638  0.60790  0.55862  1.0000
  H   H2135     1.0  0.86408  0.64004  0.50536  1.0000
  H   H2136     1.0  0.87460  0.65798  0.52391  1.0000
  C   C2137     1.0  0.84484  0.60073  0.39309  1.0000
  C   C2138     1.0  0.76996  0.72146  0.46862  1.0000
  C   C2139     1.0  0.81047  0.67394  0.57367  1.0000
  H   H2137     1.0  0.75328  0.58446  0.43328  1.0000
  N   N179      1.0  0.76376  0.55446  0.43284  1.0000
  H   H2138     1.0  0.77588  0.56324  0.45203  1.0000
  C   C2140     1.0  0.75890  0.67284  0.47595  1.0000
  H   H2139     1.0  0.88365  0.79349  0.34537  1.0000
  N   N180      1.0  0.81577  0.66888  0.54129  1.0000
  H   H2140     1.0  0.92361  0.73364  0.41626  1.0000
  C   C2141     1.0  0.93888  0.67705  0.40288  1.0000
  H   H2141     1.0  0.74133  0.81789  0.46607  1.0000
  C   C2142     1.0  0.76504  0.53978  0.42386  1.0000
  C   C2143     1.0  0.82256  0.67515  0.52038  1.0000
  C   C2144     1.0  0.77173  0.55029  0.45031  1.0000
  C   C2145     1.0  0.77282  0.74360  0.61906  1.0000
  C   C2146     1.0  0.79114  0.73320  0.62200  1.0000
  C   C2147     1.0  0.75663  0.54329  0.40779  1.0000
  C   C2148     1.0  0.78201  0.70293  0.62429  1.0000
  C   C2149     1.0  0.76353  0.71330  0.62165  1.0000
  C   C2150     1.0  0.75889  0.73361  0.61916  1.0000
  H   H2142     1.0  0.82298  0.59007  0.36843  1.0000
  C   C2151     1.0  0.74476  0.79742  0.50111  1.0000
  C   C2152     1.0  0.79562  0.71296  0.62486  1.0000
  H   H2143     1.0  0.83893  0.57181  0.38223  1.0000
  H   H2144     1.0  0.89398  0.71038  0.42677  1.0000
  H   H2145     1.0  0.77287  0.52531  0.42892  1.0000
  C   C2153     1.0  0.87556  0.80519  0.33635  1.0000
  S   S721      1.0  0.79746  0.51765  0.37825  1.0000
  C   C2154     1.0  0.81786  0.67894  0.55377  1.0000
  H   H2146     1.0  0.81197  0.68201  0.58356  1.0000
  C   C2155     1.0  0.80805  0.97983  0.31640  1.0000
  C   C2156     1.0  0.74590  0.57687  0.40999  1.0000
  H   H2147     1.0  0.84025  0.58940  0.40498  1.0000
  C   C2157     1.0  0.83815  0.58490  0.37035  1.0000
  H   H2148     1.0  0.86104  0.64144  0.35110  1.0000
  C   C2158     1.0  0.85652  0.63002  0.36299  1.0000
  H   H2149     1.0  0.81166  0.92419  0.32870  1.0000
  C   C2159     1.0  0.80651  0.65369  0.54816  1.0000
  H   H2150     1.0  0.75766  0.53169  0.40059  1.0000
  H   H2151     1.0  0.89575  0.67504  0.43409  1.0000
  H   H2152     1.0  0.80914  0.75466  0.39613  1.0000
  H   H2153     1.0  0.76631  0.66602  0.48784  1.0000
  H   H2154     1.0  0.77542  0.76993  0.40899  1.0000
  H   H2155     1.0  0.92005  0.70799  0.61923  1.0000
  C   C2160     1.0  0.74707  0.56197  0.40080  1.0000
  Fe  Fe362     1.0  0.85228  0.63303  0.63818  1.0000
  C   C2161     1.0  0.88215  0.80903  0.31623  1.0000
  H   H2156     1.0  0.93089  0.73452  0.39058  1.0000
  H   H2157     1.0  0.80961  0.70514  0.62764  1.0000
  S   S722      1.0  0.78814  0.67759  0.62633  1.0000
  H   H2158     1.0  0.84567  0.77213  0.38082  1.0000
  H   H2159     1.0  0.79221  0.63587  0.57346  1.0000
  S   S723      1.0  0.82987  0.84928  0.34450  1.0000
  H   H2160     1.0  0.83773  0.75660  0.37038  1.0000
  H   H2161     1.0  0.85000  0.61480  0.34470  1.0000
  C   C2162     1.0  0.90770  0.68110  0.42444  1.0000
  H   H2162     1.0  0.82436  0.66346  0.51249  1.0000
  Fe  Fe363     1.0  0.76880  0.87683  0.32186  1.0000
  C   C2163     1.0  0.80415  0.77011  0.39133  1.0000
  H   H2163     1.0  0.73867  0.59149  0.40452  1.0000
  C   C2164     1.0  0.85034  0.61490  0.35947  1.0000
  C   C2165     1.0  0.92369  0.66910  0.41543  1.0000
  C   C2166     1.0  0.77631  0.71724  0.43034  1.0000
  H   H2164     1.0  0.84211  0.77952  0.35617  1.0000
  H   H2165     1.0  0.79544  0.65443  0.59627  1.0000
  H   H2166     1.0  0.94963  0.70311  0.38967  1.0000
  S   S724      1.0  0.83477  0.53812  0.35899  1.0000
  N   N181      1.0  0.89855  0.73352  0.62267  1.0000
  C   C2167     1.0  0.87926  0.74078  0.62327  1.0000
  C   C2168     1.0  0.90840  0.74065  0.63187  1.0000
  C   C2169     1.0  0.86915  0.75499  0.63397  1.0000
  C   C2170     1.0  0.75421  0.57280  0.42622  1.0000
  C   C2171     1.0  0.74617  0.80107  0.53260  1.0000
  C   C2172     1.0  0.90888  0.71835  0.61174  1.0000
  H   H2167     1.0  0.87140  0.73505  0.61609  1.0000
  H   H2168     1.0  0.92367  0.73484  0.63152  1.0000
  H   H2169     1.0  0.85372  0.76013  0.63500  1.0000
  C   C2173     1.0  0.75632  0.67606  0.44295  1.0000
  H   H2170     1.0  0.75791  0.95042  0.33423  1.0000
  S   S725      1.0  0.82391  0.58896  0.32508  1.0000
  H   H2171     1.0  0.89891  0.70968  0.61065  1.0000
  C   C2174     1.0  0.79282  0.81726  0.64343  1.0000
  C   C2175     1.0  0.85085  0.61566  0.39714  1.0000
  C   C2176     1.0  0.85680  0.63034  0.38197  1.0000
  C   C2177     1.0  0.78540  0.70746  0.46170  1.0000
  N   N182      1.0  0.84486  0.60038  0.37441  1.0000
  H   H2172     1.0  0.77516  0.50859  0.31302  1.0000
  C   C2178     1.0  0.79919  0.64814  0.56803  1.0000
  C   C2179     1.0  0.84888  0.83292  0.33338  1.0000
  H   H2173     1.0  0.95137  0.66787  0.39573  1.0000
  C   C2180     1.0  0.89877  0.75502  0.64249  1.0000
  H   H2174     1.0  0.82541  0.69081  0.54839  1.0000
  C   C2181     1.0  0.74744  0.54051  0.33564  1.0000
  C   C2182     1.0  0.78871  0.70549  0.44249  1.0000
  C   C2183     1.0  0.77860  0.79857  0.39291  1.0000
  C   C2184     1.0  0.75109  0.85128  0.39014  1.0000
  H   H2175     1.0  0.76389  0.80543  0.39865  1.0000
  N   N183      1.0  0.81629  0.78103  0.37824  1.0000
  H   H2176     1.0  0.89849  0.66838  0.64080  1.0000
  H   H2177     1.0  0.97824  0.76458  0.32856  1.0000
  H   H2178     1.0  0.76730  0.72296  0.48350  1.0000
  C   C2185     1.0  0.93773  0.69702  0.39941  1.0000
  H   H2179     1.0  0.80192  0.74080  0.62213  1.0000
  C   C2186     1.0  0.83637  0.77193  0.37106  1.0000
  H   H2180     1.0  0.76096  0.54550  0.46333  1.0000
  H   H2181     1.0  0.76842  0.55793  0.32037  1.0000
  H   H2182     1.0  0.89917  0.82756  0.35979  1.0000
  C   C2187     1.0  0.88218  0.85230  0.34378  1.0000
  C   C2188     1.0  0.75841  0.55006  0.31903  1.0000
  H   H2183     1.0  0.79479  0.49463  0.35382  1.0000
  S   S726      1.0  0.94537  0.74945  0.31609  1.0000
  H   H2184     1.0  0.86873  0.89322  0.31948  1.0000
  C   C2189     1.0  0.74978  0.78937  0.51917  1.0000
  N   N184      1.0  0.78233  0.80691  0.63858  1.0000
  S   S727      1.0  0.79416  0.85387  0.31312  1.0000
  C   C2190     1.0  0.75299  0.85821  0.37009  1.0000
  N   N185      1.0  0.87960  0.86288  0.32585  1.0000
  S   S728      1.0  0.74428  0.74453  0.42275  1.0000
  H   H2185     1.0  0.77782  0.65485  0.45664  1.0000
  H   H2186     1.0  0.73827  0.69319  0.49146  1.0000
  H   H2187     1.0  0.76194  0.85214  0.39731  1.0000
  Fe  Fe364     1.0  0.81060  0.86860  0.32457  1.0000
  C   C2191     1.0  0.91022  0.83124  0.32900  1.0000
  S   S729      1.0  0.74072  0.86722  0.33568  1.0000
  H   H2188     1.0  0.74929  0.79487  0.54695  1.0000
  C   C2192     1.0  0.86342  0.87950  0.32398  1.0000
  H   H2189     1.0  0.74996  0.49093  0.31489  1.0000
  H   H2190     1.0  0.85257  0.87978  0.33781  1.0000
  Fe  Fe365     1.0  0.92999  0.72497  0.32210  1.0000
  H   H2191     1.0  0.74678  0.78803  0.49110  1.0000
  S   S730      1.0  0.83637  0.48883  0.34283  1.0000
  C   C2193     1.0  0.74311  0.68830  0.47786  1.0000
  H   H2192     1.0  0.76536  0.86417  0.36200  1.0000
  H   H2193     1.0  0.79972  0.84520  0.63931  1.0000
  C   C2194     1.0  0.85475  0.83606  0.31320  1.0000
  C   C2195     1.0  0.87900  0.76206  0.64371  1.0000
  C   C2196     1.0  0.73756  0.82059  0.52786  1.0000
  C   C2197     1.0  0.85069  0.56260  0.64270  1.0000
  H   H2194     1.0  0.85204  0.55580  0.31323  1.0000
  H   H2195     1.0  0.82036  0.56465  0.64493  1.0000
  H   H2196     1.0  0.88024  0.55772  0.64490  1.0000
  H   H2197     1.0  0.83986  0.97263  0.65991  1.0000
  S   S731      1.0  0.97057  0.57014  0.85107  1.0000
  H   H2198     1.0  0.84974  0.89387  0.68211  1.0000
  Fe  Fe366     1.0  0.79705  0.90768  0.69471  1.0000
  S   S732      1.0  0.80993  0.89492  0.72099  1.0000
  S   S733      1.0  0.79536  0.93960  0.68079  1.0000
  Fe  Fe367     1.0  0.78860  0.86909  0.69363  1.0000
  S   S734      1.0  0.80082  0.85396  0.72014  1.0000
  Fe  Fe368     1.0  0.78499  0.88015  0.73205  1.0000
  S   S735      1.0  0.77080  0.87883  0.76338  1.0000
  Fe  Fe369     1.0  0.82467  0.86989  0.70667  1.0000
  S   S736      1.0  0.85540  0.85668  0.70978  1.0000
  S   S737      1.0  0.77063  0.89441  0.70685  1.0000
  Fe  Fe370     1.0  0.91691  0.75576  0.69259  1.0000
  S   S738      1.0  0.88930  0.77554  0.68511  1.0000
  Fe  Fe371     1.0  0.93662  0.72632  0.72319  1.0000
  S   S739      1.0  0.96078  0.71384  0.70116  1.0000
  S   S740      1.0  0.93479  0.71329  0.75496  1.0000
  Fe  Fe372     1.0  0.96073  0.74468  0.68629  1.0000
  Fe  Fe373     1.0  0.93762  0.71560  0.68550  1.0000
  S   S741      1.0  0.93798  0.75744  0.70951  1.0000
  S   S742      1.0  0.91343  0.72586  0.70868  1.0000
  S   S743      1.0  0.93987  0.74535  0.66818  1.0000
  Fe  Fe374     1.0  0.80293  0.58992  0.94883  1.0000
  S   S744      1.0  0.82626  0.57663  0.92616  1.0000
  H   H2199     1.0  0.89128  0.82944  0.71280  1.0000
  S   S745      1.0  0.77539  0.60973  0.94210  1.0000
  C   C2198     1.0  0.75334  0.86687  0.66121  1.0000
  Fe  Fe375     1.0  0.86717  0.51646  0.74941  1.0000
  S   S746      1.0  0.83700  0.53182  0.75945  1.0000
  S   S747      1.0  0.89025  0.53298  0.74622  1.0000
  Fe  Fe376     1.0  0.83211  0.50260  0.77589  1.0000
  H   H2200     1.0  0.98665  0.57082  0.80484  1.0000
  Fe  Fe377     1.0  0.83044  0.52394  0.73461  1.0000
  S   S748      1.0  0.81358  0.54748  0.71488  1.0000
  S   S749      1.0  0.86101  0.51019  0.72339  1.0000
  Fe  Fe378     1.0  0.94439  0.58293  0.83737  1.0000
  S   S750      1.0  0.93318  0.61481  0.82902  1.0000
  Fe  Fe379     1.0  0.91184  0.57307  0.82446  1.0000
  S   S751      1.0  0.89855  0.60431  0.81482  1.0000
  S   S752      1.0  0.89618  0.54998  0.82518  1.0000
  Fe  Fe380     1.0  0.92917  0.60780  0.80243  1.0000
  S   S753      1.0  0.94025  0.62290  0.77211  1.0000
  Fe  Fe381     1.0  0.90385  0.60792  0.84248  1.0000
  S   S754      1.0  0.88201  0.62537  0.86280  1.0000
  S   S755      1.0  0.94219  0.57611  0.80984  1.0000
  S   S756      1.0  0.91539  0.57648  0.85298  1.0000
  C   C2199     1.0  0.89185  0.53778  0.76814  1.0000
  C   C2200     1.0  0.88251  0.52830  0.78593  1.0000
  C   C2201     1.0  0.88421  0.53197  0.80330  1.0000
  C   C2202     1.0  0.89481  0.54551  0.80302  1.0000
  C   C2203     1.0  0.90389  0.55527  0.78522  1.0000
  C   C2204     1.0  0.90254  0.55128  0.76781  1.0000
  H   H2201     1.0  0.87437  0.51776  0.78632  1.0000
  H   H2202     1.0  0.87749  0.52409  0.81701  1.0000
  H   H2203     1.0  0.91217  0.56566  0.78488  1.0000
  H   H2204     1.0  0.90988  0.55857  0.75410  1.0000
  C   C2205     1.0  0.84045  0.59110  0.90801  1.0000
  C   C2206     1.0  0.83937  0.61042  0.90826  1.0000
  C   C2207     1.0  0.85181  0.62111  0.89399  1.0000
  C   C2208     1.0  0.86513  0.61259  0.87936  1.0000
  C   C2209     1.0  0.86571  0.59347  0.87886  1.0000
  C   C2210     1.0  0.85364  0.58269  0.89331  1.0000
  H   H2205     1.0  0.82922  0.61699  0.91960  1.0000
  H   H2206     1.0  0.85126  0.63591  0.89444  1.0000
  H   H2207     1.0  0.87564  0.58686  0.86751  1.0000
  H   H2208     1.0  0.85472  0.56768  0.89324  1.0000
  C   C2211     1.0  0.75411  0.52369  0.82305  1.0000
  C   C2212     1.0  0.76511  0.51682  0.83738  1.0000
  H   H2209     1.0  0.85964  0.95783  0.68320  1.0000
  C   C2213     1.0  0.79409  0.50980  0.81302  1.0000
  C   C2214     1.0  0.78333  0.51758  0.79849  1.0000
  C   C2215     1.0  0.76330  0.52445  0.80354  1.0000
  C   C2216     1.0  0.78251  0.78663  0.64820  1.0000
  H   H2210     1.0  0.85191  0.56598  0.85980  1.0000
  H   H2211     1.0  0.79030  0.51778  0.78346  1.0000
  H   H2212     1.0  0.75487  0.52997  0.79236  1.0000
  H   H2213     1.0  0.90645  0.76048  0.65005  1.0000
  C   C2217     1.0  0.93153  0.60776  0.88107  1.0000
  H   H2214     1.0  0.81111  0.86239  0.76779  1.0000
  H   H2215     1.0  0.87139  0.77284  0.65239  1.0000
  S   S757      1.0  0.93708  0.69044  0.67321  1.0000
  S   S758      1.0  0.78053  0.84615  0.68325  1.0000
  H   H2216     1.0  0.75583  0.85840  0.74342  1.0000
  S   S759      1.0  0.86410  0.60463  0.65674  1.0000
  C   C2218     1.0  0.83225  0.54024  0.66530  1.0000
  C   C2219     1.0  0.93702  0.68801  0.76012  1.0000
  C   C2220     1.0  0.93123  0.67810  0.77915  1.0000
  C   C2221     1.0  0.93240  0.65799  0.78317  1.0000
  C   C2222     1.0  0.93978  0.64773  0.76820  1.0000
  C   C2223     1.0  0.94599  0.65757  0.74932  1.0000
  C   C2224     1.0  0.94434  0.67764  0.74525  1.0000
  H   H2217     1.0  0.92549  0.68604  0.79073  1.0000
  H   H2218     1.0  0.92741  0.65054  0.79778  1.0000
  H   H2219     1.0  0.95172  0.64970  0.73770  1.0000
  H   H2220     1.0  0.94871  0.68501  0.73057  1.0000
  C   C2225     1.0  0.85758  0.57457  0.68665  1.0000
  H   H2221     1.0  0.76535  0.67450  0.91738  1.0000
  C   C2226     1.0  0.84647  0.56204  0.69991  1.0000
  C   C2227     1.0  0.82693  0.56462  0.69991  1.0000
  C   C2228     1.0  0.81829  0.58047  0.68719  1.0000
  C   C2229     1.0  0.82936  0.59331  0.67411  1.0000
  H   H2222     1.0  0.85315  0.55028  0.71000  1.0000
  H   H2223     1.0  0.80311  0.58258  0.68721  1.0000
  S   S760      1.0  0.74193  0.51676  0.91832  1.0000
  C   C2230     1.0  0.84882  0.53028  0.67252  1.0000
  C   C2231     1.0  0.73918  0.53629  0.92942  1.0000
  H   H2224     1.0  0.93700  0.61382  0.89054  1.0000
  C   C2232     1.0  0.86478  0.83407  0.70304  1.0000
  C   C2233     1.0  0.85410  0.82633  0.69477  1.0000
  C   C2234     1.0  0.86179  0.80830  0.68946  1.0000
  C   C2235     1.0  0.88008  0.79782  0.69256  1.0000
  C   C2236     1.0  0.89063  0.80540  0.70116  1.0000
  C   C2237     1.0  0.88300  0.82354  0.70633  1.0000
  H   H2225     1.0  0.84001  0.83431  0.69225  1.0000
  H   H2226     1.0  0.85356  0.80249  0.68284  1.0000
  C   C2238     1.0  0.80252  0.95518  0.69136  1.0000
  C   C2239     1.0  0.81206  0.94786  0.70683  1.0000
  Fe  Fe382     1.0  0.77659  0.62357  0.96570  1.0000
  S   S761      1.0  0.83443  0.65872  0.65051  1.0000
  H   H2227     1.0  0.87628  0.58978  0.92068  1.0000
  H   H2228     1.0  0.76678  0.55761  0.94530  1.0000
  H   H2229     1.0  0.80210  0.53326  0.85641  1.0000
  C   C2240     1.0  0.91511  0.67738  0.65615  1.0000
  C   C2241     1.0  0.85763  0.94378  0.68274  1.0000
  H   H2230     1.0  0.83760  0.51759  0.82907  1.0000
  H   H2231     1.0  0.90474  0.79742  0.70358  1.0000
  C   C2242     1.0  0.83324  0.55646  0.65026  1.0000
  H   H2232     1.0  0.78706  0.78305  0.66231  1.0000
  H   H2233     1.0  0.82304  0.56393  0.88682  1.0000
  C   C2243     1.0  0.75059  0.86818  0.77012  1.0000
  H   H2234     1.0  0.92225  0.61967  0.87253  1.0000
  C   C2244     1.0  0.74048  0.66189  0.92309  1.0000
  C   C2245     1.0  0.88287  0.70688  0.66289  1.0000
  H   H2235     1.0  0.96927  0.74224  0.74089  1.0000
  C   C2246     1.0  0.84229  0.95898  0.65477  1.0000
  C   C2247     1.0  0.82465  0.55776  0.87430  1.0000
  C   C2248     1.0  0.90200  0.59884  0.90232  1.0000
  H   H2236     1.0  0.83666  0.64021  0.70343  1.0000
  N   N186      1.0  0.91253  0.65634  0.72656  1.0000
  C   C2249     1.0  0.90699  0.67587  0.72550  1.0000
  C   C2250     1.0  0.89673  0.68328  0.74195  1.0000
  C   C2251     1.0  0.92427  0.64913  0.70932  1.0000
  H   H2237     1.0  0.91102  0.68576  0.71196  1.0000
  H   H2238     1.0  0.89304  0.69876  0.74128  1.0000
  H   H2239     1.0  0.92816  0.63308  0.71207  1.0000
  H   H2240     1.0  0.91636  0.65440  0.69723  1.0000
  H   H2241     1.0  0.93793  0.65459  0.70458  1.0000
  H   H2242     1.0  0.81857  0.53583  0.67192  1.0000
  H   H2243     1.0  0.87282  0.57215  0.68647  1.0000
  H   H2244     1.0  0.74887  0.64720  0.92387  1.0000
  S   S762      1.0  0.81391  0.88351  0.67913  1.0000
  C   C2252     1.0  0.84913  0.59010  0.67362  1.0000
  H   H2245     1.0  0.94404  0.60159  0.87051  1.0000
  C   C2253     1.0  0.81837  0.97964  0.70441  1.0000
  H   H2246     1.0  0.76003  0.81882  0.68126  1.0000
  C   C2254     1.0  0.75400  0.55482  0.94269  1.0000
  H   H2247     1.0  0.80376  0.79400  0.74607  1.0000
  H   H2248     1.0  0.83047  0.84516  0.77792  1.0000
  C   C2255     1.0  0.91851  0.55978  0.90572  1.0000
  H   H2249     1.0  0.74602  0.70781  0.91699  1.0000
  H   H2250     1.0  0.84639  0.82571  0.74330  1.0000
  S   S763      1.0  0.76750  0.65599  0.96237  1.0000
  C   C2256     1.0  0.85195  0.90787  0.68240  1.0000
  H   H2251     1.0  0.89092  0.55480  0.92331  1.0000
  H   H2252     1.0  0.88331  0.53322  0.68500  1.0000
  H   H2253     1.0  0.88463  0.67609  0.77250  1.0000
  C   C2257     1.0  0.88291  0.52628  0.67329  1.0000
  C   C2258     1.0  0.86100  0.90954  0.69630  1.0000
  H   H2254     1.0  0.92509  0.54454  0.90668  1.0000
  C   C2259     1.0  0.86387  0.92761  0.69653  1.0000
  H   H2255     1.0  0.82784  0.95399  0.72486  1.0000
  C   C2260     1.0  0.82389  0.85057  0.76493  1.0000
  H   H2256     1.0  0.89963  0.71641  0.67748  1.0000
  H   H2257     1.0  0.81407  0.93271  0.71340  1.0000
  N   N187      1.0  0.84843  0.94203  0.66937  1.0000
  C   C2261     1.0  0.84561  0.92437  0.66903  1.0000
  C   C2262     1.0  0.83184  0.82316  0.74882  1.0000
  C   C2263     1.0  0.79465  0.81653  0.76254  1.0000
  C   C2264     1.0  0.81995  0.96000  0.71328  1.0000
  C   C2265     1.0  0.81065  0.54848  0.87327  1.0000
  C   C2266     1.0  0.84079  0.55896  0.85919  1.0000
  C   C2267     1.0  0.80011  0.97507  0.68306  1.0000
  H   H2258     1.0  0.75831  0.51700  0.85232  1.0000
  H   H2259     1.0  0.79331  0.50380  0.84367  1.0000
  H   H2260     1.0  0.79809  0.54736  0.88500  1.0000
  H   H2261     1.0  0.89422  0.64061  0.77402  1.0000
  C   C2268     1.0  0.82678  0.80836  0.74356  1.0000
  H   H2262     1.0  0.76974  0.53171  0.92787  1.0000
  S   S764      1.0  0.78789  0.56830  0.97140  1.0000
  H   H2263     1.0  0.88258  0.51075  0.67954  1.0000
  H   H2264     1.0  0.79266  0.98093  0.67114  1.0000
  N   N188      1.0  0.86594  0.53626  0.66487  1.0000
  S   S765      1.0  0.80572  0.60559  0.97045  1.0000
  C   C2269     1.0  0.75436  0.83257  0.67265  1.0000
  H   H2265     1.0  0.91258  0.62825  0.74476  1.0000
  S   S766      1.0  0.86302  0.48751  0.76784  1.0000
  C   C2270     1.0  0.74009  0.86779  0.64989  1.0000
  H   H2266     1.0  0.94383  0.56927  0.88749  1.0000
  C   C2271     1.0  0.80800  0.80516  0.75036  1.0000
  C   C2272     1.0  0.78501  0.50971  0.83241  1.0000
  C   C2273     1.0  0.88258  0.69366  0.65212  1.0000
  C   C2274     1.0  0.74629  0.85937  0.75735  1.0000
  H   H2267     1.0  0.82275  0.60533  0.66408  1.0000
  H   H2268     1.0  0.84770  0.51810  0.68467  1.0000
  H   H2269     1.0  0.97897  0.71721  0.74849  1.0000
  H   H2270     1.0  0.83807  0.92303  0.65862  1.0000
  N   N189      1.0  0.84609  0.60972  0.71084  1.0000
  C   C2275     1.0  0.83131  0.60134  0.72253  1.0000
  C   C2276     1.0  0.86473  0.60195  0.71298  1.0000
  C   C2277     1.0  0.83500  0.58474  0.73685  1.0000
  C   C2278     1.0  0.86893  0.58533  0.72715  1.0000
  C   C2279     1.0  0.85394  0.57682  0.73922  1.0000
  C   C2280     1.0  0.84174  0.62751  0.69642  1.0000
  H   H2271     1.0  0.81659  0.60724  0.72057  1.0000
  H   H2272     1.0  0.87648  0.60834  0.70344  1.0000
  H   H2273     1.0  0.82333  0.57779  0.74574  1.0000
  H   H2274     1.0  0.88372  0.57880  0.72865  1.0000
  H   H2275     1.0  0.85709  0.56391  0.75019  1.0000
  H   H2276     1.0  0.85462  0.62978  0.68470  1.0000
  H   H2277     1.0  0.83045  0.62671  0.68918  1.0000
  H   H2278     1.0  0.89525  0.61410  0.90074  1.0000
  C   C2281     1.0  0.91569  0.69122  0.66606  1.0000
  N   N190      1.0  0.92056  0.59310  0.89284  1.0000
  C   C2282     1.0  0.75565  0.54016  0.93281  1.0000
  C   C2283     1.0  0.92902  0.57386  0.89479  1.0000
  H   H2279     1.0  0.97326  0.60504  0.79083  1.0000
  H   H2280     1.0  0.83434  0.85712  0.75255  1.0000
  Fe  Fe383     1.0  0.76060  0.58932  0.96628  1.0000
  C   C2284     1.0  0.89939  0.70573  0.66977  1.0000
  N   N191      1.0  0.81847  0.83468  0.76021  1.0000
  H   H2281     1.0  0.86568  0.89681  0.70689  1.0000
  H   H2282     1.0  0.87048  0.71848  0.66536  1.0000
  H   H2283     1.0  0.98420  0.78802  0.68488  1.0000
  H   H2284     1.0  0.78970  0.84009  0.77684  1.0000
  H   H2285     1.0  0.87068  0.92916  0.70742  1.0000
  H   H2286     1.0  0.77994  0.81433  0.76780  1.0000
  H   H2287     1.0  0.76780  0.78354  0.65124  1.0000
  C   C2285     1.0  0.89195  0.67056  0.75948  1.0000
  C   C2286     1.0  0.89117  0.58515  0.91359  1.0000
  H   H2288     1.0  0.80090  0.81082  0.65485  1.0000
  S   S767      1.0  0.82223  0.49586  0.75211  1.0000
  C   C2287     1.0  0.98279  0.73099  0.73938  1.0000
  H   H2289     1.0  0.74152  0.87610  0.79805  1.0000
  C   C2288     1.0  0.89941  0.56551  0.91506  1.0000
  H   H2290     1.0  0.85531  0.55184  0.83165  1.0000
  C   C2289     1.0  0.81298  0.54058  0.85705  1.0000
  C   C2290     1.0  0.73815  0.86942  0.78808  1.0000
  H   H2291     1.0  0.81699  0.53492  0.82169  1.0000
  C   C2291     1.0  0.90764  0.64375  0.74363  1.0000
  S   S768      1.0  0.81855  0.49876  0.80760  1.0000
  C   C2292     1.0  0.83111  0.53328  0.82558  1.0000
  H   H2292     1.0  0.84057  0.54014  0.81248  1.0000
  C   C2293     1.0  0.89722  0.65067  0.76031  1.0000
  H   H2293     1.0  0.92769  0.66606  0.65332  1.0000
  C   C2294     1.0  0.84264  0.55092  0.84321  1.0000
  C   C2295     1.0  0.76085  0.84913  0.67228  1.0000
  H   H2294     1.0  0.75832  0.87970  0.66075  1.0000
  H   H2295     1.0  0.83730  0.79971  0.73396  1.0000
  C   C2296     1.0  0.80023  0.83119  0.76752  1.0000
  N   N192      1.0  0.82872  0.54207  0.84219  1.0000
  H   H2296     1.0  0.74206  0.69299  0.96605  1.0000
  H   H2297     1.0  0.74093  0.90929  0.74643  1.0000
  C   C2297     1.0  0.74119  0.83349  0.66132  1.0000
  H   H2298     1.0  0.96939  0.61142  0.83714  1.0000
  C   C2298     1.0  0.89856  0.67859  0.64917  1.0000
  H   H2299     1.0  0.82832  0.95848  0.65174  1.0000
  H   H2300     1.0  0.98747  0.72953  0.72398  1.0000
  C   C2299     1.0  0.73872  0.69602  0.91936  1.0000
  C   C2300     1.0  0.74220  0.66308  0.96792  1.0000
  H   H2301     1.0  0.89646  0.52680  0.66214  1.0000
  C   C2301     1.0  0.74975  0.67727  0.91936  1.0000
  C   C2302     1.0  0.86697  0.55234  0.65031  1.0000
  C   C2303     1.0  0.98695  0.58479  0.84924  1.0000
  H   H2302     1.0  0.74460  0.91453  0.77653  1.0000
  C   C2304     1.0  0.98289  0.60465  0.84158  1.0000
  H   H2303     1.0  0.73968  0.52229  0.97650  1.0000
  H   H2304     1.0  0.77342  0.50422  0.97666  1.0000
  Fe  Fe384     1.0  0.85361  0.48259  0.74277  1.0000
