data_image0
_chemical_formula_structural       CSH2CHCFeSC2HC2HCNCS2CSC2H4C5HSHFeH4CH4CHCSCHCHNCFeHCHC2HCHCHC3FeSCFeS2FeSFeS4CH2C2HC2H3SFe2S2FeS2HNCHC2H3CHC4H2C3HCH2CH2SC3HSC2H2C2H2FeC9H4C6H4C6H4SH2CSC3H2CH2NC6H2CH5CHC2H3C2FeHSC6SNCH2C2H4CH2NS2H4C3H3CNSH2FeCHNH2CHSCH2C7NCHCS2CH3CHS2HCHCFeCHFeHSHC2HC2HFeS2FeS2FeSFeS4FeHSCHFeSFeC3HFe2S2FeSCFeSFeCS3NH2C3SCHNHC4HCH4FeCHSC3H2C4FeH2FeS2HCHC7H4C6H4C6H6C2SHC2FeC3H2FeHC2H4C4H2NC6H13C6HCSHFeH2CH4CH5CHSH3SCH4CH2CSHFeCSC2HCN2SC2SCHCH2SNHC4NHCHSC2HC2SHCHCFeHS3C2H2S2HCH5CHSFeHCH2C5H2C2HNSH3C2HCNCHCHFeH3CH3CSH5FeHSH4C2HC3H3C2SC2HC3SCSC2S2NSHCHC6H2SH2C3HCHC3H3CSHFe2HC4HC3FeCHC3H3N2CSH2FeS2HSFeSCFeNHFeS2FeS2FeSFeS3FeS2FeS2FeSFeS3FeS2FeS2FeSFeHS2C6H4C6H4C4H8C2H5CHSC2H2FeSC6H5CHNSHCHSHC6H4C3NCHCHC2H2CHFeHCHSC4H2CFeH2CH2CHNHC4H6CSCNC6H8NC6HFeC3HC2FeCH2CHSNCHCH2CHS2HC3H3CHCH2FeCHCFeHFeHCH4NCH2CSC3HC2HFeS2NHCHSH3SHNFeC2SH3CHCH2CHC3HSH2CHC3HCNCH2C2FeH3C2HCHCHCHNHC3NSHCH2SC6H4CH4CHSC4HCS2HC2H2C2HC5HCH2CH2CSHNH2CHCHCHCHCH2CH2CH2CFeCSH2CH2CHC5FeC3HCH2S3HC2HCHCHNCHCFeSCHCFeHNC2H3CH2CHC2H3CSCH2C2HSC3FeCFeC7H6SH2CHC4HCH2CHCHCHSCH2NHCSCSC2H2SFeCSCH2CHCN2SC2H2CHCH2C3H4CSCFeH4CSC2H3C2SCHSFeS2CHNC4H4SFeSHFeSFeSFeSFeSFeCFeS2CFeS2FeS2FeSFeS3C3HFeCFeCH2C6H6SFeH2C6H4CSHC5H3CS2H2CH2C2H5C2HC6H6C2FeHFeHC2FeC2NFe2SNH3S2CHCNCHC4HC2H3CFeH2CFeHC2HSCSH3NHC2HC3SC2H3NC6H2N2CSH4SHCH5C2H2NS2C3H2C2NHSHC3HC2SCSCHCH2CH2SHCHC3HC2SCH2NCH3CHC2HC2H2SH2FeSH2SFeS2FeS2FeS2FeSFeS3NHSCHC4SH2C6H4FeHCHC7H4FeC5H4C6NH4SHSNSHC6HCH4SHCH3CHCH3SCHFeC2H2FeH3SCHCH3SC3S3CFeC3HC2NH3CHNFeHFeCSH2CH2NCSHC3FeHNCSCHS2HC4HC2HC2H4CFeH2C2HFeH4NH4SCHCH4CHSCHS2H2C2FeHC4HSH2FeCH3CFeHCH2CSCHCSNCHC4HCHSHS2C3HCSCHSHCH3FeHNFeHSCH3CHFeS2HC3HFeH2C6H4NCHCSHCFeC2HCFeSFeCH2NCSHFeHFeCHCHC2H3SHFeHCFeCFeCFeSH2C3SH2C3HSHSHC2NSHSC2SHC3SCHNHNCHFeC2H3CHCNC2HCHSHC2HCH5C5SCH2CH2NC2HSH2CS2CH2SNFeS2FeHCFeCFeCS3HCHSH2CH2CFeS2FeHCFeSFeS2C2HCH2C4HC3FeSH2SH2C2HCHC6FeH4CHCHC6H3FeHC2HC3HSNC2HCHSC2HNHSCSH4CH3CHCH2SCH3CH3SHFeCHSC2S2H2CHCH3CH4CSHC2SH2CHCNCHSHCH2SCFeS2FeSFeS2HSFeC3HC4H2SFeS2FeSNFeSFeS3FeSCFeS2HSC6H5C2HCH4C3HSC6HCH3C2HCFeHC2HC6H4CFeH2CH3SHFeHCHC2H2NHCHFe2CH2SHC2HCHNH3C5NH4C2FeSC2HSC2NC6H9CFeC3NSHC2H3SC2H2CHCH2C2SH2CHC2HCNCSHCH2SCFeHSHFeCHCH4C2SH3SH2CHSHC2HNHFeH2SC2SH2C3H2SH2C2HCSC3SH2CH3CSC2HNC2SCH3SCFeS2C2HS2FeS2FeS2FeSFeS3FeSFeS2FeSFeS3FeSCFeS2FeSCHSC2HCHC2HCHC2HCHFeC3NSHC5H3C2HFeC5HSHC7H4C6H4CHC5H2SC6H5SHCHSHCH2C2HCHC2SFeH2CH2CHC4SC4HC2H4NHFeH2CH2CHNC3H6C2H2C2HCH2CH2N2HCH5C2HCSHS2CHCFeHC2FeHNHSFeSNHCSH3SC2H3FeC3H6C2H6C2HC3H2FeHSHFeH2CH2FeS2FeSHFeSFeS3H2CFeCHCH2NFeS2FeS2H2CH3C6HC2HCH2SH2C6H5CH4C3HC6H3FeC2S2NHCHCHC6H4C3H3NHSH4CHC3HCHCNCHCHC2HCSCNC6H7C4SNSHNHCHC3H3SNC2SCSCH3SHCH5CHCSC2H2CHC2SCSCHCH2SCH4CHC2HC2H6CH3
_chemical_formula_sum              "C1152 S384 H1152 Fe192 N96"
_cell_length_a       54.0265
_cell_length_b       53.4305
_cell_length_c       70.5315
_cell_angle_alpha    81.462
_cell_angle_beta     80.8513
_cell_angle_gamma    106.746

_space_group_name_H-M_alt    "P 1"
_space_group_IT_number       1

loop_
  _space_group_symop_operation_xyz
  'x, y, z'

loop_
  _atom_site_type_symbol
  _atom_site_label
  _atom_site_symmetry_multiplicity
  _atom_site_fract_x
  _atom_site_fract_y
  _atom_site_fract_z
  _atom_site_occupancy
  C   C1        1.0  0.44928  0.45837  0.20843  1.0000
  S   S1        1.0  0.44831  0.36683  0.09534  1.0000
  H   H1        1.0  0.44569  0.28875  0.10227  1.0000
  H   H2        1.0  0.47192  0.02131  0.19381  1.0000
  C   C2        1.0  0.43371  0.05888  0.18041  1.0000
  H   H3        1.0  0.42157  0.43209  0.13260  1.0000
  C   C3        1.0  0.45148  0.34557  0.07909  1.0000
  Fe  Fe1       1.0  0.46531  0.14445  0.22906  1.0000
  S   S2        1.0  0.45479  0.15471  0.20003  1.0000
  C   C4        1.0  0.45025  0.04941  0.19094  1.0000
  C   C5        1.0  0.43511  0.02700  0.15950  1.0000
  H   H4        1.0  0.41784  0.46699  0.22627  1.0000
  C   C6        1.0  0.45166  0.01753  0.16990  1.0000
  C   C7        1.0  0.44813  0.39855  0.13707  1.0000
  H   H5        1.0  0.45651  0.05839  0.20286  1.0000
  C   C8        1.0  0.45644  0.30932  0.05484  1.0000
  N   N1        1.0  0.37786  0.07254  0.24090  1.0000
  C   C9        1.0  0.46402  0.26013  0.11296  1.0000
  S   S3        1.0  0.42374  0.08593  0.18572  1.0000
  S   S4        1.0  0.44487  0.47498  0.18659  1.0000
  C   C10       1.0  0.43809  0.44006  0.13989  1.0000
  S   S5        1.0  0.46089  0.10194  0.22733  1.0000
  C   C11       1.0  0.45890  0.02838  0.18588  1.0000
  C   C12       1.0  0.42578  0.04731  0.16496  1.0000
  H   H6        1.0  0.40041  0.10408  0.21664  1.0000
  H   H7        1.0  0.45940  0.36334  0.13484  1.0000
  H   H8        1.0  0.48237  0.44797  0.19479  1.0000
  H   H9        1.0  0.43744  0.39637  0.12530  1.0000
  C   C13       1.0  0.48156  0.46798  0.02090  1.0000
  C   C14       1.0  0.43143  0.31057  0.06257  1.0000
  C   C15       1.0  0.39009  0.09876  0.23187  1.0000
  C   C16       1.0  0.46196  0.28569  0.10853  1.0000
  C   C17       1.0  0.42891  0.32827  0.07506  1.0000
  H   H10       1.0  0.45355  0.45707  0.12946  1.0000
  S   S6        1.0  0.45977  0.28664  0.03974  1.0000
  H   H11       1.0  0.40950  0.32881  0.08136  1.0000
  Fe  Fe2       1.0  0.45466  0.11349  0.19716  1.0000
  H   H12       1.0  0.41400  0.29753  0.05921  1.0000
  H   H13       1.0  0.42961  0.01877  0.14708  1.0000
  H   H14       1.0  0.41309  0.05467  0.15677  1.0000
  H   H15       1.0  0.44938  0.24314  0.11015  1.0000
  C   C18       1.0  0.43493  0.46029  0.22617  1.0000
  H   H16       1.0  0.47958  0.32721  0.10851  1.0000
  H   H17       1.0  0.46877  0.28093  0.99906  1.0000
  H   H18       1.0  0.43341  0.40902  0.02423  1.0000
  H   H19       1.0  0.39941  0.04966  0.22799  1.0000
  C   C19       1.0  0.46238  0.44325  0.02939  1.0000
  H   H20       1.0  0.45816  0.43588  0.04508  1.0000
  C   C20       1.0  0.37929  0.05160  0.22988  1.0000
  S   S7        1.0  0.47670  0.44320  0.08987  1.0000
  C   C21       1.0  0.47652  0.40421  0.16651  1.0000
  H   H21       1.0  0.43005  0.44752  0.15266  1.0000
  C   C22       1.0  0.44834  0.42809  0.01760  1.0000
  H   H22       1.0  0.37505  0.05652  0.21511  1.0000
  N   N2        1.0  0.44983  0.41958  0.14630  1.0000
  C   C23       1.0  0.48136  0.30741  0.11184  1.0000
  Fe  Fe3       1.0  0.48317  0.40423  0.08701  1.0000
  H   H23       1.0  0.40016  0.13987  0.23517  1.0000
  C   C24       1.0  0.47888  0.32612  0.05938  1.0000
  H   H24       1.0  0.48310  0.40018  0.00549  1.0000
  C   C25       1.0  0.46394  0.42266  0.16072  1.0000
  C   C26       1.0  0.47651  0.34484  0.07091  1.0000
  H   H25       1.0  0.36483  0.03182  0.23748  1.0000
  C   C27       1.0  0.48062  0.44575  0.22559  1.0000
  H   H26       1.0  0.47742  0.02719  0.23041  1.0000
  C   C28       1.0  0.46057  0.37976  0.14242  1.0000
  H   H27       1.0  0.46625  0.44003  0.16730  1.0000
  C   C29       1.0  0.45427  0.43708  0.99721  1.0000
  C   C30       1.0  0.47120  0.44950  0.20836  1.0000
  C   C31       1.0  0.47494  0.38272  0.15719  1.0000
  Fe  Fe4       1.0  0.17869  0.21501  0.45135  1.0000
  S   S8        1.0  0.20670  0.21000  0.42622  1.0000
  C   C32       1.0  0.46983  0.47443  0.36349  1.0000
  Fe  Fe5       1.0  0.14277  0.22935  0.42609  1.0000
  S   S9        1.0  0.16770  0.22563  0.39876  1.0000
  S   S10       1.0  0.10756  0.24319  0.42315  1.0000
  Fe  Fe6       1.0  0.16994  0.18868  0.41693  1.0000
  S   S11       1.0  0.17005  0.15399  0.40249  1.0000
  Fe  Fe7       1.0  0.20249  0.24744  0.41004  1.0000
  S   S12       1.0  0.23573  0.27618  0.38625  1.0000
  S   S13       1.0  0.14195  0.19024  0.44345  1.0000
  S   S14       1.0  0.17747  0.25458  0.43606  1.0000
  S   S15       1.0  0.10136  0.03582  0.44430  1.0000
  C   C33       1.0  0.26064  0.34873  0.36165  1.0000
  H   H28       1.0  0.33270  0.33570  0.44515  1.0000
  H   H29       1.0  0.03262  0.21695  0.46389  1.0000
  C   C34       1.0  0.44537  0.03901  0.27177  1.0000
  C   C35       1.0  0.29152  0.28043  0.47669  1.0000
  H   H30       1.0  0.16792  0.05029  0.48148  1.0000
  C   C36       1.0  0.25918  0.02045  0.38101  1.0000
  C   C37       1.0  0.42985  0.34608  0.31271  1.0000
  H   H31       1.0  0.19240  0.14049  0.43836  1.0000
  H   H32       1.0  0.23052  0.03415  0.32259  1.0000
  H   H33       1.0  0.00496  0.25737  0.48732  1.0000
  S   S16       1.0  0.33888  0.02371  0.31252  1.0000
  Fe  Fe8       1.0  0.40926  0.43483  0.35758  1.0000
  Fe  Fe9       1.0  0.36807  0.38076  0.37678  1.0000
  S   S17       1.0  0.38106  0.36140  0.35257  1.0000
  S   S18       1.0  0.33424  0.36048  0.40304  1.0000
  Fe  Fe10      1.0  0.38344  0.39905  0.33243  1.0000
  S   S19       1.0  0.36899  0.40088  0.30433  1.0000
  S   S20       1.0  0.36690  0.41652  0.35633  1.0000
  H   H34       1.0  0.09174  0.10418  0.40691  1.0000
  N   N3        1.0  0.28384  0.36918  0.35897  1.0000
  C   C38       1.0  0.36442  0.08576  0.27100  1.0000
  H   H35       1.0  0.31354  0.36575  0.31384  1.0000
  C   C39       1.0  0.46434  0.06072  0.34090  1.0000
  C   C40       1.0  0.48227  0.37261  0.33875  1.0000
  H   H36       1.0  0.46373  0.33270  0.31356  1.0000
  H   H37       1.0  0.00750  0.37825  0.34157  1.0000
  H   H38       1.0  0.02328  0.13058  0.41128  1.0000
  C   C41       1.0  0.02748  0.44116  0.29304  1.0000
  H   H39       1.0  0.47258  0.40196  0.31984  1.0000
  C   C42       1.0  0.43192  0.13649  0.27697  1.0000
  C   C43       1.0  0.42190  0.14642  0.29271  1.0000
  C   C44       1.0  0.41195  0.09141  0.29654  1.0000
  C   C45       1.0  0.42737  0.10895  0.27900  1.0000
  H   H40       1.0  0.42538  0.16768  0.29122  1.0000
  H   H41       1.0  0.43459  0.07935  0.33674  1.0000
  C   C46       1.0  0.99340  0.19205  0.47922  1.0000
  C   C47       1.0  0.30245  0.37560  0.34188  1.0000
  C   C48       1.0  0.46867  0.36030  0.28654  1.0000
  H   H42       1.0  0.23550  0.29628  0.48141  1.0000
  C   C49       1.0  0.37812  0.43455  0.29227  1.0000
  H   H43       1.0  0.42904  0.04597  0.27685  1.0000
  H   H44       1.0  0.39916  0.13688  0.32232  1.0000
  C   C50       1.0  0.45432  0.49111  0.36091  1.0000
  H   H45       1.0  0.39025  0.45004  0.31703  1.0000
  H   H46       1.0  0.39970  0.36367  0.30793  1.0000
  S   S21       1.0  0.42591  0.41980  0.33205  1.0000
  C   C51       1.0  0.37663  0.11253  0.26183  1.0000
  C   C52       1.0  0.19291  0.14465  0.46826  1.0000
  C   C53       1.0  0.37551  0.44125  0.27287  1.0000
  H   H47       1.0  0.38038  0.47336  0.24852  1.0000
  S   S22       1.0  0.45166  0.36134  0.35563  1.0000
  C   C54       1.0  0.36535  0.06588  0.26028  1.0000
  C   C55       1.0  0.42509  0.02188  0.36923  1.0000
  H   H48       1.0  0.03665  0.42924  0.30151  1.0000
  H   H49       1.0  0.18779  0.01710  0.35946  1.0000
  C   C56       1.0  0.25609  0.33340  0.34734  1.0000
  C   C57       1.0  0.40163  0.10147  0.31215  1.0000
  H   H50       1.0  0.13889  0.05499  0.47374  1.0000
  H   H51       1.0  0.41946  0.33498  0.32738  1.0000
  Fe  Fe11      1.0  0.36748  0.03737  0.33145  1.0000
  C   C58       1.0  0.21371  0.25561  0.48089  1.0000
  C   C59       1.0  0.22772  0.27582  0.48950  1.0000
  C   C60       1.0  0.22759  0.00646  0.45578  1.0000
  C   C61       1.0  0.26364  0.29680  0.39245  1.0000
  C   C62       1.0  0.28739  0.30676  0.37836  1.0000
  C   C63       1.0  0.30916  0.32611  0.38161  1.0000
  C   C64       1.0  0.30737  0.33555  0.39903  1.0000
  C   C65       1.0  0.28379  0.32516  0.41338  1.0000
  C   C66       1.0  0.26194  0.30569  0.41014  1.0000
  H   H52       1.0  0.28876  0.29990  0.36466  1.0000
  H   H53       1.0  0.32720  0.33386  0.37052  1.0000
  H   H54       1.0  0.28226  0.33247  0.42688  1.0000
  H   H55       1.0  0.24355  0.29825  0.42100  1.0000
  C   C67       1.0  0.15101  0.12151  0.41484  1.0000
  C   C68       1.0  0.13077  0.11662  0.43134  1.0000
  C   C69       1.0  0.11533  0.09021  0.44033  1.0000
  C   C70       1.0  0.12050  0.06876  0.43304  1.0000
  C   C71       1.0  0.14109  0.07377  0.41684  1.0000
  C   C72       1.0  0.15609  0.10007  0.40764  1.0000
  H   H56       1.0  0.12673  0.13312  0.43697  1.0000
  H   H57       1.0  0.09944  0.08637  0.45294  1.0000
  H   H58       1.0  0.14530  0.05740  0.41119  1.0000
  H   H59       1.0  0.17178  0.10380  0.39490  1.0000
  C   C73       1.0  0.07585  0.21953  0.42777  1.0000
  C   C74       1.0  0.07078  0.19313  0.43732  1.0000
  C   C75       1.0  0.04529  0.17465  0.44053  1.0000
  C   C76       1.0  0.02490  0.18240  0.43398  1.0000
  C   C77       1.0  0.02993  0.20882  0.42454  1.0000
  C   C78       1.0  0.05533  0.22735  0.42153  1.0000
  H   H60       1.0  0.08642  0.18697  0.44232  1.0000
  H   H61       1.0  0.04145  0.15422  0.44792  1.0000
  H   H62       1.0  0.01442  0.21491  0.41925  1.0000
  H   H63       1.0  0.05918  0.24777  0.41411  1.0000
  S   S23       1.0  0.38153  0.08011  0.33397  1.0000
  H   H64       1.0  0.36795  0.42565  0.26511  1.0000
  H   H65       1.0  0.27210  0.32742  0.31902  1.0000
  C   C79       1.0  0.41917  0.04323  0.35906  1.0000
  S   S24       1.0  0.37836  0.00269  0.27104  1.0000
  C   C80       1.0  0.27522  0.33942  0.33008  1.0000
  C   C81       1.0  0.45727  0.37671  0.27605  1.0000
  C   C82       1.0  0.00416  0.47218  0.27088  1.0000
  H   H66       1.0  0.35504  0.08048  0.28647  1.0000
  H   H67       1.0  0.46597  0.00560  0.38863  1.0000
  C   C83       1.0  0.99549  0.35676  0.34458  1.0000
  H   H68       1.0  0.23650  0.00558  0.46894  1.0000
  H   H69       1.0  0.06417  0.46487  0.27332  1.0000
  N   N4        1.0  0.08793  0.16631  0.39373  1.0000
  C   C84       1.0  0.09893  0.14635  0.39669  1.0000
  C   C85       1.0  0.06110  0.16077  0.39868  1.0000
  C   C86       1.0  0.08291  0.11995  0.40460  1.0000
  C   C87       1.0  0.04450  0.13466  0.40686  1.0000
  C   C88       1.0  0.05554  0.11415  0.40983  1.0000
  C   C89       1.0  0.10509  0.19403  0.38652  1.0000
  H   H70       1.0  0.12023  0.15080  0.39305  1.0000
  H   H71       1.0  0.05239  0.17668  0.39684  1.0000
  C   C90       1.0  0.46964  0.03918  0.35142  1.0000
  H   H72       1.0  0.40951  0.00670  0.38020  1.0000
  H   H73       1.0  0.20294  0.16604  0.46439  1.0000
  H   H74       1.0  0.12367  0.19521  0.37649  1.0000
  H   H75       1.0  0.09512  0.20624  0.37838  1.0000
  H   H76       1.0  0.11031  0.20305  0.39914  1.0000
  C   C91       1.0  0.40700  0.12900  0.31029  1.0000
  H   H77       1.0  0.21063  0.26052  0.46621  1.0000
  C   C92       1.0  0.30214  0.27086  0.44458  1.0000
  C   C93       1.0  0.15317  0.06102  0.48332  1.0000
  H   H78       1.0  0.39933  0.04464  0.36212  1.0000
  H   H79       1.0  0.46840  0.38927  0.26199  1.0000
  H   H80       1.0  0.29292  0.01950  0.36043  1.0000
  C   C94       1.0  0.45189  0.03779  0.25207  1.0000
  C   C95       1.0  0.30822  0.32540  0.48303  1.0000
  Fe  Fe12      1.0  0.42235  0.38394  0.35460  1.0000
  H   H81       1.0  0.26890  0.04031  0.38309  1.0000
  S   S25       1.0  0.39598  0.01706  0.32035  1.0000
  C   C96       1.0  0.27285  0.00863  0.36832  1.0000
  C   C97       1.0  0.28852  0.38488  0.37417  1.0000
  C   C98       1.0  0.38803  0.45487  0.30212  1.0000
  C   C99       1.0  0.29849  0.36077  0.32723  1.0000
  C   C100      1.0  0.42084  0.39456  0.27246  1.0000
  C   C101      1.0  0.47281  0.47878  0.30377  1.0000
  S   S26       1.0  0.18391  0.20364  0.48210  1.0000
  N   N5        1.0  0.45007  0.02003  0.36528  1.0000
  C   C102      1.0  0.00014  0.43599  0.29782  1.0000
  H   H82       1.0  0.30943  0.38957  0.37575  1.0000
  H   H83       1.0  0.23819  0.31641  0.35000  1.0000
  C   C103      1.0  0.98839  0.45162  0.28684  1.0000
  C   C104      1.0  0.41895  0.36251  0.30174  1.0000
  H   H84       1.0  0.40773  0.07018  0.29785  1.0000
  H   H85       1.0  0.35619  0.04510  0.26759  1.0000
  H   H86       1.0  0.98898  0.31492  0.37346  1.0000
  H   H87       1.0  0.42393  0.41346  0.27795  1.0000
  C   C105      1.0  0.01949  0.20749  0.47806  1.0000
  H   H88       1.0  0.32066  0.39209  0.33952  1.0000
  H   H89       1.0  0.27622  0.37358  0.38881  1.0000
  N   N6        1.0  0.43248  0.37718  0.28353  1.0000
  S   S27       1.0  0.99367  0.15847  0.43708  1.0000
  S   S28       1.0  0.40926  0.40077  0.38042  1.0000
  H   H90       1.0  0.24594  0.34333  0.37525  1.0000
  H   H91       1.0  0.00933  0.34495  0.34329  1.0000
  H   H92       1.0  0.46155  0.45322  0.36419  1.0000
  H   H93       1.0  0.32951  0.30408  0.42279  1.0000
  C   C106      1.0  0.04306  0.46134  0.27709  1.0000
  C   C107      1.0  0.44457  0.45701  0.24333  1.0000
  C   C108      1.0  0.43894  0.06271  0.34478  1.0000
  H   H94       1.0  0.28406  0.40380  0.37038  1.0000
  H   H95       1.0  0.29977  0.25720  0.43456  1.0000
  H   H96       1.0  0.42973  0.39942  0.25652  1.0000
  C   C109      1.0  0.18703  0.13031  0.45367  1.0000
  N   N7        1.0  0.21003  0.99756  0.34274  1.0000
  S   S29       1.0  0.15572  0.00528  0.44786  1.0000
  H   H97       1.0  0.23609  0.03349  0.34731  1.0000
  H   H98       1.0  0.99521  0.48417  0.26225  1.0000
  Fe  Fe13      1.0  0.12044  0.00593  0.43525  1.0000
  C   C110      1.0  0.45935  0.03036  0.28493  1.0000
  H   H99       1.0  0.43496  0.10114  0.26690  1.0000
  N   N8        1.0  0.16667  0.08995  0.47825  1.0000
  H   H100      1.0  0.43478  0.46101  0.25662  1.0000
  H   H101      1.0  0.45447  0.03111  0.30030  1.0000
  C   C111      1.0  0.28841  0.26236  0.46410  1.0000
  H   H102      1.0  0.04294  0.09385  0.41636  1.0000
  S   S30       1.0  0.21572  0.02243  0.40577  1.0000
  C   C112      1.0  0.45475  0.34479  0.30493  1.0000
  H   H103      1.0  0.25161  0.01649  0.33170  1.0000
  H   H104      1.0  0.37690  0.12814  0.27013  1.0000
  C   C113      1.0  0.17403  0.10275  0.45895  1.0000
  C   C114      1.0  0.31874  0.29719  0.43795  1.0000
  C   C115      1.0  0.32065  0.31497  0.45076  1.0000
  C   C116      1.0  0.45647  0.99840  0.37676  1.0000
  C   C117      1.0  0.23280  0.00694  0.39059  1.0000
  C   C118      1.0  0.47265  0.02831  0.24571  1.0000
  C   C119      1.0  0.47976  0.02062  0.27813  1.0000
  N   N9        1.0  0.30723  0.30641  0.46992  1.0000
  C   C120      1.0  0.23316  0.02164  0.33566  1.0000
  H   H105      1.0  0.39925  0.38476  0.27413  1.0000
  C   C121      1.0  0.18592  0.13136  0.48787  1.0000
  S   S31       1.0  0.42188  0.47868  0.35760  1.0000
  S   S32       1.0  0.34538  0.00440  0.35741  1.0000
  C   C122      1.0  0.38267  0.46823  0.26342  1.0000
  H   H106      1.0  0.16971  0.09170  0.44751  1.0000
  H   H107      1.0  0.45548  0.46983  0.29814  1.0000
  H   H108      1.0  0.20592  0.00187  0.46071  1.0000
  C   C123      1.0  0.25738  0.99488  0.43112  1.0000
  H   H109      1.0  0.27129  0.01482  0.42888  1.0000
  S   S33       1.0  0.44781  0.15899  0.25459  1.0000
  S   S34       1.0  0.13921  0.00372  0.40492  1.0000
  H   H110      1.0  0.23518  0.02715  0.44684  1.0000
  C   C124      1.0  0.39208  0.48849  0.27348  1.0000
  H   H111      1.0  0.27519  0.24202  0.46945  1.0000
  C   C125      1.0  0.39466  0.48168  0.29283  1.0000
  Fe  Fe14      1.0  0.36572  0.00067  0.30320  1.0000
  C   C126      1.0  0.03150  0.47675  0.26591  1.0000
  H   H112      1.0  0.29054  0.33218  0.48365  1.0000
  Fe  Fe15      1.0  0.17290  0.99927  0.41857  1.0000
  H   H113      1.0  0.32637  0.34307  0.47807  1.0000
  S   S35       1.0  0.48343  0.45323  0.26267  1.0000
  H   H114      1.0  0.47990  0.07585  0.32987  1.0000
  C   C127      1.0  0.18797  0.99873  0.35470  1.0000
  C   C128      1.0  0.46813  0.45106  0.24274  1.0000
  H   H115      1.0  0.98605  0.18954  0.46597  1.0000
  C   C129      1.0  0.20342  0.22921  0.49148  1.0000
  C   C130      1.0  0.38973  0.11912  0.24219  1.0000
  H   H116      1.0  0.44038  0.04336  0.24192  1.0000
  Fe  Fe16      1.0  0.24430  0.28009  0.59344  1.0000
  S   S36       1.0  0.20167  0.25834  0.60781  1.0000
  S   S37       1.0  0.27336  0.28737  0.61345  1.0000
  Fe  Fe17      1.0  0.23345  0.28088  0.55253  1.0000
  S   S38       1.0  0.19008  0.25904  0.56351  1.0000
  S   S39       1.0  0.24856  0.29431  0.51981  1.0000
  Fe  Fe18      1.0  0.19261  0.28609  0.58493  1.0000
  S   S40       1.0  0.16081  0.30508  0.59073  1.0000
  Fe  Fe19      1.0  0.20278  0.23301  0.58525  1.0000
  S   S41       1.0  0.18089  0.18895  0.59551  1.0000
  S   S42       1.0  0.23513  0.31033  0.57236  1.0000
  S   S43       1.0  0.24619  0.25231  0.57251  1.0000
  S   S44       1.0  0.19853  0.11283  0.53782  1.0000
  Fe  Fe20      1.0  0.01369  0.22727  0.59632  1.0000
  H   H117      1.0  0.33027  0.05657  0.71634  1.0000
  S   S45       1.0  0.04723  0.21899  0.60859  1.0000
  C   C131      1.0  0.35792  0.11656  0.70893  1.0000
  H   H118      1.0  0.13730  0.47554  0.73212  1.0000
  Fe  Fe21      1.0  0.01706  0.44409  0.68431  1.0000
  S   S46       1.0  0.03727  0.41296  0.68758  1.0000
  Fe  Fe22      1.0  0.35510  0.08142  0.67309  1.0000
  C   C132      1.0  0.45403  0.04637  0.64719  1.0000
  C   C133      1.0  0.12589  0.47458  0.72075  1.0000
  C   C134      1.0  0.38249  0.12726  0.74034  1.0000
  H   H119      1.0  0.38346  0.14870  0.65697  1.0000
  Fe  Fe23      1.0  0.01456  0.39529  0.66606  1.0000
  Fe  Fe24      1.0  0.34926  0.40764  0.65336  1.0000
  S   S47       1.0  0.35197  0.37696  0.67773  1.0000
  S   S48       1.0  0.32259  0.40151  0.63151  1.0000
  Fe  Fe25      1.0  0.38728  0.45338  0.66601  1.0000
  S   S49       1.0  0.39384  0.42671  0.69097  1.0000
  C   C135      1.0  0.34783  0.44913  0.72985  1.0000
  Fe  Fe26      1.0  0.39559  0.39945  0.66990  1.0000
  S   S50       1.0  0.42350  0.37534  0.66812  1.0000
  Fe  Fe27      1.0  0.35016  0.40692  0.69661  1.0000
  C   C136      1.0  0.25202  0.12977  0.56641  1.0000
  S   S51       1.0  0.39322  0.42823  0.64396  1.0000
  S   S52       1.0  0.34323  0.43550  0.67325  1.0000
  S   S53       1.0  0.21092  0.03115  0.61428  1.0000
  N   N10       1.0  0.47263  0.03549  0.70202  1.0000
  H   H120      1.0  0.21443  0.16199  0.61693  1.0000
  H   H121      1.0  0.19202  0.11621  0.63724  1.0000
  C   C137      1.0  0.46540  0.07402  0.64093  1.0000
  C   C138      1.0  0.43307  0.04152  0.71879  1.0000
  C   C139      1.0  0.42594  0.17951  0.68336  1.0000
  S   S54       1.0  0.33282  0.04820  0.61165  1.0000
  C   C140      1.0  0.26196  0.03685  0.59597  1.0000
  H   H122      1.0  0.47281  0.15755  0.63343  1.0000
  N   N11       1.0  0.42105  0.06551  0.59524  1.0000
  H   H123      1.0  0.46143  0.00874  0.65294  1.0000
  C   C141      1.0  0.11991  0.19006  0.58804  1.0000
  C   C142      1.0  0.32202  0.03693  0.72677  1.0000
  C   C143      1.0  0.99790  0.26415  0.65232  1.0000
  C   C144      1.0  0.43618  0.05106  0.60207  1.0000
  H   H124      1.0  0.46693  0.18227  0.67918  1.0000
  C   C145      1.0  0.00173  0.34601  0.56970  1.0000
  H   H125      1.0  0.15147  0.18234  0.52502  1.0000
  H   H126      1.0  0.25439  0.03403  0.58289  1.0000
  H   H127      1.0  0.18412  0.01528  0.50438  1.0000
  H   H128      1.0  0.28939  0.04557  0.64310  1.0000
  Fe  Fe28      1.0  0.18956  0.06976  0.55251  1.0000
  C   C146      1.0  0.01435  0.30338  0.66551  1.0000
  H   H129      1.0  0.34766  0.49058  0.67761  1.0000
  S   S55       1.0  0.44541  0.09431  0.63793  1.0000
  C   C147      1.0  0.45488  0.35455  0.68789  1.0000
  C   C148      1.0  0.44334  0.37485  0.68559  1.0000
  C   C149      1.0  0.44735  0.39380  0.69746  1.0000
  H   H130      1.0  0.45146  0.10264  0.59295  1.0000
  H   H131      1.0  0.43870  0.40961  0.69570  1.0000
  C   C150      1.0  0.25492  0.03928  0.63029  1.0000
  C   C151      1.0  0.44879  0.17525  0.67400  1.0000
  C   C152      1.0  0.42669  0.02312  0.60633  1.0000
  C   C153      1.0  0.40192  0.15667  0.66156  1.0000
  Fe  Fe29      1.0  0.00087  0.38933  0.71025  1.0000
  H   H132      1.0  0.22618  0.08385  0.59156  1.0000
  H   H133      1.0  0.12267  0.17038  0.59260  1.0000
  Fe  Fe30      1.0  0.19682  0.03144  0.58581  1.0000
  S   S56       1.0  0.22328  0.05458  0.55694  1.0000
  S   S57       1.0  0.03467  0.37894  0.64247  1.0000
  H   H134      1.0  0.13778  0.16539  0.56094  1.0000
  C   C154      1.0  0.20446  0.11906  0.62291  1.0000
  H   H135      1.0  0.04475  0.34586  0.61553  1.0000
  C   C155      1.0  0.21718  0.14471  0.61159  1.0000
  C   C156      1.0  0.29041  0.31989  0.61587  1.0000
  C   C157      1.0  0.28648  0.34241  0.60562  1.0000
  C   C158      1.0  0.29774  0.36767  0.60979  1.0000
  C   C159      1.0  0.31270  0.37049  0.62436  1.0000
  C   C160      1.0  0.31759  0.34816  0.63399  1.0000
  C   C161      1.0  0.30660  0.32297  0.62965  1.0000
  H   H136      1.0  0.27425  0.34031  0.59485  1.0000
  H   H137      1.0  0.29413  0.38495  0.60214  1.0000
  H   H138      1.0  0.32933  0.35016  0.64507  1.0000
  H   H139      1.0  0.30997  0.30565  0.63747  1.0000
  C   C162      1.0  0.12932  0.28122  0.59521  1.0000
  C   C163      1.0  0.10866  0.28788  0.58822  1.0000
  C   C164      1.0  0.08342  0.26876  0.59180  1.0000
  C   C165      1.0  0.07867  0.24321  0.60287  1.0000
  C   C166      1.0  0.09924  0.23677  0.61008  1.0000
  C   C167      1.0  0.12462  0.25555  0.60597  1.0000
  H   H140      1.0  0.11231  0.30774  0.57982  1.0000
  H   H141      1.0  0.06768  0.27391  0.58619  1.0000
  H   H142      1.0  0.09552  0.21718  0.61895  1.0000
  H   H143      1.0  0.14042  0.25035  0.61155  1.0000
  C   C168      1.0  0.18495  0.16833  0.57892  1.0000
  C   C169      1.0  0.20246  0.17861  0.56072  1.0000
  C   C170      1.0  0.20612  0.16151  0.54798  1.0000
  C   C171      1.0  0.19256  0.13403  0.55355  1.0000
  C   C172      1.0  0.17487  0.12383  0.57170  1.0000
  C   C173      1.0  0.17096  0.14096  0.58431  1.0000
  H   H144      1.0  0.21350  0.19964  0.55665  1.0000
  H   H145      1.0  0.21990  0.16950  0.53397  1.0000
  H   H146      1.0  0.16398  0.10278  0.57600  1.0000
  H   H147      1.0  0.15737  0.13289  0.59841  1.0000
  H   H148      1.0  0.22440  0.23834  0.53371  1.0000
  H   H149      1.0  0.41835  0.10173  0.60257  1.0000
  C   C174      1.0  0.30431  0.48917  0.71848  1.0000
  C   C175      1.0  0.01802  0.33717  0.55661  1.0000
  S   S58       1.0  0.37420  0.09324  0.64117  1.0000
  H   H150      1.0  0.25450  0.14931  0.55699  1.0000
  C   C176      1.0  0.02356  0.34033  0.62065  1.0000
  C   C177      1.0  0.12772  0.22487  0.55904  1.0000
  Fe  Fe31      1.0  0.40224  0.07223  0.64982  1.0000
  C   C178      1.0  0.28891  0.04069  0.59563  1.0000
  C   C179      1.0  0.02391  0.26703  0.64338  1.0000
  C   C180      1.0  0.11541  0.45028  0.71535  1.0000
  H   H151      1.0  0.39430  0.11116  0.69566  1.0000
  H   H152      1.0  0.46863  0.09593  0.68323  1.0000
  Fe  Fe32      1.0  0.20206  0.01972  0.54507  1.0000
  H   H153      1.0  0.38427  0.06425  0.58730  1.0000
  C   C181      1.0  0.46989  0.35283  0.70225  1.0000
  C   C182      1.0  0.01316  0.35414  0.63361  1.0000
  H   H154      1.0  0.03937  0.34596  0.55374  1.0000
  H   H155      1.0  0.32498  0.12456  0.72548  1.0000
  H   H156      1.0  0.09867  0.18795  0.59293  1.0000
  H   H157      1.0  0.42634  0.18939  0.69574  1.0000
  C   C183      1.0  0.46329  0.07637  0.69264  1.0000
  C   C184      1.0  0.23109  0.26957  0.50874  1.0000
  C   C185      1.0  0.20774  0.22300  0.51038  1.0000
  C   C186      1.0  0.13583  0.23513  0.53881  1.0000
  H   H158      1.0  0.41878  0.32800  0.73503  1.0000
  H   H159      1.0  0.30195  0.04103  0.58220  1.0000
  N   N12       1.0  0.24109  0.32361  0.64824  1.0000
  C   C187      1.0  0.24794  0.35074  0.64633  1.0000
  C   C188      1.0  0.22472  0.31086  0.63726  1.0000
  C   C189      1.0  0.23894  0.36591  0.63272  1.0000
  C   C190      1.0  0.21520  0.32540  0.62362  1.0000
  C   C191      1.0  0.22253  0.35310  0.62127  1.0000
  C   C192      1.0  0.25060  0.30788  0.66254  1.0000
  H   H160      1.0  0.26139  0.36097  0.65470  1.0000
  H   H161      1.0  0.21959  0.28940  0.63862  1.0000
  H   H162      1.0  0.24540  0.38751  0.63068  1.0000
  H   H163      1.0  0.20258  0.31531  0.61467  1.0000
  H   H164      1.0  0.21576  0.36458  0.61038  1.0000
  H   H165      1.0  0.26922  0.32021  0.66582  1.0000
  H   H166      1.0  0.23534  0.29954  0.67634  1.0000
  H   H167      1.0  0.25529  0.29123  0.65655  1.0000
  H   H168      1.0  0.09135  0.42996  0.69722  1.0000
  H   H169      1.0  0.44396  0.00610  0.72506  1.0000
  H   H170      1.0  0.42910  0.10330  0.57662  1.0000
  H   H171      1.0  0.24228  0.16797  0.58422  1.0000
  H   H172      1.0  0.45555  0.06109  0.60458  1.0000
  C   C193      1.0  0.41118  0.34387  0.73852  1.0000
  C   C194      1.0  0.10008  0.44892  0.70117  1.0000
  C   C195      1.0  0.02845  0.21120  0.49523  1.0000
  C   C196      1.0  0.38636  0.02491  0.59646  1.0000
  C   C197      1.0  0.23284  0.14796  0.59302  1.0000
  C   C198      1.0  0.44968  0.02596  0.71604  1.0000
  H   H173      1.0  0.07544  0.30253  0.62018  1.0000
  C   C199      1.0  0.39278  0.35058  0.72871  1.0000
  S   S59       1.0  0.99506  0.20391  0.57541  1.0000
  H   H174      1.0  0.24179  0.03864  0.64377  1.0000
  Fe  Fe33      1.0  0.35854  0.02577  0.67683  1.0000
  H   H175      1.0  0.46446  0.40613  0.72134  1.0000
  H   H176      1.0  0.36974  0.37689  0.72510  1.0000
  C   C200      1.0  0.46251  0.39214  0.71177  1.0000
  H   H177      1.0  0.40020  0.99984  0.67687  1.0000
  H   H178      1.0  0.19059  0.14235  0.49932  1.0000
  H   H179      1.0  0.28889  0.47519  0.73026  1.0000
  H   H180      1.0  0.41481  0.03374  0.72979  1.0000
  C   C201      1.0  0.31666  0.47993  0.70336  1.0000
  H   H181      1.0  0.30264  0.03572  0.73561  1.0000
  H   H182      1.0  0.30804  0.31586  0.49822  1.0000
  H   H183      1.0  0.04849  0.22374  0.49446  1.0000
  H   H184      1.0  0.08654  0.30155  0.64304  1.0000
  H   H185      1.0  0.11849  0.43238  0.72265  1.0000
  C   C202      1.0  0.40158  0.01000  0.60352  1.0000
  H   H186      1.0  0.48168  0.00550  0.68848  1.0000
  S   S60       1.0  0.00387  0.36670  0.73865  1.0000
  H   H187      1.0  0.31077  0.45873  0.70327  1.0000
  H   H188      1.0  0.36646  0.01507  0.59475  1.0000
  H   H189      1.0  0.15085  0.22743  0.51078  1.0000
  S   S61       1.0  0.46520  0.18019  0.73071  1.0000
  C   C203      1.0  0.00665  0.31882  0.61486  1.0000
  H   H190      1.0  0.45194  0.33991  0.67868  1.0000
  H   H191      1.0  0.38591  0.33993  0.71759  1.0000
  H   H192      1.0  0.13590  0.25505  0.53277  1.0000
  H   H193      1.0  0.31879  0.02137  0.71772  1.0000
  C   C204      1.0  0.40246  0.17040  0.67691  1.0000
  H   H194      1.0  0.05626  0.32284  0.65724  1.0000
  H   H195      1.0  0.01480  0.30794  0.60518  1.0000
  C   C205      1.0  0.47948  0.06030  0.69031  1.0000
  S   S62       1.0  0.01364  0.26684  0.58045  1.0000
  H   H196      1.0  0.07440  0.27123  0.63470  1.0000
  Fe  Fe34      1.0  0.99152  0.24279  0.56124  1.0000
  C   C206      1.0  0.47023  0.03018  0.64857  1.0000
  S   S63       1.0  0.00315  0.25617  0.52836  1.0000
  C   C207      1.0  0.29894  0.04377  0.61262  1.0000
  C   C208      1.0  0.20777  0.09706  0.61566  1.0000
  H   H197      1.0  0.27174  0.12833  0.56793  1.0000
  C   C209      1.0  0.22357  0.10104  0.59703  1.0000
  N   N13       1.0  0.23548  0.12621  0.58584  1.0000
  N   N14       1.0  0.12844  0.20011  0.56679  1.0000
  S   S64       1.0  0.34179  0.10944  0.68974  1.0000
  C   C210      1.0  0.14467  0.19435  0.53451  1.0000
  C   C211      1.0  0.44004  0.06696  0.70706  1.0000
  S   S65       1.0  0.38517  0.06355  0.68201  1.0000
  C   C212      1.0  0.34881  0.47119  0.73875  1.0000
  H   H198      1.0  0.41597  0.12056  0.72342  1.0000
  C   C213      1.0  0.14427  0.21969  0.52650  1.0000
  H   H199      1.0  0.43856  0.01179  0.61213  1.0000
  H   H200      1.0  0.01078  0.36181  0.57691  1.0000
  S   S66       1.0  0.37854  0.03246  0.64526  1.0000
  N   N15       1.0  0.04459  0.28754  0.64559  1.0000
  H   H201      1.0  0.43279  0.03740  0.65068  1.0000
  C   C214      1.0  0.09553  0.47203  0.69248  1.0000
  C   C215      1.0  0.07156  0.29092  0.63538  1.0000
  C   C216      1.0  0.42507  0.15249  0.65268  1.0000
  C   C217      1.0  0.04007  0.30581  0.65625  1.0000
  N   N16       1.0  0.44822  0.16225  0.65866  1.0000
  H   H202      1.0  0.42439  0.14124  0.64106  1.0000
  C   C218      1.0  0.38363  0.11547  0.70836  1.0000
  H   H203      1.0  0.08336  0.47070  0.68160  1.0000
  S   S67       1.0  0.32598  0.39661  0.72720  1.0000
  C   C219      1.0  0.13685  0.18489  0.55483  1.0000
  C   C220      1.0  0.18250  0.99483  0.50369  1.0000
  H   H204      1.0  0.02777  0.42379  0.73335  1.0000
  C   C221      1.0  0.28188  0.04318  0.62994  1.0000
  C   C222      1.0  0.39606  0.12118  0.72395  1.0000
  S   S68       1.0  0.22224  0.00060  0.52391  1.0000
  H   H205      1.0  0.44283  0.47311  0.65133  1.0000
  C   C223      1.0  0.22127  0.24317  0.51906  1.0000
  H   H206      1.0  0.01894  0.30968  0.53714  1.0000
  C   C224      1.0  0.43053  0.09476  0.59160  1.0000
  Fe  Fe35      1.0  0.34864  0.05280  0.63914  1.0000
  H   H207      1.0  0.13198  0.20411  0.59575  1.0000
  S   S69       1.0  0.99770  0.42891  0.66052  1.0000
  S   S70       1.0  0.16437  0.04924  0.58231  1.0000
  S   S71       1.0  0.32663  0.04282  0.67049  1.0000
  C   C225      1.0  0.24486  0.03605  0.61333  1.0000
  C   C226      1.0  0.00658  0.31683  0.54730  1.0000
  H   H208      1.0  0.01083  0.31835  0.67350  1.0000
  H   H209      1.0  0.02741  0.25292  0.63449  1.0000
  S   S72       1.0  0.17074  0.03695  0.53792  1.0000
  S   S73       1.0  0.03772  0.48617  0.68663  1.0000
  H   H210      1.0  0.19818  0.07697  0.62437  1.0000
  C   C227      1.0  0.34477  0.12350  0.72504  1.0000
  H   H211      1.0  0.12128  0.23703  0.56855  1.0000
  H   H212      1.0  0.24259  0.11418  0.55861  1.0000
  H   H213      1.0  0.36211  0.45130  0.71662  1.0000
  H   H214      1.0  0.20028  0.20259  0.51846  1.0000
  H   H215      1.0  0.01795  0.20291  0.52671  1.0000
  C   C228      1.0  0.39649  0.05281  0.59236  1.0000
  H   H216      1.0  0.38441  0.17304  0.68428  1.0000
  S   S74       1.0  0.17817  0.99497  0.57435  1.0000
  Fe  Fe36      1.0  0.14811  0.01478  0.56815  1.0000
  H   H217      1.0  0.45066  0.46850  0.70258  1.0000
  C   C229      1.0  0.47212  0.15735  0.64927  1.0000
  H   H218      1.0  0.01493  0.48820  0.65209  1.0000
  H   H219      1.0  0.47243  0.13752  0.65645  1.0000
  C   C230      1.0  0.32814  0.42451  0.73800  1.0000
  C   C231      1.0  0.99316  0.28246  0.66345  1.0000
  C   C232      1.0  0.01114  0.19924  0.51341  1.0000
  C   C233      1.0  0.47375  0.37158  0.71428  1.0000
  C   C234      1.0  0.38404  0.37181  0.73279  1.0000
  H   H220      1.0  0.42740  0.07932  0.70901  1.0000
  H   H221      1.0  0.16778  0.09362  0.50793  1.0000
  C   C235      1.0  0.46839  0.48571  0.69918  1.0000
  C   C236      1.0  0.45262  0.49373  0.65171  1.0000
  H   H222      1.0  0.47842  0.33685  0.70405  1.0000
  N   N17       1.0  0.34014  0.03366  0.73967  1.0000
  S   S75       1.0  0.10464  0.99487  0.56982  1.0000
  H   H223      1.0  0.38827  0.42333  0.73606  1.0000
  H   H224      1.0  0.36382  0.49019  0.73232  1.0000
  H   H225      1.0  0.14166  0.05458  0.49874  1.0000
  C   C237      1.0  0.17288  0.10378  0.49263  1.0000
  C   C238      1.0  0.35688  0.12846  0.74085  1.0000
  H   H226      1.0  0.28100  0.27365  0.49189  1.0000
  C   C239      1.0  0.98578  0.34704  0.64012  1.0000
  N   N18       1.0  0.98569  0.18385  0.51441  1.0000
  C   C240      1.0  0.45148  0.47356  0.92274  1.0000
  H   H227      1.0  0.38695  0.02518  0.77447  1.0000
  C   C241      1.0  0.46214  0.02290  0.79532  1.0000
  H   H228      1.0  0.41097  0.04795  0.79493  1.0000
  Fe  Fe37      1.0  0.10100  0.47567  0.77232  1.0000
  H   H229      1.0  0.45715  0.38712  0.88787  1.0000
  H   H230      1.0  0.29468  0.40291  0.76153  1.0000
  H   H231      1.0  0.34640  0.13325  0.75349  1.0000
  C   C242      1.0  0.04429  0.37347  0.75818  1.0000
  H   H232      1.0  0.47559  0.31575  0.83682  1.0000
  H   H233      1.0  0.43646  0.31452  0.89499  1.0000
  H   H234      1.0  0.42064  0.46425  0.97039  1.0000
  C   C243      1.0  0.41192  0.37995  0.75559  1.0000
  S   S76       1.0  0.43815  0.41694  0.98244  1.0000
  H   H235      1.0  0.48278  0.36453  0.82787  1.0000
  H   H236      1.0  0.43591  0.35417  0.75918  1.0000
  H   H237      1.0  0.03843  0.35188  0.76174  1.0000
  H   H238      1.0  0.29574  0.44195  0.77673  1.0000
  H   H239      1.0  0.40342  0.47179  0.76354  1.0000
  Fe  Fe38      1.0  0.44068  0.14363  0.75333  1.0000
  H   H240      1.0  0.37998  0.06927  0.76548  1.0000
  S   S77       1.0  0.45780  0.39561  0.93188  1.0000
  H   H241      1.0  0.46698  0.38763  0.85273  1.0000
  H   H242      1.0  0.42294  0.36856  0.88901  1.0000
  H   H243      1.0  0.02138  0.48928  0.74279  1.0000
  H   H244      1.0  0.02636  0.45810  0.78883  1.0000
  C   C244      1.0  0.44597  0.32545  0.88013  1.0000
  C   C245      1.0  0.32975  0.46872  0.75550  1.0000
  H   H245      1.0  0.07708  0.37892  0.77272  1.0000
  C   C246      1.0  0.03338  0.42395  0.82517  1.0000
  C   C247      1.0  0.46786  0.32588  0.84741  1.0000
  C   C248      1.0  0.47805  0.07123  0.78782  1.0000
  H   H246      1.0  0.44168  0.35619  0.90512  1.0000
  H   H247      1.0  0.05014  0.43756  0.82898  1.0000
  H   H248      1.0  0.41202  0.47292  0.80123  1.0000
  C   C249      1.0  0.44478  0.47799  0.76270  1.0000
  C   C250      1.0  0.00675  0.45879  0.79388  1.0000
  S   S78       1.0  0.48067  0.39845  0.77895  1.0000
  C   C251      1.0  0.45202  0.07157  0.78928  1.0000
  C   C252      1.0  0.37383  0.02763  0.76473  1.0000
  H   H249      1.0  0.44805  0.09037  0.78677  1.0000
  C   C253      1.0  0.36994  0.05227  0.75966  1.0000
  C   C254      1.0  0.00757  0.42117  0.83448  1.0000
  C   C255      1.0  0.37616  0.48327  0.80162  1.0000
  S   S79       1.0  0.46467  0.15278  0.77602  1.0000
  C   C256      1.0  0.35271  0.05483  0.74718  1.0000
  S   S80       1.0  0.10139  0.43517  0.76764  1.0000
  C   C257      1.0  0.05972  0.42925  0.74881  1.0000
  C   C258      1.0  0.30982  0.42191  0.75513  1.0000
  S   S81       1.0  0.43973  0.44520  0.77417  1.0000
  S   S82       1.0  0.09636  0.48265  0.80306  1.0000
  N   N19       1.0  0.45096  0.35249  0.87528  1.0000
  S   S83       1.0  0.39651  0.13182  0.76078  1.0000
  H   H250      1.0  0.36831  0.46954  0.79251  1.0000
  C   C259      1.0  0.47210  0.35327  0.84244  1.0000
  H   H251      1.0  0.42002  0.39170  0.76578  1.0000
  C   C260      1.0  0.43618  0.02320  0.79606  1.0000
  C   C261      1.0  0.07376  0.41665  0.75983  1.0000
  C   C262      1.0  0.43102  0.04753  0.79380  1.0000
  C   C263      1.0  0.31049  0.44398  0.76376  1.0000
  C   C264      1.0  0.47362  0.46172  0.98870  1.0000
  C   C265      1.0  0.40070  0.48533  0.80637  1.0000
  H   H252      1.0  0.39379  0.41886  0.76055  1.0000
  H   H253      1.0  0.46623  0.00416  0.79745  1.0000
  S   S84       1.0  0.47460  0.32820  0.93657  1.0000
  H   H254      1.0  0.47925  0.26412  0.98076  1.0000
  H   H255      1.0  0.47823  0.46883  0.97299  1.0000
  C   C266      1.0  0.03830  0.41397  0.74214  1.0000
  C   C267      1.0  0.34341  0.00930  0.74493  1.0000
  C   C268      1.0  0.45449  0.31178  0.86630  1.0000
  H   H256      1.0  0.42923  0.43837  0.94506  1.0000
  C   C269      1.0  0.44266  0.36675  0.89003  1.0000
  H   H257      1.0  0.48361  0.45512  0.84689  1.0000
  C   C270      1.0  0.06614  0.38875  0.76436  1.0000
  C   C271      1.0  0.46329  0.36629  0.85661  1.0000
  C   C272      1.0  0.03736  0.40968  0.81056  1.0000
  H   H258      1.0  0.00469  0.43299  0.84539  1.0000
  H   H259      1.0  0.06590  0.45073  0.74474  1.0000
  H   H260      1.0  0.45177  0.29062  0.87046  1.0000
  C   C273      1.0  0.03048  0.38604  0.74694  1.0000
  S   S85       1.0  0.07052  0.49353  0.76414  1.0000
  H   H261      1.0  0.05730  0.41204  0.80298  1.0000
  Fe  Fe39      1.0  0.48398  0.37124  0.93829  1.0000
  Fe  Fe40      1.0  0.47917  0.43929  0.76817  1.0000
  H   H262      1.0  0.45524  0.46206  0.91181  1.0000
  C   C274      1.0  0.36049  0.00597  0.75737  1.0000
  C   C275      1.0  0.01557  0.39269  0.80555  1.0000
  C   C276      1.0  0.42081  0.35858  0.75208  1.0000
  C   C277      1.0  0.43667  0.46003  0.94147  1.0000
  H   H263      1.0  0.01842  0.38178  0.79402  1.0000
  C   C278      1.0  0.48302  0.04692  0.79157  1.0000
  C   C279      1.0  0.00250  0.47554  0.80666  1.0000
  C   C280      1.0  0.43175  0.47458  0.95569  1.0000
  Fe  Fe41      1.0  0.46755  0.41249  0.95803  1.0000
  C   C281      1.0  0.42313  0.48610  0.75974  1.0000
  H   H264      1.0  0.46120  0.28710  0.97508  1.0000
  C   C282      1.0  0.47635  0.28331  0.98307  1.0000
  C   C283      1.0  0.38413  0.40841  0.74988  1.0000
  C   C284      1.0  0.99002  0.39025  0.81523  1.0000
  H   H265      1.0  0.34929  0.07378  0.74362  1.0000
  H   H266      1.0  0.36244  0.40086  0.75593  1.0000
  H   H267      1.0  0.98865  0.42854  0.77869  1.0000
  N   N20       1.0  0.39365  0.38621  0.74604  1.0000
  N   N21       1.0  0.98630  0.40475  0.82927  1.0000
  C   C285      1.0  0.98532  0.44175  0.78836  1.0000
  S   S86       1.0  0.46158  0.11650  0.74216  1.0000
  H   H268      1.0  0.43098  0.64096  0.15250  1.0000
  H   H269      1.0  0.29815  0.79050  0.09611  1.0000
  Fe  Fe42      1.0  0.03214  0.55648  0.19035  1.0000
  S   S87       1.0  0.06430  0.56277  0.20728  1.0000
  S   S88       1.0  0.04313  0.55472  0.15858  1.0000
  H   H270      1.0  0.08654  0.52383  0.15432  1.0000
  S   S89       1.0  0.46242  0.55337  0.17750  1.0000
  Fe  Fe43      1.0  0.48128  0.91339  0.19164  1.0000
  S   S90       1.0  0.00383  0.52099  0.21251  1.0000
  C   C286      1.0  0.45408  0.66100  0.09116  1.0000
  Fe  Fe44      1.0  0.47294  0.56441  0.20539  1.0000
  N   N22       1.0  0.46012  0.90795  0.11431  1.0000
  H   H271      1.0  0.36364  0.77080  0.04486  1.0000
  Fe  Fe45      1.0  0.39036  0.82079  0.10983  1.0000
  S   S91       1.0  0.42214  0.82188  0.08473  1.0000
  S   S92       1.0  0.39231  0.85449  0.12582  1.0000
  Fe  Fe46      1.0  0.35315  0.76886  0.10508  1.0000
  S   S93       1.0  0.38169  0.76475  0.07988  1.0000
  S   S94       1.0  0.31187  0.74026  0.11611  1.0000
  Fe  Fe47      1.0  0.41204  0.77829  0.09754  1.0000
  S   S95       1.0  0.44396  0.75931  0.09598  1.0000
  Fe  Fe48      1.0  0.38924  0.80834  0.06907  1.0000
  S   S96       1.0  0.39371  0.82732  0.03751  1.0000
  S   S97       1.0  0.38283  0.77808  0.12411  1.0000
  S   S98       1.0  0.35827  0.81152  0.09286  1.0000
  Fe  Fe49      1.0  0.36504  0.59971  0.03568  1.0000
  S   S99       1.0  0.35601  0.57666  0.06666  1.0000
  S   S100      1.0  0.34624  0.58609  0.01123  1.0000
  Fe  Fe50      1.0  0.40036  0.64998  0.04428  1.0000
  S   S101      1.0  0.39448  0.63199  0.07606  1.0000
  S   S102      1.0  0.42604  0.69190  0.03038  1.0000
  Fe  Fe51      1.0  0.39925  0.59588  0.06540  1.0000
  S   S103      1.0  0.42534  0.57623  0.07936  1.0000
  Fe  Fe52      1.0  0.35205  0.61456  0.07472  1.0000
  S   S104      1.0  0.31940  0.61566  0.09809  1.0000
  S   S105      1.0  0.40890  0.61542  0.03347  1.0000
  S   S106      1.0  0.35739  0.63613  0.04389  1.0000
  Fe  Fe53      1.0  0.22113  0.67246  0.05699  1.0000
  S   S107      1.0  0.21367  0.64186  0.03831  1.0000
  S   S108      1.0  0.25765  0.70810  0.04668  1.0000
  Fe  Fe54      1.0  0.17003  0.64361  0.08694  1.0000
  S   S109      1.0  0.15765  0.61043  0.07083  1.0000
  S   S110      1.0  0.14730  0.64821  0.11504  1.0000
  Fe  Fe55      1.0  0.20008  0.61212  0.06678  1.0000
  S   S111      1.0  0.21267  0.57576  0.07000  1.0000
  Fe  Fe56      1.0  0.17224  0.64318  0.04404  1.0000
  H   H272      1.0  0.34156  0.83312  0.03058  1.0000
  S   S112      1.0  0.21152  0.64257  0.08514  1.0000
  S   S113      1.0  0.18073  0.67647  0.06034  1.0000
  C   C287      1.0  0.28925  0.60156  0.09158  1.0000
  C   C288      1.0  0.26569  0.60213  0.10281  1.0000
  C   C289      1.0  0.24194  0.59364  0.09642  1.0000
  C   C290      1.0  0.24159  0.58365  0.07918  1.0000
  C   C291      1.0  0.26488  0.58178  0.06851  1.0000
  C   C292      1.0  0.28878  0.59113  0.07453  1.0000
  H   H273      1.0  0.26596  0.60979  0.11617  1.0000
  H   H274      1.0  0.22390  0.59474  0.10485  1.0000
  H   H275      1.0  0.26460  0.57374  0.05535  1.0000
  H   H276      1.0  0.30683  0.59039  0.06587  1.0000
  C   C293      1.0  0.27186  0.71758  0.06621  1.0000
  C   C294      1.0  0.25763  0.70842  0.08563  1.0000
  C   C295      1.0  0.26989  0.71559  0.10102  1.0000
  C   C296      1.0  0.29621  0.73222  0.09694  1.0000
  C   C297      1.0  0.30997  0.74217  0.07750  1.0000
  C   C298      1.0  0.29790  0.73463  0.06220  1.0000
  H   H277      1.0  0.23721  0.69593  0.08883  1.0000
  H   H278      1.0  0.25902  0.70821  0.11608  1.0000
  H   H279      1.0  0.32989  0.75571  0.07425  1.0000
  H   H280      1.0  0.30857  0.74223  0.04721  1.0000
  C   C299      1.0  0.43154  0.71009  0.04886  1.0000
  C   C300      1.0  0.41273  0.70312  0.06645  1.0000
  C   C301      1.0  0.41663  0.71827  0.08096  1.0000
  C   C302      1.0  0.43949  0.74019  0.07797  1.0000
  H   H281      1.0  0.43314  0.89778  0.17443  1.0000
  H   H282      1.0  0.43585  0.96664  0.23029  1.0000
  H   H283      1.0  0.39497  0.68629  0.06878  1.0000
  H   H284      1.0  0.40208  0.71291  0.09457  1.0000
  H   H285      1.0  0.29410  0.60259  0.01536  1.0000
  H   H286      1.0  0.45106  0.82276  0.01954  1.0000
  H   H287      1.0  0.06783  0.63485  0.11212  1.0000
  H   H288      1.0  0.13128  0.53216  0.13209  1.0000
  C   C303      1.0  0.99087  0.66455  0.23010  1.0000
  C   C304      1.0  0.16034  0.62606  0.00345  1.0000
  H   H289      1.0  0.41323  0.93795  0.11110  1.0000
  H   H290      1.0  0.09965  0.68990  0.08371  1.0000
  H   H291      1.0  0.00689  0.64340  0.21018  1.0000
  H   H292      1.0  0.44869  0.70193  0.13144  1.0000
  H   H293      1.0  0.41265  0.66447  0.15127  1.0000
  C   C305      1.0  0.41234  0.85709  0.14327  1.0000
  H   H294      1.0  0.27106  0.77117  0.02869  1.0000
  S   S114      1.0  0.43672  0.57571  0.21480  1.0000
  C   C306      1.0  0.44321  0.80545  0.01335  1.0000
  C   C307      1.0  0.44742  0.84645  0.15699  1.0000
  H   H295      1.0  0.42894  0.52041  0.11324  1.0000
  H   H296      1.0  0.25894  0.58650  0.02093  1.0000
  Fe  Fe57      1.0  0.99020  0.55196  0.22554  1.0000
  S   S115      1.0  0.01570  0.58676  0.20179  1.0000
  C   C308      1.0  0.11840  0.62203  0.12694  1.0000
  C   C309      1.0  0.10981  0.59921  0.11919  1.0000
  C   C310      1.0  0.08645  0.57871  0.12885  1.0000
  C   C311      1.0  0.07188  0.58078  0.14647  1.0000
  C   C312      1.0  0.08063  0.60340  0.15441  1.0000
  C   C313      1.0  0.10376  0.62410  0.14456  1.0000
  H   H297      1.0  0.12102  0.59730  0.10576  1.0000
  H   H298      1.0  0.07979  0.56111  0.12277  1.0000
  H   H299      1.0  0.06948  0.60507  0.16807  1.0000
  H   H300      1.0  0.11040  0.64164  0.15072  1.0000
  H   H301      1.0  0.47748  0.72403  0.09888  1.0000
  C   C314      1.0  0.35320  0.76364  0.01753  1.0000
  H   H302      1.0  0.42805  0.82593  0.13652  1.0000
  N   N23       1.0  0.46760  0.51678  0.11130  1.0000
  S   S116      1.0  0.47473  0.87508  0.18049  1.0000
  H   H303      1.0  0.26526  0.77267  0.09501  1.0000
  C   C315      1.0  0.16613  0.60303  0.01071  1.0000
  H   H304      1.0  0.17598  0.56864  0.00368  1.0000
  S   S117      1.0  0.45546  0.52275  0.22253  1.0000
  H   H305      1.0  0.31455  0.80462  0.01156  1.0000
  C   C316      1.0  0.40982  0.57836  0.14449  1.0000
  C   C317      1.0  0.39023  0.57888  0.13375  1.0000
  C   C318      1.0  0.39467  0.57741  0.11387  1.0000
  C   C319      1.0  0.41886  0.57576  0.10459  1.0000
  C   C320      1.0  0.43847  0.57520  0.11531  1.0000
  C   C321      1.0  0.43391  0.57639  0.13526  1.0000
  H   H306      1.0  0.37159  0.58050  0.14080  1.0000
  H   H307      1.0  0.37939  0.57779  0.10570  1.0000
  H   H308      1.0  0.45747  0.57471  0.10803  1.0000
  H   H309      1.0  0.44944  0.57696  0.14324  1.0000
  C   C322      1.0  0.46830  0.68817  0.08716  1.0000
  C   C323      1.0  0.45437  0.73212  0.04582  1.0000
  C   C324      1.0  0.45849  0.74702  0.06048  1.0000
  N   N24       1.0  0.43602  0.66360  0.12397  1.0000
  C   C325      1.0  0.42892  0.84141  0.14494  1.0000
  H   H310      1.0  0.42897  0.52029  0.07823  1.0000
  C   C326      1.0  0.46383  0.94063  0.13458  1.0000
  H   H311      1.0  0.15994  0.61451  0.15789  1.0000
  C   C327      1.0  0.45020  0.69019  0.12026  1.0000
  C   C328      1.0  0.41958  0.65029  0.14352  1.0000
  H   H312      1.0  0.13039  0.68258  0.08380  1.0000
  H   H313      1.0  0.42591  0.77896  0.04152  1.0000
  C   C329      1.0  0.36520  0.77953  0.02979  1.0000
  H   H314      1.0  0.48427  0.89654  0.09271  1.0000
  Fe  Fe58      1.0  0.42439  0.56105  0.18839  1.0000
  H   H315      1.0  0.27495  0.80854  0.09270  1.0000
  C   C330      1.0  0.44588  0.51833  0.08412  1.0000
  H   H316      1.0  0.40562  0.71943  0.99942  1.0000
  S   S118      1.0  0.06928  0.62830  0.22673  1.0000
  C   C331      1.0  0.32259  0.81844  0.03785  1.0000
  C   C332      1.0  0.43953  0.91437  0.10814  1.0000
  C   C333      1.0  0.10869  0.67518  0.08983  1.0000
  C   C334      1.0  0.28291  0.78400  0.03673  1.0000
  H   H317      1.0  0.46890  0.73762  0.03217  1.0000
  H   H318      1.0  0.47306  0.95039  0.14521  1.0000
  C   C335      1.0  0.43813  0.64895  0.10981  1.0000
  Fe  Fe59      1.0  0.44099  0.51243  0.19573  1.0000
  H   H319      1.0  0.25561  0.76614  0.06432  1.0000
  H   H320      1.0  0.39037  0.56649  0.01528  1.0000
  C   C336      1.0  0.44937  0.86713  0.16738  1.0000
  H   H321      1.0  0.16509  0.59723  0.02626  1.0000
  H   H322      1.0  0.18653  0.60998  0.12727  1.0000
  C   C337      1.0  0.27433  0.78115  0.05697  1.0000
  H   H323      1.0  0.08584  0.53811  0.17549  1.0000
  N   N25       1.0  0.09662  0.64916  0.08515  1.0000
  H   H324      1.0  0.45259  0.87148  0.10403  1.0000
  C   C338      1.0  0.10603  0.64386  0.06750  1.0000
  C   C339      1.0  0.06328  0.60596  0.09372  1.0000
  C   C340      1.0  0.09461  0.61922  0.06272  1.0000
  C   C341      1.0  0.07319  0.60013  0.07599  1.0000
  H   H325      1.0  0.45518  0.64928  0.07990  1.0000
  H   H326      1.0  0.10621  0.67368  0.10597  1.0000
  H   H327      1.0  0.12261  0.65859  0.05702  1.0000
  H   H328      1.0  0.04685  0.59114  0.10431  1.0000
  H   H329      1.0  0.10252  0.61500  0.04883  1.0000
  H   H330      1.0  0.06436  0.58082  0.07256  1.0000
  C   C342      1.0  0.30732  0.80264  0.02717  1.0000
  S   S119      1.0  0.40217  0.51903  0.20494  1.0000
  C   C343      1.0  0.35469  0.77489  0.99802  1.0000
  N   N26       1.0  0.31518  0.67829  0.09444  1.0000
  C   C344      1.0  0.29384  0.66705  0.08685  1.0000
  C   C345      1.0  0.33942  0.69121  0.08233  1.0000
  C   C346      1.0  0.29644  0.66846  0.06665  1.0000
  C   C347      1.0  0.34267  0.69342  0.06200  1.0000
  C   C348      1.0  0.32100  0.68190  0.05416  1.0000
  C   C349      1.0  0.31228  0.67508  0.11577  1.0000
  H   H331      1.0  0.27465  0.65685  0.09644  1.0000
  H   H332      1.0  0.35634  0.69986  0.08839  1.0000
  H   H333      1.0  0.27940  0.65941  0.06078  1.0000
  H   H334      1.0  0.36191  0.70372  0.05245  1.0000
  H   H335      1.0  0.32318  0.68333  0.03846  1.0000
  H   H336      1.0  0.32783  0.69097  0.11970  1.0000
  H   H337      1.0  0.29298  0.67671  0.12266  1.0000
  H   H338      1.0  0.31359  0.65526  0.12201  1.0000
  N   N27       1.0  0.12288  0.55294  0.15464  1.0000
  C   C350      1.0  0.13099  0.57549  0.16207  1.0000
  C   C351      1.0  0.13759  0.55013  0.13788  1.0000
  C   C352      1.0  0.15407  0.59624  0.15238  1.0000
  C   C353      1.0  0.16078  0.57052  0.12779  1.0000
  C   C354      1.0  0.16894  0.59374  0.13511  1.0000
  C   C355      1.0  0.09868  0.53126  0.16489  1.0000
  H   H339      1.0  0.11927  0.57786  0.17527  1.0000
  Fe  Fe60      1.0  0.47318  0.94196  0.22511  1.0000
  C   C356      1.0  0.27794  0.58678  0.01192  1.0000
  C   C357      1.0  0.47251  0.92104  0.12717  1.0000
  C   C358      1.0  0.41349  0.87696  0.15433  1.0000
  H   H340      1.0  0.40053  0.88899  0.15322  1.0000
  C   C359      1.0  0.31368  0.81467  0.05811  1.0000
  C   C360      1.0  0.28159  0.79177  0.08883  1.0000
  Fe  Fe61      1.0  0.04523  0.58952  0.22098  1.0000
  C   C361      1.0  0.38847  0.56861  0.00013  1.0000
  H   H341      1.0  0.17222  0.56843  0.11431  1.0000
  H   H342      1.0  0.40398  0.99151  0.23586  1.0000
  C   C362      1.0  0.17238  0.58690  0.99793  1.0000
  H   H343      1.0  0.40164  0.63423  0.14255  1.0000
  S   S120      1.0  0.40466  0.58259  0.16886  1.0000
  N   N28       1.0  0.29006  0.79583  0.06747  1.0000
  C   C363      1.0  0.07526  0.63076  0.09807  1.0000
  H   H344      1.0  0.34281  0.74259  0.02311  1.0000
  C   C364      1.0  0.43199  0.88201  0.16633  1.0000
  H   H345      1.0  0.00939  0.68061  0.22796  1.0000
  H   H346      1.0  0.28886  0.70586  0.99971  1.0000
  C   C365      1.0  0.38103  0.81773  0.00279  1.0000
  H   H347      1.0  0.32598  0.82668  0.06632  1.0000
  S   S121      1.0  0.15126  0.64564  0.01940  1.0000
  S   S122      1.0  0.44985  0.93089  0.20222  1.0000
  H   H348      1.0  0.42725  0.62787  0.11282  1.0000
  C   C366      1.0  0.41779  0.75903  0.01760  1.0000
  C   C367      1.0  0.42891  0.78087  0.02572  1.0000
  C   C368      1.0  0.37914  0.80662  0.02244  1.0000
  H   H349      1.0  0.46067  0.83471  0.15790  1.0000
  H   H350      1.0  0.44760  0.50930  0.14137  1.0000
  H   H351      1.0  0.39170  0.83871  0.99703  1.0000
  C   C369      1.0  0.44604  0.51847  0.10392  1.0000
  H   H352      1.0  0.28125  0.56735  0.01646  1.0000
  C   C370      1.0  0.44248  0.94687  0.12877  1.0000
  H   H353      1.0  0.40609  0.74021  0.02733  1.0000
  H   H354      1.0  0.10370  0.51460  0.17304  1.0000
  Fe  Fe62      1.0  0.47814  0.96929  0.18355  1.0000
  C   C371      1.0  0.46784  0.51802  0.13193  1.0000
  H   H355      1.0  0.48015  0.50654  0.13787  1.0000
  C   C372      1.0  0.43023  0.93371  0.11542  1.0000
  Fe  Fe63      1.0  0.41840  0.53281  0.23035  1.0000
  H   H356      1.0  0.42943  0.90368  0.09819  1.0000
  Fe  Fe64      1.0  0.03490  0.52970  0.23039  1.0000
  H   H357      1.0  0.25379  0.69820  0.00309  1.0000
  C   C373      1.0  0.46940  0.88744  0.10664  1.0000
  H   H358      1.0  0.47593  0.53912  0.13329  1.0000
  H   H359      1.0  0.43527  0.96159  0.13489  1.0000
  H   H360      1.0  0.47615  0.76406  0.05815  1.0000
  H   H361      1.0  0.47830  0.87741  0.11741  1.0000
  N   N29       1.0  0.42138  0.76143  0.99769  1.0000
  C   C374      1.0  0.46664  0.70282  0.10186  1.0000
  H   H362      1.0  0.23594  0.57558  0.99517  1.0000
  H   H363      1.0  0.48036  0.69793  0.07264  1.0000
  C   C375      1.0  0.36783  0.57678  0.99449  1.0000
  S   S123      1.0  0.46528  0.99431  0.16118  1.0000
  C   C376      1.0  0.44663  0.80779  0.99305  1.0000
  C   C377      1.0  0.46790  0.51636  0.07185  1.0000
  C   C378      1.0  0.98948  0.64363  0.22016  1.0000
  H   H364      1.0  0.46805  0.51612  0.05645  1.0000
  C   C379      1.0  0.27272  0.70747  0.99205  1.0000
  C   C380      1.0  0.41519  0.58449  0.27755  1.0000
  H   H365      1.0  0.45335  0.51781  0.29094  1.0000
  Fe  Fe65      1.0  0.12150  0.95922  0.41579  1.0000
  S   S124      1.0  0.15683  0.95476  0.42710  1.0000
  S   S125      1.0  0.10739  0.92960  0.39709  1.0000
  N   N30       1.0  0.23362  0.98758  0.44414  1.0000
  H   H366      1.0  0.20010  0.97076  0.39515  1.0000
  C   C381      1.0  0.05377  0.54735  0.28024  1.0000
  H   H367      1.0  0.46491  0.56902  0.27750  1.0000
  S   S126      1.0  0.09958  0.96167  0.44493  1.0000
  H   H368      1.0  0.46541  0.53845  0.30760  1.0000
  H   H369      1.0  0.44906  0.59981  0.30062  1.0000
  H   H370      1.0  0.14813  0.97685  0.37102  1.0000
  S   S127      1.0  0.27508  0.96957  0.34741  1.0000
  H   H371      1.0  0.06455  0.53559  0.27338  1.0000
  N   N31       1.0  0.98689  0.70958  0.41180  1.0000
  Fe  Fe66      1.0  0.37136  0.98251  0.34445  1.0000
  C   C382      1.0  0.08915  0.86660  0.45860  1.0000
  C   C383      1.0  0.43485  0.96725  0.34113  1.0000
  S   S128      1.0  0.39980  0.52241  0.26263  1.0000
  H   H372      1.0  0.28221  0.98319  0.40925  1.0000
  H   H373      1.0  0.06878  0.90772  0.48512  1.0000
  H   H374      1.0  0.44642  0.90660  0.37178  1.0000
  C   C384      1.0  0.43557  0.95552  0.26100  1.0000
  H   H375      1.0  0.43846  0.98094  0.38340  1.0000
  C   C385      1.0  0.99404  0.70179  0.39469  1.0000
  H   H376      1.0  0.14860  0.93439  0.36124  1.0000
  H   H377      1.0  0.47719  0.90282  0.31371  1.0000
  C   C386      1.0  0.26371  0.97706  0.42003  1.0000
  H   H378      1.0  0.37990  0.53840  0.29770  1.0000
  C   C387      1.0  0.00811  0.63429  0.26476  1.0000
  C   C388      1.0  0.23410  0.96939  0.37541  1.0000
  C   C389      1.0  0.01897  0.65841  0.27035  1.0000
  H   H379      1.0  0.20721  0.92462  0.43772  1.0000
  S   S129      1.0  0.34356  0.96381  0.32626  1.0000
  H   H380      1.0  0.46439  0.90328  0.29174  1.0000
  H   H381      1.0  0.40455  0.91635  0.38066  1.0000
  C   C390      1.0  0.06942  0.89561  0.47412  1.0000
  H   H382      1.0  0.43115  0.94770  0.29245  1.0000
  C   C391      1.0  0.06306  0.57519  0.27488  1.0000
  C   C392      1.0  0.42529  0.95727  0.28008  1.0000
  C   C393      1.0  0.40724  0.97130  0.28324  1.0000
  H   H383      1.0  0.02139  0.61476  0.30255  1.0000
  C   C394      1.0  0.03007  0.53467  0.29398  1.0000
  N   N32       1.0  0.47728  0.50354  0.30815  1.0000
  C   C395      1.0  0.99478  0.78752  0.47811  1.0000
  H   H384      1.0  0.47827  0.93412  0.29923  1.0000
  H   H385      1.0  0.47448  0.97526  0.32442  1.0000
  C   C396      1.0  0.42795  0.96793  0.24506  1.0000
  C   C397      1.0  0.40985  0.98192  0.24822  1.0000
  Fe  Fe67      1.0  0.13648  0.96103  0.45521  1.0000
  H   H386      1.0  0.18881  0.93266  0.33919  1.0000
  H   H387      1.0  0.04268  0.92933  0.45747  1.0000
  H   H388      1.0  0.02242  0.51300  0.29787  1.0000
  C   C398      1.0  0.46512  0.51846  0.36012  1.0000
  C   C399      1.0  0.41956  0.92899  0.36816  1.0000
  H   H389      1.0  0.02287  0.73189  0.41817  1.0000
  C   C400      1.0  0.46327  0.94034  0.34763  1.0000
  H   H390      1.0  0.03823  0.87512  0.43899  1.0000
  C   C401      1.0  0.16582  0.95215  0.35584  1.0000
  H   H391      1.0  0.10189  0.88402  0.48250  1.0000
  C   C402      1.0  0.48038  0.91418  0.29851  1.0000
  H   H392      1.0  0.05402  0.69220  0.26655  1.0000
  N   N33       1.0  0.05184  0.89317  0.46200  1.0000
  H   H393      1.0  0.07159  0.85216  0.43524  1.0000
  C   C403      1.0  0.02342  0.62531  0.25111  1.0000
  C   C404      1.0  0.03260  0.90773  0.46358  1.0000
  C   C405      1.0  0.00384  0.73432  0.41569  1.0000
  N   N34       1.0  0.02561  0.57743  0.29725  1.0000
  S   S130      1.0  0.01857  0.55695  0.24565  1.0000
  H   H394      1.0  0.37872  0.51414  0.33080  1.0000
  C   C406      1.0  0.07120  0.86428  0.44626  1.0000
  H   H395      1.0  0.22428  0.94966  0.37317  1.0000
  H   H396      1.0  0.00790  0.75108  0.40300  1.0000
  S   S131      1.0  0.38669  0.95867  0.36583  1.0000
  C   C407      1.0  0.07302  0.91418  0.40084  1.0000
  C   C408      1.0  0.06340  0.88941  0.39561  1.0000
  C   C409      1.0  0.03604  0.87632  0.39891  1.0000
  C   C410      1.0  0.01817  0.88827  0.40703  1.0000
  C   C411      1.0  0.02781  0.91337  0.41181  1.0000
  C   C412      1.0  0.05518  0.92613  0.40901  1.0000
  H   H397      1.0  0.07713  0.88018  0.38915  1.0000
  H   H398      1.0  0.02879  0.85718  0.39493  1.0000
  H   H399      1.0  0.01404  0.92277  0.41796  1.0000
  H   H400      1.0  0.06246  0.94536  0.41288  1.0000
  C   C413      1.0  0.01611  0.55013  0.30236  1.0000
  H   H401      1.0  0.41300  0.53291  0.34896  1.0000
  H   H402      1.0  0.05589  0.61161  0.27913  1.0000
  H   H403      1.0  0.45318  0.53140  0.35851  1.0000
  H   H404      1.0  0.40191  0.49715  0.30066  1.0000
  C   C414      1.0  0.04865  0.59000  0.28358  1.0000
  H   H405      1.0  0.02271  0.90482  0.47919  1.0000
  S   S132      1.0  0.13723  0.93526  0.48302  1.0000
  C   C415      1.0  0.44327  0.92349  0.36316  1.0000
  C   C416      1.0  0.43315  0.58134  0.30737  1.0000
  C   C417      1.0  0.21595  0.96251  0.44683  1.0000
  C   C418      1.0  0.41527  0.95083  0.35725  1.0000
  H   H406      1.0  0.42689  0.57690  0.26670  1.0000
  C   C419      1.0  0.18828  0.95121  0.34347  1.0000
  S   S133      1.0  0.99520  0.80086  0.41331  1.0000
  S   S134      1.0  0.05215  0.50142  0.24590  1.0000
  H   H407      1.0  0.43953  0.50706  0.31708  1.0000
  C   C420      1.0  0.04548  0.67342  0.26236  1.0000
  C   C421      1.0  0.45908  0.96223  0.33650  1.0000
  H   H408      1.0  0.39509  0.58068  0.27434  1.0000
  H   H409      1.0  0.00503  0.58640  0.32232  1.0000
  C   C422      1.0  0.26010  0.98325  0.36527  1.0000
  C   C423      1.0  0.05253  0.87767  0.44825  1.0000
  H   H410      1.0  0.99754  0.54021  0.31291  1.0000
  C   C424      1.0  0.39462  0.54710  0.30575  1.0000
  C   C425      1.0  0.39953  0.98365  0.26731  1.0000
  C   C426      1.0  0.39386  0.53325  0.32443  1.0000
  C   C427      1.0  0.43308  0.56795  0.32602  1.0000
  C   C428      1.0  0.41321  0.54378  0.33460  1.0000
  H   H411      1.0  0.01683  0.90055  0.45542  1.0000
  C   C429      1.0  0.45794  0.51748  0.30579  1.0000
  H   H412      1.0  0.19721  0.95661  0.45729  1.0000
  H   H413      1.0  0.01142  0.71437  0.38378  1.0000
  C   C430      1.0  0.06103  0.66416  0.24894  1.0000
  H   H414      1.0  0.44873  0.57605  0.33352  1.0000
  H   H415      1.0  0.08095  0.58525  0.26366  1.0000
  C   C431      1.0  0.01033  0.59301  0.30608  1.0000
  S   S135      1.0  0.45842  0.93832  0.25721  1.0000
  H   H416      1.0  0.25002  0.93795  0.41344  1.0000
  N   N35       1.0  0.41399  0.57094  0.29752  1.0000
  H   H417      1.0  0.22792  0.97325  0.32763  1.0000
  H   H418      1.0  0.42448  0.60645  0.27536  1.0000
  C   C432      1.0  0.22039  0.98130  0.38790  1.0000
  H   H419      1.0  0.99311  0.81688  0.45431  1.0000
  C   C433      1.0  0.08818  0.88222  0.47271  1.0000
  H   H420      1.0  0.39933  0.97253  0.29801  1.0000
  C   C434      1.0  0.16557  0.97606  0.36141  1.0000
  H   H421      1.0  0.99174  0.58999  0.30061  1.0000
  C   C435      1.0  0.24558  0.95166  0.42236  1.0000
  H   H422      1.0  0.98761  0.62305  0.27016  1.0000
  C   C436      1.0  0.22155  0.94425  0.43588  1.0000
  H   H423      1.0  0.01440  0.60723  0.24635  1.0000
  H   H424      1.0  0.14972  0.98913  0.48922  1.0000
  C   C437      1.0  0.21029  0.97430  0.33688  1.0000
  H   H425      1.0  0.10370  0.85626  0.45727  1.0000
  H   H426      1.0  0.43169  0.98426  0.33273  1.0000
  C   C438      1.0  0.04994  0.64010  0.24327  1.0000
  H   H427      1.0  0.47015  0.99104  0.36727  1.0000
  H   H428      1.0  0.00143  0.85346  0.47222  1.0000
  C   C439      1.0  0.00185  0.83415  0.47896  1.0000
  Fe  Fe68      1.0  0.31927  0.98843  0.33738  1.0000
  C   C440      1.0  0.99637  0.81315  0.46901  1.0000
  S   S136      1.0  0.99949  0.67065  0.28658  1.0000
  H   H429      1.0  0.08157  0.67572  0.24288  1.0000
  H   H430      1.0  0.99444  0.74005  0.42886  1.0000
  C   C441      1.0  0.48389  0.57808  0.26761  1.0000
  H   H431      1.0  0.46900  0.56643  0.24277  1.0000
  H   H432      1.0  0.09510  0.51843  0.67469  1.0000
  C   C442      1.0  0.05732  0.72089  0.62931  1.0000
  H   H433      1.0  0.05892  0.76350  0.64541  1.0000
  C   C443      1.0  0.47798  0.54731  0.65179  1.0000
  C   C444      1.0  0.16116  0.95365  0.49401  1.0000
  C   C445      1.0  0.43777  0.50972  0.65787  1.0000
  C   C446      1.0  0.14776  0.93777  0.55031  1.0000
  C   C447      1.0  0.47485  0.65193  0.70488  1.0000
  Fe  Fe69      1.0  0.00382  0.84223  0.54214  1.0000
  C   C448      1.0  0.03019  0.53476  0.68009  1.0000
  C   C449      1.0  0.10026  0.91479  0.53989  1.0000
  C   C450      1.0  0.44523  0.64900  0.64868  1.0000
  H   H434      1.0  0.40386  0.64546  0.65486  1.0000
  C   C451      1.0  0.00850  0.52644  0.64724  1.0000
  H   H435      1.0  0.17683  0.92145  0.50101  1.0000
  H   H436      1.0  0.07778  0.72069  0.62427  1.0000
  S   S137      1.0  0.01972  0.63222  0.67227  1.0000
  S   S138      1.0  0.37998  0.60525  0.68980  1.0000
  S   S139      1.0  0.44419  0.95163  0.71739  1.0000
  H   H437      1.0  0.21124  0.94772  0.51630  1.0000
  C   C452      1.0  0.01867  0.50667  0.73359  1.0000
  C   C453      1.0  0.99011  0.73669  0.63788  1.0000
  H   H438      1.0  0.02306  0.57262  0.67563  1.0000
  C   C454      1.0  0.37457  0.97851  0.70471  1.0000
  H   H439      1.0  0.14252  0.97508  0.53929  1.0000
  C   C455      1.0  0.12078  0.49727  0.71189  1.0000
  H   H440      1.0  0.37181  0.53490  0.66119  1.0000
  N   N36       1.0  0.11082  0.94199  0.53663  1.0000
  C   C456      1.0  0.01023  0.55005  0.65410  1.0000
  H   H441      1.0  0.01010  0.80118  0.52135  1.0000
  C   C457      1.0  0.46510  0.63956  0.65439  1.0000
  Fe  Fe70      1.0  0.99072  0.79403  0.57536  1.0000
  S   S140      1.0  0.99842  0.86985  0.56228  1.0000
  C   C458      1.0  0.31279  0.51629  0.71892  1.0000
  H   H442      1.0  0.39118  0.93968  0.74005  1.0000
  C   C459      1.0  0.04901  0.77398  0.59220  1.0000
  Fe  Fe71      1.0  0.99772  0.61215  0.70310  1.0000
  H   H443      1.0  0.45021  0.66550  0.63630  1.0000
  N   N37       1.0  0.44890  0.54614  0.61102  1.0000
  C   C460      1.0  0.41256  0.61733  0.67580  1.0000
  C   C461      1.0  0.41899  0.63768  0.65919  1.0000
  H   H444      1.0  0.07559  0.94972  0.53168  1.0000
  H   H445      1.0  0.99942  0.76352  0.50385  1.0000
  H   H446      1.0  0.46797  0.62123  0.73030  1.0000
  C   C462      1.0  0.09742  0.95878  0.52690  1.0000
  H   H447      1.0  0.14696  0.89760  0.56102  1.0000
  H   H448      1.0  0.03916  0.53843  0.69248  1.0000
  C   C463      1.0  0.03862  0.59124  0.72868  1.0000
  H   H449      1.0  0.39369  0.98836  0.60715  1.0000
  C   C464      1.0  0.43233  0.60742  0.68133  1.0000
  C   C465      1.0  0.45854  0.61827  0.67044  1.0000
  H   H450      1.0  0.05275  0.71763  0.64560  1.0000
  H   H451      1.0  0.04311  0.70371  0.62549  1.0000
  H   H452      1.0  0.43737  0.98360  0.68340  1.0000
  C   C466      1.0  0.13428  0.95353  0.54168  1.0000
  S   S141      1.0  0.45681  0.56504  0.73830  1.0000
  C   C467      1.0  0.07499  0.58169  0.70949  1.0000
  H   H453      1.0  0.04908  0.60046  0.69709  1.0000
  H   H454      1.0  0.08685  0.58251  0.69537  1.0000
  C   C468      1.0  0.01657  0.50650  0.65731  1.0000
  C   C469      1.0  0.41695  0.96100  0.71231  1.0000
  H   H455      1.0  0.30394  0.52348  0.73102  1.0000
  S   S142      1.0  0.05626  0.86877  0.59247  1.0000
  C   C470      1.0  0.11300  0.89840  0.54879  1.0000
  C   C471      1.0  0.05106  0.74979  0.60135  1.0000
  C   C472      1.0  0.13696  0.91003  0.55396  1.0000
  Fe  Fe72      1.0  0.37973  0.58630  0.72030  1.0000
  C   C473      1.0  0.02116  0.55420  0.67051  1.0000
  Fe  Fe73      1.0  0.98951  0.59917  0.66399  1.0000
  C   C474      1.0  0.00693  0.83000  0.49776  1.0000
  C   C475      1.0  0.09042  0.96005  0.57812  1.0000
  C   C476      1.0  0.10388  0.94469  0.58728  1.0000
  C   C477      1.0  0.09282  0.91669  0.59223  1.0000
  C   C478      1.0  0.06845  0.90395  0.58783  1.0000
  C   C479      1.0  0.05474  0.91939  0.57912  1.0000
  C   C480      1.0  0.06558  0.94735  0.57446  1.0000
  H   H456      1.0  0.12287  0.95433  0.59042  1.0000
  H   H457      1.0  0.10343  0.90489  0.59913  1.0000
  H   H458      1.0  0.03574  0.90986  0.57602  1.0000
  H   H459      1.0  0.05491  0.95917  0.56763  1.0000
  H   H460      1.0  0.43029  0.51969  0.59407  1.0000
  H   H461      1.0  0.11727  0.53804  0.68737  1.0000
  S   S143      1.0  0.40316  0.49782  0.66290  1.0000
  H   H462      1.0  0.43912  0.54875  0.66312  1.0000
  H   H463      1.0  0.10322  0.96118  0.51075  1.0000
  C   C481      1.0  0.45053  0.53630  0.65835  1.0000
  H   H464      1.0  0.38603  0.54770  0.68059  1.0000
  C   C482      1.0  0.43452  0.51917  0.60899  1.0000
  C   C483      1.0  0.48019  0.50477  0.64523  1.0000
  C   C484      1.0  0.05062  0.79457  0.60248  1.0000
  C   C485      1.0  0.05360  0.59177  0.71043  1.0000
  H   H465      1.0  0.34000  0.55492  0.70453  1.0000
  C   C486      1.0  0.36791  0.54328  0.67443  1.0000
  H   H466      1.0  0.00056  0.52338  0.63432  1.0000
  H   H467      1.0  0.36401  0.56231  0.66966  1.0000
  C   C487      1.0  0.05433  0.79083  0.62168  1.0000
  H   H468      1.0  0.16639  0.94709  0.55424  1.0000
  C   C488      1.0  0.05634  0.76638  0.63039  1.0000
  H   H469      1.0  0.04911  0.73367  0.59340  1.0000
  C   C489      1.0  0.33757  0.49801  0.68894  1.0000
  H   H470      1.0  0.08295  0.52180  0.69914  1.0000
  S   S144      1.0  0.38891  0.54794  0.72421  1.0000
  C   C490      1.0  0.48267  0.63499  0.71806  1.0000
  H   H471      1.0  0.47377  0.61092  0.67500  1.0000
  H   H472      1.0  0.10399  0.87688  0.55205  1.0000
  N   N38       1.0  0.10599  0.49585  0.69780  1.0000
  H   H473      1.0  0.05534  0.80676  0.62977  1.0000
  C   C491      1.0  0.17845  0.94194  0.50169  1.0000
  S   S145      1.0  0.99766  0.57378  0.64275  1.0000
  C   C492      1.0  0.33340  0.53388  0.70403  1.0000
  S   S146      1.0  0.02893  0.82448  0.55848  1.0000
  C   C493      1.0  0.00612  0.80450  0.50679  1.0000
  C   C494      1.0  0.44909  0.58716  0.62132  1.0000
  H   H474      1.0  0.08156  0.90563  0.53605  1.0000
  H   H475      1.0  0.41555  0.51042  0.62003  1.0000
  S   S147      1.0  0.01254  0.60461  0.73060  1.0000
  Fe  Fe74      1.0  0.02101  0.84972  0.58003  1.0000
  C   C495      1.0  0.43552  0.56130  0.61946  1.0000
  S   S148      1.0  0.01421  0.85694  0.50964  1.0000
  C   C496      1.0  0.37207  0.96143  0.72249  1.0000
  H   H476      1.0  0.98821  0.76919  0.61685  1.0000
  H   H477      1.0  0.04531  0.77641  0.57746  1.0000
  C   C497      1.0  0.39336  0.95302  0.72639  1.0000
  H   H478      1.0  0.42759  0.59165  0.69412  1.0000
  C   C498      1.0  0.02739  0.51066  0.67377  1.0000
  N   N39       1.0  0.34547  0.52465  0.68929  1.0000
  N   N40       1.0  0.05451  0.74619  0.62025  1.0000
  S   S149      1.0  0.10772  0.55813  0.72579  1.0000
  C   C499      1.0  0.19797  0.95681  0.51020  1.0000
  C   C500      1.0  0.00020  0.78326  0.49687  1.0000
  H   H479      1.0  0.35360  0.95455  0.73322  1.0000
  H   H480      1.0  0.45428  0.65108  0.70671  1.0000
  C   C501      1.0  0.08089  0.57049  0.72677  1.0000
  H   H481      1.0  0.43869  0.59891  0.62859  1.0000
  C   C502      1.0  0.19963  0.98307  0.51157  1.0000
  H   H482      1.0  0.04861  0.81327  0.59572  1.0000
  H   H483      1.0  0.10253  0.97879  0.53083  1.0000
  C   C503      1.0  0.16332  0.98016  0.49485  1.0000
  C   C504      1.0  0.10012  0.51969  0.68928  1.0000
  C   C505      1.0  0.46727  0.50984  0.70396  1.0000
  H   H484      1.0  0.44867  0.51153  0.71109  1.0000
  H   H485      1.0  0.41439  0.55311  0.62539  1.0000
  H   H486      1.0  0.15802  0.58112  0.74095  1.0000
  H   H487      1.0  0.03824  0.52217  0.72760  1.0000
  C   C506      1.0  0.41926  0.97763  0.69435  1.0000
  S   S150      1.0  0.40938  0.60758  0.73615  1.0000
  C   C507      1.0  0.39827  0.98683  0.69068  1.0000
  Fe  Fe75      1.0  0.98869  0.65274  0.67207  1.0000
  H   H488      1.0  0.44627  0.50546  0.61155  1.0000
  H   H489      1.0  0.01045  0.49932  0.72122  1.0000
  H   H490      1.0  0.12853  0.51598  0.71644  1.0000
  H   H491      1.0  0.98678  0.67492  0.62937  1.0000
  C   C508      1.0  0.47637  0.59763  0.61410  1.0000
  S   S151      1.0  0.99639  0.69713  0.66385  1.0000
  C   C509      1.0  0.98759  0.74863  0.61952  1.0000
  C   C510      1.0  0.98673  0.69537  0.62675  1.0000
  H   H492      1.0  0.99265  0.74824  0.64921  1.0000
  H   H493      1.0  0.12719  0.60593  0.74134  1.0000
  H   H494      1.0  0.33279  0.99226  0.73950  1.0000
  C   C511      1.0  0.99005  0.71019  0.64145  1.0000
  C   C512      1.0  0.47562  0.55633  0.60381  1.0000
  S   S152      1.0  0.34777  0.98911  0.70042  1.0000
  C   C513      1.0  0.98518  0.73422  0.60454  1.0000
  H   H495      1.0  0.98543  0.53032  0.72059  1.0000
  S   S153      1.0  0.98508  0.74976  0.58072  1.0000
  Fe  Fe76      1.0  0.12747  0.52221  0.78993  1.0000
  S   S154      1.0  0.09864  0.54356  0.78384  1.0000
  S   S155      1.0  0.16297  0.54131  0.80167  1.0000
  C   C514      1.0  0.44316  0.71586  0.86429  1.0000
  H   H496      1.0  0.27893  0.59969  0.93530  1.0000
  N   N41       1.0  0.46120  0.50086  0.91830  1.0000
  C   C515      1.0  0.46501  0.76349  0.85617  1.0000
  C   C516      1.0  0.44548  0.63406  0.96673  1.0000
  C   C517      1.0  0.14932  0.60168  0.78326  1.0000
  C   C518      1.0  0.30230  0.60513  0.95738  1.0000
  H   H497      1.0  0.48296  0.78054  0.85228  1.0000
  H   H498      1.0  0.38425  0.81492  0.87442  1.0000
  H   H499      1.0  0.34584  0.68428  0.82779  1.0000
  H   H500      1.0  0.34931  0.58511  0.97047  1.0000
  S   S156      1.0  0.35003  0.78169  0.92482  1.0000
  Fe  Fe77      1.0  0.41522  0.76727  0.93084  1.0000
  S   S157      1.0  0.37585  0.73563  0.94120  1.0000
  H   H501      1.0  0.41003  0.51903  0.75026  1.0000
  Fe  Fe78      1.0  0.36684  0.75200  0.91291  1.0000
  S   S158      1.0  0.34867  0.72443  0.89416  1.0000
  Fe  Fe79      1.0  0.36262  0.76781  0.95226  1.0000
  S   S159      1.0  0.40795  0.78054  0.90124  1.0000
  Fe  Fe80      1.0  0.42700  0.58893  0.92016  1.0000
  S   S160      1.0  0.42459  0.62959  0.92166  1.0000
  Fe  Fe81      1.0  0.42621  0.59590  0.87722  1.0000
  S   S161      1.0  0.42364  0.63733  0.87466  1.0000
  Fe  Fe82      1.0  0.45389  0.64327  0.89318  1.0000
  C   C519      1.0  0.12840  0.60700  0.75643  1.0000
  Fe  Fe83      1.0  0.39446  0.62048  0.90329  1.0000
  S   S162      1.0  0.36133  0.63685  0.91066  1.0000
  S   S163      1.0  0.45955  0.60333  0.89326  1.0000
  C   C520      1.0  0.44132  0.50240  0.95095  1.0000
  Fe  Fe84      1.0  0.21092  0.64652  0.90302  1.0000
  S   S164      1.0  0.22954  0.61958  0.91851  1.0000
  S   S165      1.0  0.22463  0.68940  0.90539  1.0000
  Fe  Fe85      1.0  0.17291  0.60134  0.89077  1.0000
  S   S166      1.0  0.18793  0.57033  0.90561  1.0000
  S   S167      1.0  0.13841  0.58976  0.87621  1.0000
  Fe  Fe86      1.0  0.18831  0.59245  0.93028  1.0000
  S   S168      1.0  0.17955  0.57291  0.96215  1.0000
  Fe  Fe87      1.0  0.22784  0.60036  0.89239  1.0000
  S   S169      1.0  0.26051  0.58675  0.87826  1.0000
  S   S170      1.0  0.16934  0.62072  0.91672  1.0000
  S   S171      1.0  0.21296  0.62995  0.87558  1.0000
  C   C521      1.0  0.17367  0.59422  0.97781  1.0000
  C   C522      1.0  0.41543  0.86197  0.83254  1.0000
  C   C523      1.0  0.41088  0.50378  0.81750  1.0000
  H   H502      1.0  0.46253  0.51966  0.88932  1.0000
  Fe  Fe88      1.0  0.06806  0.50314  0.79405  1.0000
  C   C524      1.0  0.16895  0.61784  0.97051  1.0000
  Fe  Fe89      1.0  0.43398  0.91007  0.79015  1.0000
  C   C525      1.0  0.27476  0.67152  0.94223  1.0000
  H   H503      1.0  0.15768  0.65146  0.97765  1.0000
  H   H504      1.0  0.17023  0.62390  0.95506  1.0000
  C   C526      1.0  0.33492  0.62414  0.89971  1.0000
  C   C527      1.0  0.33317  0.60213  0.89083  1.0000
  C   C528      1.0  0.31059  0.59102  0.88359  1.0000
  C   C529      1.0  0.29000  0.60210  0.88518  1.0000
  C   C530      1.0  0.29263  0.62501  0.89299  1.0000
  C   C531      1.0  0.31487  0.63580  0.90052  1.0000
  H   H505      1.0  0.34879  0.59319  0.89005  1.0000
  H   H506      1.0  0.30874  0.57342  0.87736  1.0000
  H   H507      1.0  0.27754  0.63444  0.89323  1.0000
  H   H508      1.0  0.31653  0.65314  0.90706  1.0000
  H   H509      1.0  0.43021  0.50598  0.82088  1.0000
  H   H510      1.0  0.16473  0.59640  0.78945  1.0000
  S   S172      1.0  0.45309  0.94479  0.80304  1.0000
  Fe  Fe90      1.0  0.48382  0.95736  0.77509  1.0000
  H   H511      1.0  0.31848  0.61095  0.80807  1.0000
  H   H512      1.0  0.36965  0.81084  0.97562  1.0000
  C   C532      1.0  0.31443  0.71681  0.89598  1.0000
  C   C533      1.0  0.30145  0.69651  0.88715  1.0000
  C   C534      1.0  0.27385  0.68852  0.88960  1.0000
  C   C535      1.0  0.25922  0.70118  0.90059  1.0000
  C   C536      1.0  0.27225  0.72221  0.90878  1.0000
  C   C537      1.0  0.29983  0.72986  0.90662  1.0000
  H   H513      1.0  0.31275  0.68652  0.87885  1.0000
  H   H514      1.0  0.26383  0.67250  0.88306  1.0000
  H   H515      1.0  0.26093  0.73205  0.91728  1.0000
  H   H516      1.0  0.30962  0.74562  0.91336  1.0000
  C   C538      1.0  0.25465  0.58730  0.96458  1.0000
  S   S173      1.0  0.13499  0.51329  0.75987  1.0000
  H   H517      1.0  0.13189  0.61019  0.81030  1.0000
  C   C539      1.0  0.16669  0.59080  0.75236  1.0000
  C   C540      1.0  0.45021  0.70071  0.90799  1.0000
  C   C541      1.0  0.44273  0.71881  0.91827  1.0000
  C   C542      1.0  0.43559  0.78541  0.98542  1.0000
  C   C543      1.0  0.11071  0.61607  0.78736  1.0000
  H   H518      1.0  0.43515  0.68440  0.90502  1.0000
  H   H519      1.0  0.42198  0.71611  0.92341  1.0000
  H   H520      1.0  0.43941  0.58229  0.80925  1.0000
  C   C544      1.0  0.04455  0.58004  0.74589  1.0000
  S   S174      1.0  0.33871  0.75506  0.98310  1.0000
  S   S175      1.0  0.32807  0.49625  0.76585  1.0000
  H   H521      1.0  0.43740  0.89443  0.86770  1.0000
  H   H522      1.0  0.46289  0.53699  0.92838  1.0000
  C   C545      1.0  0.09746  0.58845  0.93250  1.0000
  H   H523      1.0  0.32111  0.61294  0.94685  1.0000
  H   H524      1.0  0.26834  0.59115  0.81378  1.0000
  C   C546      1.0  0.06532  0.56925  0.74493  1.0000
  C   C547      1.0  0.37967  0.60684  0.82447  1.0000
  H   H525      1.0  0.37216  0.89085  0.89734  1.0000
  H   H526      1.0  0.38201  0.57699  0.94581  1.0000
  H   H527      1.0  0.36330  0.98670  0.76135  1.0000
  H   H528      1.0  0.35436  0.65228  0.80722  1.0000
  H   H529      1.0  0.23214  0.65897  0.95005  1.0000
  C   C548      1.0  0.47703  0.70424  0.90116  1.0000
  C   C549      1.0  0.29713  0.69741  0.96338  1.0000
  H   H530      1.0  0.30102  0.67440  0.84861  1.0000
  C   C550      1.0  0.15569  0.55367  0.82287  1.0000
  C   C551      1.0  0.13001  0.55359  0.83009  1.0000
  C   C552      1.0  0.12483  0.56480  0.84647  1.0000
  C   C553      1.0  0.14523  0.57578  0.85579  1.0000
  C   C554      1.0  0.17084  0.57554  0.84871  1.0000
  C   C555      1.0  0.17609  0.56468  0.83217  1.0000
  H   H531      1.0  0.11414  0.54497  0.82307  1.0000
  H   H532      1.0  0.10497  0.56484  0.85198  1.0000
  H   H533      1.0  0.18663  0.58383  0.85591  1.0000
  H   H534      1.0  0.19595  0.56469  0.82663  1.0000
  H   H535      1.0  0.27318  0.57792  0.83763  1.0000
  H   H536      1.0  0.31545  0.70904  0.96663  1.0000
  C   C556      1.0  0.41737  0.74509  0.86441  1.0000
  C   C557      1.0  0.39320  0.59932  0.83861  1.0000
  Fe  Fe91      1.0  0.41629  0.56820  0.74193  1.0000
  H   H537      1.0  0.39263  0.93868  0.81933  1.0000
  Fe  Fe92      1.0  0.39190  0.80920  0.91514  1.0000
  H   H538      1.0  0.33573  0.52252  0.83217  1.0000
  C   C558      1.0  0.42278  0.58919  0.81353  1.0000
  C   C559      1.0  0.10170  0.56886  0.92244  1.0000
  Fe  Fe93      1.0  0.10383  0.53182  0.75465  1.0000
  C   C560      1.0  0.25052  0.66919  0.95399  1.0000
  C   C561      1.0  0.46208  0.73989  0.92232  1.0000
  N   N42       1.0  0.11367  0.55139  0.92982  1.0000
  Fe  Fe94      1.0  0.44393  0.94506  0.74961  1.0000
  Fe  Fe95      1.0  0.35824  0.53616  0.75211  1.0000
  S   S176      1.0  0.46668  0.92099  0.76335  1.0000
  N   N43       1.0  0.46610  0.65249  0.95322  1.0000
  H   H539      1.0  0.27536  0.66306  0.92916  1.0000
  H   H540      1.0  0.12991  0.53815  0.95365  1.0000
  H   H541      1.0  0.10203  0.60484  0.95840  1.0000
  S   S177      1.0  0.41534  0.86762  0.80730  1.0000
  S   S178      1.0  0.41083  0.99336  0.79775  1.0000
  C   C562      1.0  0.35681  0.53439  0.82601  1.0000
  H   H542      1.0  0.44463  0.69588  0.86681  1.0000
  C   C563      1.0  0.16182  0.63348  0.98334  1.0000
  N   N44       1.0  0.41900  0.71977  0.86710  1.0000
  C   C564      1.0  0.38380  0.57435  0.96093  1.0000
  H   H543      1.0  0.18459  0.60801  0.74513  1.0000
  C   C565      1.0  0.29824  0.68579  0.94686  1.0000
  C   C566      1.0  0.47416  0.52319  0.74946  1.0000
  C   C567      1.0  0.45369  0.68807  0.96501  1.0000
  C   C568      1.0  0.39480  0.69687  0.87441  1.0000
  H   H544      1.0  0.34317  0.49820  0.80423  1.0000
  C   C569      1.0  0.00141  0.51784  0.76433  1.0000
  C   C570      1.0  0.40475  0.56674  0.96638  1.0000
  H   H545      1.0  0.39734  0.67828  0.87048  1.0000
  H   H546      1.0  0.38909  0.69356  0.89068  1.0000
  H   H547      1.0  0.37811  0.70033  0.86826  1.0000
  C   C571      1.0  0.38823  0.92558  0.85050  1.0000
  Fe  Fe96      1.0  0.43110  0.96615  0.78599  1.0000
  H   H548      1.0  0.40472  0.91216  0.88537  1.0000
  H   H549      1.0  0.09965  0.51366  0.92222  1.0000
  C   C572      1.0  0.38338  0.90868  0.88554  1.0000
  Fe  Fe97      1.0  0.37672  0.59033  0.76298  1.0000
  H   H550      1.0  0.36815  0.89362  0.81469  1.0000
  C   C573      1.0  0.39610  0.51963  0.82405  1.0000
  C   C574      1.0  0.42945  0.88220  0.84093  1.0000
  H   H551      1.0  0.12359  0.53930  0.90291  1.0000
  S   S179      1.0  0.40925  0.93068  0.77517  1.0000
  C   C575      1.0  0.38435  0.92208  0.83181  1.0000
  S   S180      1.0  0.40283  0.79846  0.94391  1.0000
  H   H552      1.0  0.36255  0.61282  0.82894  1.0000
  H   H553      1.0  0.39975  0.94510  0.85223  1.0000
  H   H554      1.0  0.03290  0.57954  0.76001  1.0000
  N   N45       1.0  0.27800  0.59153  0.99088  1.0000
  H   H555      1.0  0.44237  0.61295  0.96764  1.0000
  C   C576      1.0  0.36197  0.49951  0.80835  1.0000
  C   C577      1.0  0.11797  0.53106  0.91900  1.0000
  H   H556      1.0  0.36460  0.54440  0.83757  1.0000
  C   C578      1.0  0.10955  0.61497  0.76785  1.0000
  C   C579      1.0  0.42813  0.64218  0.97947  1.0000
  C   C580      1.0  0.10479  0.58953  0.95053  1.0000
  S   S181      1.0  0.46384  0.98238  0.75927  1.0000
  C   C581      1.0  0.43241  0.66937  0.97868  1.0000
  C   C582      1.0  0.44031  0.76732  0.85878  1.0000
  H   H557      1.0  0.06938  0.56032  0.75831  1.0000
  H   H558      1.0  0.31716  0.68852  0.93734  1.0000
  H   H559      1.0  0.32008  0.60728  0.98252  1.0000
  N   N46       1.0  0.28986  0.61983  0.82818  1.0000
  C   C583      1.0  0.28498  0.63733  0.83947  1.0000
  C   C584      1.0  0.31446  0.62501  0.81679  1.0000
  C   C585      1.0  0.30498  0.66077  0.83948  1.0000
  C   C586      1.0  0.33488  0.64837  0.81631  1.0000
  C   C587      1.0  0.33009  0.66627  0.82782  1.0000
  C   C588      1.0  0.26913  0.59478  0.82881  1.0000
  H   H560      1.0  0.26567  0.63300  0.84885  1.0000
  H   H561      1.0  0.24925  0.59497  0.83585  1.0000
  N   N47       1.0  0.37811  0.90463  0.86626  1.0000
  N   N48       1.0  0.37189  0.51722  0.81956  1.0000
  C   C589      1.0  0.13082  0.60957  0.79511  1.0000
  S   S182      1.0  0.39382  0.57810  0.90426  1.0000
  H   H562      1.0  0.43888  0.78738  0.85689  1.0000
  H   H563      1.0  0.01522  0.51029  0.77103  1.0000
  H   H564      1.0  0.17259  0.57560  0.76157  1.0000
  H   H565      1.0  0.44226  0.90078  0.83178  1.0000
  S   S183      1.0  0.38664  0.55271  0.77034  1.0000
  H   H566      1.0  0.23613  0.58127  0.95970  1.0000
  C   C590      1.0  0.42679  0.87848  0.86133  1.0000
  H   H567      1.0  0.40423  0.53390  0.83269  1.0000
  H   H568      1.0  0.37784  0.92603  0.88940  1.0000
  H   H569      1.0  0.35798  0.55011  0.81335  1.0000
  H   H570      1.0  0.41640  0.59680  0.78420  1.0000
  H   H571      1.0  0.41938  0.67588  0.98877  1.0000
  C   C591      1.0  0.36520  0.57900  0.97497  1.0000
  C   C592      1.0  0.40676  0.56323  0.98610  1.0000
  H   H572      1.0  0.38649  0.59967  0.85384  1.0000
  H   H573      1.0  0.38900  0.82156  0.83824  1.0000
  N   N49       1.0  0.14755  0.59985  0.76434  1.0000
  S   S184      1.0  0.02901  0.49724  0.81355  1.0000
  S   S185      1.0  0.43002  0.56508  0.94813  1.0000
  C   C593      1.0  0.12049  0.55201  0.94766  1.0000
  C   C594      1.0  0.27864  0.59772  0.95090  1.0000
  C   C595      1.0  0.39722  0.83355  0.86511  1.0000
  H   H574      1.0  0.34986  0.85583  0.84342  1.0000
  H   H575      1.0  0.09583  0.56808  0.90846  1.0000
  C   C596      1.0  0.39983  0.83736  0.84465  1.0000
  C   C597      1.0  0.35996  0.87568  0.84540  1.0000
  N   N50       1.0  0.27330  0.69449  0.97513  1.0000
  H   H576      1.0  0.43734  0.51392  0.96184  1.0000
  S   S186      1.0  0.36864  0.61111  0.78767  1.0000
  H   H577      1.0  0.35692  0.86301  0.87624  1.0000
  C   C598      1.0  0.38761  0.60533  0.80487  1.0000
  C   C599      1.0  0.41445  0.59000  0.83318  1.0000
  C   C600      1.0  0.40958  0.59714  0.79938  1.0000
  H   H578      1.0  0.39825  0.74824  0.86694  1.0000
  C   C601      1.0  0.46649  0.73760  0.85889  1.0000
  C   C602      1.0  0.36408  0.87990  0.86392  1.0000
  S   S187      1.0  0.42930  0.57712  0.85095  1.0000
  C   C603      1.0  0.47614  0.51474  0.89844  1.0000
  S   S188      1.0  0.40383  0.85176  0.89903  1.0000
  C   C604      1.0  0.37032  0.89691  0.82925  1.0000
  H   H579      1.0  0.09599  0.62182  0.79649  1.0000
  C   C605      1.0  0.40849  0.73869  0.98946  1.0000
  H   H580      1.0  0.12182  0.57158  0.97232  1.0000
  H   H581      1.0  0.08887  0.60287  0.92618  1.0000
  C   C606      1.0  0.41023  0.85439  0.87349  1.0000
  H   H582      1.0  0.13444  0.52423  0.92290  1.0000
  H   H583      1.0  0.27554  0.72902  0.98708  1.0000
  S   S189      1.0  0.45307  0.76150  0.93632  1.0000
  H   H584      1.0  0.41156  0.62742  0.98992  1.0000
  C   C607      1.0  0.11602  0.57097  0.95831  1.0000
  H   H585      1.0  0.43837  0.78735  0.96963  1.0000
  C   C608      1.0  0.25014  0.68087  0.97050  1.0000
  C   C609      1.0  0.45590  0.51532  0.93201  1.0000
  C   C610      1.0  0.30160  0.60184  0.97755  1.0000
  H   H586      1.0  0.45718  0.70931  0.96414  1.0000
  C   C611      1.0  0.47035  0.49635  0.75710  1.0000
  C   C612      1.0  0.25469  0.58417  0.98465  1.0000
  S   S190      1.0  0.34587  0.57278  0.74652  1.0000
  C   C613      1.0  0.47053  0.67920  0.95240  1.0000
  H   H587      1.0  0.42077  0.73877  0.97521  1.0000
  H   H588      1.0  0.23118  0.67918  0.97944  1.0000
  N   N51       1.0  0.00090  0.51777  0.74502  1.0000
  C   C614      1.0  0.36876  0.80191  0.99061  1.0000
  H   H589      1.0  0.45746  0.82688  0.98329  1.0000
  H   H590      1.0  0.09392  0.61982  0.76167  1.0000
  H   H591      1.0  0.38896  0.73978  0.98705  1.0000
  C   C615      1.0  0.42692  0.51291  0.75218  1.0000
  H   H592      1.0  0.47418  0.62373  0.93722  1.0000
  C   C616      1.0  0.48438  0.64351  0.94032  1.0000
  C   C617      1.0  0.45238  0.53152  0.74728  1.0000
  H   H593      1.0  0.42298  0.55739  0.99039  1.0000
  C   C618      1.0  0.65373  0.44696  0.18297  1.0000
  C   C619      1.0  0.52211  0.42673  0.00456  1.0000
  H   H594      1.0  0.57127  0.03116  0.18789  1.0000
  H   H595      1.0  0.49571  0.07886  0.15997  1.0000
  S   S191      1.0  0.72668  0.46259  0.21893  1.0000
  H   H596      1.0  0.61375  0.24892  0.99227  1.0000
  H   H597      1.0  0.68020  0.46601  0.20040  1.0000
  Fe  Fe98      1.0  0.50382  0.11791  0.21263  1.0000
  S   S192      1.0  0.51742  0.41046  0.10189  1.0000
  H   H598      1.0  0.78012  0.43357  0.17562  1.0000
  H   H599      1.0  0.49575  0.16453  0.14636  1.0000
  S   S193      1.0  0.56852  0.27839  0.04594  1.0000
  Fe  Fe99      1.0  0.54218  0.42996  0.07167  1.0000
  S   S194      1.0  0.58059  0.42463  0.05891  1.0000
  S   S195      1.0  0.55993  0.34141  0.06872  1.0000
  Fe  Fe100     1.0  0.70611  0.38076  0.14023  1.0000
  S   S196      1.0  0.71951  0.41450  0.11383  1.0000
  S   S197      1.0  0.72553  0.37707  0.16603  1.0000
  Fe  Fe101     1.0  0.65858  0.35000  0.12618  1.0000
  S   S198      1.0  0.66739  0.38060  0.09871  1.0000
  S   S199      1.0  0.62347  0.31323  0.13136  1.0000
  Fe  Fe102     1.0  0.70945  0.38197  0.09664  1.0000
  S   S200      1.0  0.73278  0.38011  0.06762  1.0000
  Fe  Fe103     1.0  0.67628  0.41029  0.11798  1.0000
  S   S201      1.0  0.65894  0.44378  0.11675  1.0000
  S   S202      1.0  0.69994  0.34846  0.12271  1.0000
  S   S203      1.0  0.66371  0.37936  0.14586  1.0000
  N   N52       1.0  0.61911  0.35712  0.02637  1.0000
  H   H600      1.0  0.64266  0.27533  0.15218  1.0000
  S   S204      1.0  0.54083  0.47105  0.07333  1.0000
  C   C620      1.0  0.61970  0.46539  0.17767  1.0000
  H   H601      1.0  0.49580  0.05657  0.14350  1.0000
  C   C621      1.0  0.83615  0.41504  0.20555  1.0000
  C   C622      1.0  0.75250  0.44493  0.01335  1.0000
  C   C623      1.0  0.53670  0.22801  0.12741  1.0000
  C   C624      1.0  0.61667  0.24297  0.13123  1.0000
  S   S205      1.0  0.55926  0.41785  0.19510  1.0000
  H   H602      1.0  0.66757  0.42737  0.23484  1.0000
  H   H603      1.0  0.56259  0.07240  0.19478  1.0000
  C   C625      1.0  0.57548  0.33310  0.08745  1.0000
  C   C626      1.0  0.58766  0.35256  0.09724  1.0000
  C   C627      1.0  0.60160  0.34618  0.11137  1.0000
  C   C628      1.0  0.60310  0.32032  0.11581  1.0000
  C   C629      1.0  0.58970  0.30054  0.10676  1.0000
  C   C630      1.0  0.57603  0.30702  0.09248  1.0000
  H   H604      1.0  0.58699  0.37274  0.09349  1.0000
  H   H605      1.0  0.61146  0.36142  0.11865  1.0000
  H   H606      1.0  0.59077  0.28054  0.11016  1.0000
  H   H607      1.0  0.56635  0.29199  0.08505  1.0000
  Fe  Fe104     1.0  0.55263  0.28310  0.01853  1.0000
  H   H608      1.0  0.48716  0.23679  0.12401  1.0000
  C   C631      1.0  0.79341  0.42283  0.16962  1.0000
  H   H609      1.0  0.71203  0.36931  0.00358  1.0000
  C   C632      1.0  0.73918  0.45456  0.99998  1.0000
  C   C633      1.0  0.60286  0.43163  0.07448  1.0000
  C   C634      1.0  0.59564  0.43965  0.09198  1.0000
  C   C635      1.0  0.61323  0.44423  0.10470  1.0000
  C   C636      1.0  0.63787  0.44036  0.10007  1.0000
  C   C637      1.0  0.64530  0.43302  0.08234  1.0000
  C   C638      1.0  0.62791  0.42887  0.06949  1.0000
  H   H610      1.0  0.57650  0.44227  0.09574  1.0000
  H   H611      1.0  0.60748  0.45023  0.11826  1.0000
  H   H612      1.0  0.66466  0.43093  0.07839  1.0000
  H   H613      1.0  0.63387  0.42351  0.05571  1.0000
  Fe  Fe105     1.0  0.49868  0.28034  0.04067  1.0000
  C   C639      1.0  0.68920  0.40670  0.03267  1.0000
  C   C640      1.0  0.70105  0.40187  0.04853  1.0000
  C   C641      1.0  0.71683  0.38525  0.04824  1.0000
  C   C642      1.0  0.72083  0.37357  0.03196  1.0000
  C   C643      1.0  0.65039  0.48474  0.19697  1.0000
  H   H614      1.0  0.67706  0.41967  0.03297  1.0000
  H   H615      1.0  0.69844  0.41154  0.06078  1.0000
  H   H616      1.0  0.72570  0.46529  0.00440  1.0000
  H   H617      1.0  0.63767  0.41881  0.15737  1.0000
  C   C644      1.0  0.72379  0.43811  0.20459  1.0000
  C   C645      1.0  0.72576  0.41327  0.21229  1.0000
  C   C646      1.0  0.72514  0.39421  0.20057  1.0000
  C   C647      1.0  0.72265  0.39989  0.18108  1.0000
  C   C648      1.0  0.71971  0.42437  0.17354  1.0000
  C   C649      1.0  0.72038  0.44353  0.18529  1.0000
  N   N53       1.0  0.52516  0.05966  0.16096  1.0000
  H   H618      1.0  0.72665  0.37503  0.20663  1.0000
  H   H619      1.0  0.71797  0.42893  0.15842  1.0000
  H   H620      1.0  0.71943  0.46292  0.17910  1.0000
  H   H621      1.0  0.72791  0.40876  0.22729  1.0000
  S   S206      1.0  0.51454  0.24930  0.03018  1.0000
  H   H622      1.0  0.56113  0.41264  0.15499  1.0000
  S   S207      1.0  0.49728  0.12602  0.18208  1.0000
  N   N54       1.0  0.60891  0.24249  0.15220  1.0000
  S   S208      1.0  0.52057  0.20547  0.16646  1.0000
  H   H623      1.0  0.49733  0.16504  0.11092  1.0000
  C   C650      1.0  0.78228  0.42009  0.02223  1.0000
  C   C651      1.0  0.61983  0.37058  0.04143  1.0000
  C   C652      1.0  0.63187  0.33849  0.02534  1.0000
  C   C653      1.0  0.63292  0.36494  0.05629  1.0000
  C   C654      1.0  0.64509  0.33230  0.04002  1.0000
  C   C655      1.0  0.64545  0.34556  0.05565  1.0000
  H   H624      1.0  0.58762  0.36817  0.01684  1.0000
  C   C656      1.0  0.55835  0.03915  0.18029  1.0000
  H   H625      1.0  0.62890  0.26340  0.12303  1.0000
  H   H626      1.0  0.63337  0.37563  0.06820  1.0000
  H   H627      1.0  0.63374  0.99749  0.23599  1.0000
  H   H628      1.0  0.65579  0.34123  0.06708  1.0000
  S   S209      1.0  0.50813  0.41958  0.05670  1.0000
  H   H629      1.0  0.77930  0.39850  0.02278  1.0000
  C   C657      1.0  0.70902  0.37848  0.01603  1.0000
  H   H630      1.0  0.57955  0.45727  0.01584  1.0000
  H   H631      1.0  0.56019  0.20788  0.19171  1.0000
  H   H632      1.0  0.60981  0.38544  0.04228  1.0000
  C   C658      1.0  0.79722  0.37617  0.21340  1.0000
  H   H633      1.0  0.62932  0.27511  0.18736  1.0000
  C   C659      1.0  0.52903  0.45803  0.14592  1.0000
  H   H634      1.0  0.56903  0.40978  0.02437  1.0000
  H   H635      1.0  0.57424  0.20888  0.15646  1.0000
  H   H636      1.0  0.51823  0.01998  0.23654  1.0000
  S   S210      1.0  0.49971  0.48672  0.03546  1.0000
  C   C660      1.0  0.54654  0.02633  0.16663  1.0000
  H   H637      1.0  0.60587  0.40942  0.17399  1.0000
  Fe  Fe106     1.0  0.52913  0.24660  0.05831  1.0000
  C   C661      1.0  0.60580  0.36380  0.01071  1.0000
  C   C662      1.0  0.50888  0.07146  0.15007  1.0000
  H   H638      1.0  0.77031  0.37563  0.19393  1.0000
  H   H639      1.0  0.52073  0.02677  0.14646  1.0000
  Fe  Fe107     1.0  0.55729  0.43362  0.22298  1.0000
  H   H640      1.0  0.58767  0.24120  0.20743  1.0000
  H   H641      1.0  0.54851  0.24625  0.09655  1.0000
  H   H642      1.0  0.78499  0.35738  0.22302  1.0000
  S   S211      1.0  0.53144  0.09500  0.21860  1.0000
  C   C663      1.0  0.52655  0.46533  0.16419  1.0000
  H   H643      1.0  0.54474  0.43422  0.12835  1.0000
  C   C664      1.0  0.52991  0.03694  0.15701  1.0000
  H   H644      1.0  0.52958  0.34312  0.10869  1.0000
  H   H645      1.0  0.83836  0.44494  0.18084  1.0000
  H   H646      1.0  0.78188  0.40718  0.16273  1.0000
  S   S212      1.0  0.59085  0.43967  0.23873  1.0000
  C   C665      1.0  0.78891  0.38673  0.19708  1.0000
  C   C666      1.0  0.50608  0.38015  0.02037  1.0000
  C   C667      1.0  0.62848  0.48448  0.18880  1.0000
  S   S213      1.0  0.55242  0.47357  0.22431  1.0000
  S   S214      1.0  0.78546  0.43781  0.22497  1.0000
  S   S215      1.0  0.52300  0.20615  0.07649  1.0000
  C   C668      1.0  0.53703  0.22851  0.10741  1.0000
  Fe  Fe108     1.0  0.54696  0.30634  0.05494  1.0000
  C   C669      1.0  0.53587  0.45315  0.17929  1.0000
  C   C670      1.0  0.54196  0.43937  0.14256  1.0000
  C   C671      1.0  0.52281  0.20584  0.10144  1.0000
  H   H647      1.0  0.53371  0.36632  0.03462  1.0000
  C   C672      1.0  0.55140  0.42727  0.15766  1.0000
  C   C673      1.0  0.54811  0.43392  0.17616  1.0000
  N   N55       1.0  0.80373  0.41102  0.18547  1.0000
  H   H648      1.0  0.61406  0.43446  0.15172  1.0000
  H   H649      1.0  0.49819  0.32501  0.05385  1.0000
  H   H650      1.0  0.55740  0.47184  0.00569  1.0000
  C   C674      1.0  0.69315  0.39504  0.01641  1.0000
  H   H651      1.0  0.60257  0.46519  0.17143  1.0000
  N   N56       1.0  0.54565  0.42942  0.01023  1.0000
  Fe  Fe109     1.0  0.49829  0.16651  0.18761  1.0000
  H   H652      1.0  0.59892  0.23720  0.12470  1.0000
  Fe  Fe110     1.0  0.50474  0.45920  0.06069  1.0000
  C   C675      1.0  0.53676  0.07238  0.17430  1.0000
  S   S216      1.0  0.51374  0.47073  0.12830  1.0000
  H   H653      1.0  0.54793  0.24550  0.13198  1.0000
  H   H654      1.0  0.62811  0.22901  0.12909  1.0000
  C   C676      1.0  0.62464  0.26035  0.16084  1.0000
  H   H655      1.0  0.82742  0.38274  0.23043  1.0000
  H   H656      1.0  0.49845  0.44039  0.22521  1.0000
  N   N57       1.0  0.63236  0.44703  0.17484  1.0000
  C   C677      1.0  0.50753  0.18229  0.13556  1.0000
  S   S217      1.0  0.50909  0.15965  0.21694  1.0000
  H   H657      1.0  0.55021  0.00822  0.16363  1.0000
  C   C678      1.0  0.61723  0.26027  0.18079  1.0000
  C   C679      1.0  0.62196  0.42636  0.16402  1.0000
  C   C680      1.0  0.58645  0.22338  0.16321  1.0000
  Fe  Fe111     1.0  0.81878  0.47194  0.22815  1.0000
  H   H658      1.0  0.61946  0.38156  0.99980  1.0000
  N   N58       1.0  0.76838  0.43013  0.00814  1.0000
  C   C681      1.0  0.50834  0.18262  0.11551  1.0000
  S   S218      1.0  0.85667  0.48356  0.20578  1.0000
  C   C682      1.0  0.53040  0.38292  0.02570  1.0000
  H   H659      1.0  0.85432  0.42673  0.20898  1.0000
  S   S219      1.0  0.53523  0.31427  0.02635  1.0000
  S   S220      1.0  0.50933  0.27429  0.06990  1.0000
  H   H660      1.0  0.66368  0.43230  0.18079  1.0000
  C   C683      1.0  0.56630  0.45553  0.00518  1.0000
  C   C684      1.0  0.57851  0.22260  0.18322  1.0000
  C   C685      1.0  0.59391  0.24132  0.19200  1.0000
  C   C686      1.0  0.82101  0.39045  0.21761  1.0000
  H   H661      1.0  0.51882  0.44369  0.99613  1.0000
  C   C687      1.0  0.55347  0.06230  0.18417  1.0000
  C   C688      1.0  0.55024  0.40775  0.02015  1.0000
  H   H662      1.0  0.53273  0.45807  0.19349  1.0000
  C   C689      1.0  0.50194  0.40212  0.00965  1.0000
  C   C690      1.0  0.52163  0.20503  0.14151  1.0000
  H   H663      1.0  0.52172  0.08841  0.13817  1.0000
  H   H664      1.0  0.77455  0.42181  0.03742  1.0000
  H   H665      1.0  0.63196  0.32843  0.01307  1.0000
  H   H666      1.0  0.74934  0.44865  0.02812  1.0000
  C   C691      1.0  0.50459  0.27886  0.12348  1.0000
  Fe  Fe112     1.0  0.75953  0.46134  0.23481  1.0000
  H   H667      1.0  0.53313  0.09045  0.17742  1.0000
  H   H668      1.0  0.73298  0.36063  0.03171  1.0000
  C   C692      1.0  0.82705  0.42521  0.18955  1.0000
  C   C693      1.0  0.66313  0.46589  0.19409  1.0000
  H   H669      1.0  0.65528  0.31764  0.03915  1.0000
  Fe  Fe113     1.0  0.51326  0.45101  0.10232  1.0000
  H   H670      1.0  0.80963  0.43710  0.15785  1.0000
  H   H671      1.0  0.80374  0.43140  0.01803  1.0000
  H   H672      1.0  0.49317  0.32613  0.99862  1.0000
  H   H673      1.0  0.49031  0.36117  0.02467  1.0000
  N   N59       1.0  0.50247  0.30387  0.11898  1.0000
  H   H674      1.0  0.49406  0.35799  0.07408  1.0000
  H   H675      1.0  0.53993  0.32218  0.12587  1.0000
  H   H676      1.0  0.51381  0.33504  0.13446  1.0000
  H   H677      1.0  0.59974  0.34695  0.00307  1.0000
  S   S221      1.0  0.67830  0.40198  0.99675  1.0000
  C   C694      1.0  0.52238  0.32715  0.12224  1.0000
  H   H678      1.0  0.48816  0.40712  0.17769  1.0000
  C   C695      1.0  0.48534  0.25660  0.12063  1.0000
  H   H679      1.0  0.51655  0.47975  0.16688  1.0000
  H   H680      1.0  0.52128  0.27598  0.12918  1.0000
  H   H681      1.0  0.48518  0.36868  0.16122  1.0000
  H   H682      1.0  0.55868  0.06628  0.24049  1.0000
  C   C696      1.0  0.48687  0.47740  0.00059  1.0000
  H   H683      1.0  0.68450  0.47642  0.24158  1.0000
  S   S222      1.0  0.86428  0.11446  0.44732  1.0000
  C   C697      1.0  0.96478  0.23942  0.48461  1.0000
  H   H684      1.0  0.64044  0.03197  0.38534  1.0000
  S   S223      1.0  0.80142  0.05371  0.39052  1.0000
  S   S224      1.0  0.95991  0.21655  0.43189  1.0000
  H   H685      1.0  0.49045  0.01389  0.28848  1.0000
  H   H686      1.0  0.90954  0.23522  0.33753  1.0000
  C   C698      1.0  0.91588  0.47121  0.33248  1.0000
  C   C699      1.0  0.67918  0.99911  0.31091  1.0000
  Fe  Fe114     1.0  0.78900  0.47681  0.26658  1.0000
  H   H687      1.0  0.85993  0.39258  0.28712  1.0000
  C   C700      1.0  0.94361  0.35666  0.38655  1.0000
  C   C701      1.0  0.90362  0.25863  0.39804  1.0000
  C   C702      1.0  0.52995  0.38663  0.31064  1.0000
  C   C703      1.0  0.64193  0.01543  0.37855  1.0000
  H   H688      1.0  0.68508  0.42609  0.25447  1.0000
  S   S225      1.0  0.91299  0.21755  0.48190  1.0000
  H   H689      1.0  0.82005  0.18198  0.46594  1.0000
  H   H690      1.0  0.92800  0.32790  0.41387  1.0000
  Fe  Fe115     1.0  0.58398  0.47843  0.24172  1.0000
  C   C704      1.0  0.77413  0.39300  0.31504  1.0000
  H   H691      1.0  0.63821  0.03441  0.30081  1.0000
  H   H692      1.0  0.65269  0.40242  0.25700  1.0000
  H   H693      1.0  0.92264  0.45455  0.33005  1.0000
  C   C705      1.0  0.65490  0.06326  0.32699  1.0000
  Fe  Fe116     1.0  0.93759  0.39607  0.32159  1.0000
  H   H694      1.0  0.94598  0.28042  0.35352  1.0000
  C   C706      1.0  0.89066  0.27796  0.39676  1.0000
  H   H695      1.0  0.48851  0.36021  0.28077  1.0000
  H   H696      1.0  0.51465  0.41456  0.29493  1.0000
  C   C707      1.0  0.79608  0.42621  0.33108  1.0000
  S   S226      1.0  0.52155  0.06069  0.30948  1.0000
  C   C708      1.0  0.85996  0.25816  0.35542  1.0000
  H   H697      1.0  0.98366  0.35378  0.33307  1.0000
  C   C709      1.0  0.54549  0.07231  0.25073  1.0000
  S   S227      1.0  0.53263  0.00608  0.34617  1.0000
  N   N60       1.0  0.81821  0.14126  0.47375  1.0000
  C   C710      1.0  0.82775  0.12354  0.48385  1.0000
  H   H698      1.0  0.81188  0.43425  0.33844  1.0000
  C   C711      1.0  0.52624  0.07228  0.28423  1.0000
  C   C712      1.0  0.51146  0.08787  0.27728  1.0000
  C   C713      1.0  0.89788  0.26624  0.32166  1.0000
  C   C714      1.0  0.66625  0.46920  0.25268  1.0000
  H   H699      1.0  0.55510  0.05289  0.27628  1.0000
  C   C715      1.0  0.52485  0.36683  0.32744  1.0000
  H   H700      1.0  0.89803  0.24305  0.41103  1.0000
  S   S228      1.0  0.87046  0.34239  0.28761  1.0000
  H   H701      1.0  0.80617  0.36811  0.32522  1.0000
  S   S229      1.0  0.81747  0.45463  0.25932  1.0000
  S   S230      1.0  0.89495  0.19311  0.43534  1.0000
  C   C716      1.0  0.80209  0.36951  0.27209  1.0000
  C   C717      1.0  0.82412  0.33583  0.27512  1.0000
  C   C718      1.0  0.80272  0.34380  0.27087  1.0000
  H   H702      1.0  0.82451  0.31593  0.27409  1.0000
  C   C719      1.0  0.69011  0.01250  0.32467  1.0000
  S   S231      1.0  0.86202  0.36381  0.33644  1.0000
  C   C720      1.0  0.88137  0.47826  0.27874  1.0000
  H   H703      1.0  0.62044  0.41201  0.27849  1.0000
  S   S232      1.0  0.60125  0.02229  0.36191  1.0000
  H   H704      1.0  0.92369  0.31479  0.35158  1.0000
  C   C721      1.0  0.50105  0.35975  0.34136  1.0000
  H   H705      1.0  0.50178  0.10721  0.25179  1.0000
  H   H706      1.0  0.48953  0.03792  0.34843  1.0000
  H   H707      1.0  0.66844  0.08241  0.31768  1.0000
  Fe  Fe117     1.0  0.52442  0.45228  0.25298  1.0000
  H   H708      1.0  0.68973  0.04322  0.34103  1.0000
  N   N61       1.0  0.86191  0.27713  0.33942  1.0000
  Fe  Fe118     1.0  0.88619  0.40667  0.33263  1.0000
  H   H709      1.0  0.70425  0.00607  0.33185  1.0000
  S   S233      1.0  0.92469  0.15856  0.46024  1.0000
  C   C722      1.0  0.91782  0.29916  0.36445  1.0000
  H   H710      1.0  0.85605  0.19869  0.48327  1.0000
  H   H711      1.0  0.87565  0.22795  0.36771  1.0000
  H   H712      1.0  0.82239  0.40690  0.27906  1.0000
  C   C723      1.0  0.94244  0.33424  0.40008  1.0000
  H   H713      1.0  0.74139  0.39919  0.30329  1.0000
  Fe  Fe119     1.0  0.55942  0.42279  0.26636  1.0000
  S   S234      1.0  0.88082  0.32194  0.37865  1.0000
  S   S235      1.0  0.86576  0.43722  0.33638  1.0000
  H   H714      1.0  0.77246  0.37471  0.30966  1.0000
  C   C724      1.0  0.86671  0.04900  0.44443  1.0000
  C   C725      1.0  0.73626  0.02895  0.46560  1.0000
  C   C726      1.0  0.74897  0.05103  0.47301  1.0000
  H   H715      1.0  0.93012  0.36783  0.38979  1.0000
  Fe  Fe120     1.0  0.89939  0.15233  0.43793  1.0000
  H   H716      1.0  0.73746  0.03084  0.44998  1.0000
  H   H717      1.0  0.75995  0.06984  0.46306  1.0000
  C   C727      1.0  0.84557  0.09998  0.43118  1.0000
  C   C728      1.0  0.82201  0.07873  0.43905  1.0000
  C   C729      1.0  0.80773  0.06502  0.42668  1.0000
  C   C730      1.0  0.81706  0.07240  0.40634  1.0000
  C   C731      1.0  0.84026  0.09406  0.39846  1.0000
  C   C732      1.0  0.85451  0.10786  0.41084  1.0000
  H   H718      1.0  0.81506  0.07242  0.45480  1.0000
  H   H719      1.0  0.78982  0.04842  0.43288  1.0000
  H   H720      1.0  0.84755  0.09979  0.38272  1.0000
  H   H721      1.0  0.87272  0.12413  0.40467  1.0000
  N   N62       1.0  0.48649  0.02019  0.25867  1.0000
  C   C733      1.0  0.81267  0.38874  0.32792  1.0000
  H   H722      1.0  0.84569  0.25541  0.36887  1.0000
  C   C734      1.0  0.88055  0.28130  0.32266  1.0000
  S   S236      1.0  0.58488  0.03719  0.31085  1.0000
  H   H723      1.0  0.84788  0.30809  0.32679  1.0000
  C   C735      1.0  0.51339  0.09533  0.25706  1.0000
  Fe  Fe121     1.0  0.93190  0.20612  0.41169  1.0000
  C   C736      1.0  0.75871  0.43065  0.31784  1.0000
  C   C737      1.0  0.84948  0.03367  0.47929  1.0000
  H   H724      1.0  0.60157  0.44392  0.29230  1.0000
  C   C738      1.0  0.48745  0.39271  0.32213  1.0000
  Fe  Fe122     1.0  0.95922  0.17390  0.43463  1.0000
  S   S237      1.0  0.93890  0.23459  0.38282  1.0000
  Fe  Fe123     1.0  0.92316  0.20030  0.45563  1.0000
  C   C739      1.0  0.75639  0.40676  0.31142  1.0000
  H   H725      1.0  0.91285  0.26983  0.30845  1.0000
  H   H726      1.0  0.87518  0.27719  0.40885  1.0000
  N   N63       1.0  0.84679  0.02891  0.44088  1.0000
  C   C740      1.0  0.51119  0.39962  0.30800  1.0000
  S   S238      1.0  0.72468  0.01449  0.41177  1.0000
  H   H727      1.0  0.96998  0.24132  0.46889  1.0000
  Fe  Fe124     1.0  0.57582  0.00986  0.34026  1.0000
  H   H728      1.0  0.93941  0.46811  0.27036  1.0000
  Fe  Fe125     1.0  0.88908  0.36537  0.30853  1.0000
  C   C741      1.0  0.82782  0.16794  0.47372  1.0000
  H   H729      1.0  0.53915  0.35665  0.32959  1.0000
  C   C742      1.0  0.54345  0.06471  0.27096  1.0000
  H   H730      1.0  0.67552  0.01169  0.39041  1.0000
  C   C743      1.0  0.86831  0.49365  0.28810  1.0000
  C   C744      1.0  0.82824  0.01105  0.45615  1.0000
  H   H731      1.0  0.90881  0.44924  0.26535  1.0000
  H   H732      1.0  0.49709  0.34407  0.35414  1.0000
  H   H733      1.0  0.82296  0.27934  0.34244  1.0000
  S   S239      1.0  0.55943  0.39421  0.29287  1.0000
  H   H734      1.0  0.88222  0.29646  0.30997  1.0000
  Fe  Fe126     1.0  0.89280  0.35417  0.35127  1.0000
  H   H735      1.0  0.52276  0.01287  0.26099  1.0000
  C   C745      1.0  0.82929  0.01318  0.47558  1.0000
  Fe  Fe127     1.0  0.76717  0.01592  0.40361  1.0000
  C   C746      1.0  0.93060  0.27974  0.36564  1.0000
  Fe  Fe128     1.0  0.78192  0.42240  0.25680  1.0000
  C   C747      1.0  0.84465  0.35329  0.28117  1.0000
  Fe  Fe129     1.0  0.54126  0.02979  0.31561  1.0000
  S   S240      1.0  0.93411  0.16444  0.41248  1.0000
  H   H736      1.0  0.82015  0.10240  0.48387  1.0000
  H   H737      1.0  0.83196  0.39993  0.31778  1.0000
  C   C748      1.0  0.77859  0.44040  0.32781  1.0000
  C   C749      1.0  0.92342  0.25933  0.38237  1.0000
  C   C750      1.0  0.89591  0.24672  0.33788  1.0000
  S   S241      1.0  0.77464  0.37855  0.26708  1.0000
  H   H738      1.0  0.65480  0.06373  0.34273  1.0000
  H   H739      1.0  0.96730  0.44783  0.29065  1.0000
  C   C751      1.0  0.50772  0.00963  0.25181  1.0000
  C   C752      1.0  0.87678  0.24255  0.35485  1.0000
  C   C753      1.0  0.65268  0.02830  0.30771  1.0000
  H   H740      1.0  0.77742  0.12709  0.47352  1.0000
  S   S242      1.0  0.91424  0.39710  0.35057  1.0000
  H   H741      1.0  0.84516  0.30311  0.35291  1.0000
  S   S243      1.0  0.91126  0.40913  0.30339  1.0000
  H   H742      1.0  0.49816  0.09380  0.28750  1.0000
  C   C754      1.0  0.89763  0.29820  0.37992  1.0000
  C   C755      1.0  0.68172  0.03347  0.32988  1.0000
  N   N64       1.0  0.66299  0.04088  0.32160  1.0000
  S   S244      1.0  0.75282  0.44289  0.26663  1.0000
  H   H743      1.0  0.81569  0.38752  0.34322  1.0000
  S   S245      1.0  0.91807  0.35237  0.32352  1.0000
  C   C756      1.0  0.84359  0.29270  0.34041  1.0000
  C   C757      1.0  0.84807  0.17751  0.48352  1.0000
  S   S246      1.0  0.55539  0.46213  0.27077  1.0000
  H   H744      1.0  0.85618  0.04486  0.40997  1.0000
  C   C758      1.0  0.82289  0.38720  0.27778  1.0000
  C   C759      1.0  0.79692  0.13149  0.46351  1.0000
  C   C760      1.0  0.84403  0.37899  0.28253  1.0000
  S   S247      1.0  0.52676  0.41196  0.25031  1.0000
  C   C761      1.0  0.84594  0.02567  0.42067  1.0000
  H   H745      1.0  0.74566  0.44208  0.31462  1.0000
  N   N65       1.0  0.79354  0.40272  0.32485  1.0000
  H   H746      1.0  0.85539  0.01061  0.41702  1.0000
  N   N66       1.0  0.65366  0.44236  0.25923  1.0000
  C   C762      1.0  0.61985  0.45125  0.28121  1.0000
  H   H747      1.0  0.78098  0.45936  0.33235  1.0000
  Fe  Fe130     1.0  0.57605  0.99953  0.29913  1.0000
  C   C763      1.0  0.51276  0.47578  0.31373  1.0000
  C   C764      1.0  0.88885  0.46811  0.33604  1.0000
  H   H748      1.0  0.63430  0.06111  0.32536  1.0000
  H   H749      1.0  0.88115  0.06353  0.43238  1.0000
  H   H750      1.0  0.86981  0.46110  0.27394  1.0000
  C   C765      1.0  0.66042  0.00709  0.30229  1.0000
  H   H751      1.0  0.88354  0.06832  0.46636  1.0000
  C   C766      1.0  0.92198  0.46984  0.26441  1.0000
  N   N67       1.0  0.90836  0.48502  0.27539  1.0000
  C   C767      1.0  0.96154  0.36392  0.36848  1.0000
  C   C768      1.0  0.95914  0.31939  0.39542  1.0000
  H   H752      1.0  0.82520  0.01922  0.41867  1.0000
  C   C769      1.0  0.88029  0.48984  0.33912  1.0000
  H   H753      1.0  0.52628  0.46467  0.31626  1.0000
  S   S248      1.0  0.79097  0.49451  0.29349  1.0000
  H   H754      1.0  0.79866  0.14623  0.45010  1.0000
  C   C770      1.0  0.72161  0.00472  0.47844  1.0000
  C   C771      1.0  0.86822  0.05181  0.46366  1.0000
  H   H755      1.0  0.79777  0.11280  0.45871  1.0000
  C   C772      1.0  0.63072  0.43326  0.27333  1.0000
  H   H756      1.0  0.95777  0.30140  0.40558  1.0000
  H   H757      1.0  0.84692  0.48832  0.29076  1.0000
  H   H758      1.0  0.96217  0.38121  0.35793  1.0000
  H   H759      1.0  0.50849  0.47253  0.36645  1.0000
  H   H760      1.0  0.78664  0.32999  0.26656  1.0000
  C   C773      1.0  0.49047  0.46460  0.30650  1.0000
  C   C774      1.0  0.62432  0.00591  0.36664  1.0000
  C   C775      1.0  0.66174  0.00392  0.38149  1.0000
  C   C776      1.0  0.49633  0.48533  0.36487  1.0000
  C   C777      1.0  0.97673  0.32713  0.37716  1.0000
  S   S249      1.0  0.98164  0.40981  0.31767  1.0000
  C   C778      1.0  0.53020  0.08731  0.24380  1.0000
  H   H761      1.0  0.85938  0.48749  0.34189  1.0000
  H   H762      1.0  0.92882  0.48020  0.24873  1.0000
  C   C779      1.0  0.63247  0.47863  0.27452  1.0000
  H   H763      1.0  0.81460  0.99913  0.48776  1.0000
  H   H764      1.0  0.48687  0.44507  0.30291  1.0000
  N   N68       1.0  0.97776  0.34920  0.36399  1.0000
  C   C780      1.0  0.65580  0.48771  0.26016  1.0000
  C   C781      1.0  0.66519  0.42353  0.25106  1.0000
  H   H765      1.0  0.62413  0.49282  0.28034  1.0000
  S   S250      1.0  0.60518  0.99652  0.27379  1.0000
  H   H766      1.0  0.65171  0.99689  0.29155  1.0000
  H   H767      1.0  0.81249  0.99510  0.45334  1.0000
  C   C782      1.0  0.96890  0.32577  0.63417  1.0000
  S   S251      1.0  0.95130  0.23627  0.57938  1.0000
  S   S252      1.0  0.92366  0.15958  0.60474  1.0000
  C   C783      1.0  0.83043  0.12382  0.61499  1.0000
  H   H768      1.0  0.92822  0.41527  0.71929  1.0000
  H   H769      1.0  0.88779  0.10875  0.60311  1.0000
  S   S253      1.0  0.97962  0.36888  0.68922  1.0000
  N   N69       1.0  0.67597  0.02095  0.55924  1.0000
  Fe  Fe131     1.0  0.82972  0.08393  0.54496  1.0000
  S   S254      1.0  0.78865  0.08641  0.55077  1.0000
  S   S255      1.0  0.86302  0.12276  0.53920  1.0000
  Fe  Fe132     1.0  0.81075  0.02555  0.54113  1.0000
  H   H770      1.0  0.93083  0.47192  0.70065  1.0000
  C   C784      1.0  0.52701  0.14331  0.68354  1.0000
  Fe  Fe133     1.0  0.78195  0.06340  0.52705  1.0000
  C   C785      1.0  0.50916  0.06932  0.63834  1.0000
  Fe  Fe134     1.0  0.77817  0.04610  0.57024  1.0000
  C   C786      1.0  0.73349  0.02421  0.50596  1.0000
  S   S256      1.0  0.82385  0.06426  0.51941  1.0000
  S   S257      1.0  0.82017  0.04519  0.56644  1.0000
  S   S258      1.0  0.92254  0.39788  0.68246  1.0000
  H   H771      1.0  0.54779  0.49193  0.68535  1.0000
  C   C787      1.0  0.89354  0.42619  0.72846  1.0000
  H   H772      1.0  0.84905  0.17689  0.56717  1.0000
  S   S259      1.0  0.75050  0.03623  0.59971  1.0000
  H   H773      1.0  0.85694  0.11863  0.50042  1.0000
  H   H774      1.0  0.86111  0.15174  0.62474  1.0000
  C   C788      1.0  0.86327  0.42258  0.70637  1.0000
  H   H775      1.0  0.62771  0.00322  0.60029  1.0000
  H   H776      1.0  0.50185  0.10688  0.63138  1.0000
  C   C789      1.0  0.64555  0.00367  0.59048  1.0000
  Fe  Fe135     1.0  0.59897  0.08823  0.65808  1.0000
  S   S260      1.0  0.58750  0.08176  0.62955  1.0000
  S   S261      1.0  0.60471  0.12561  0.66996  1.0000
  Fe  Fe136     1.0  0.59976  0.03181  0.66990  1.0000
  H   H777      1.0  0.94104  0.32835  0.59612  1.0000
  C   C790      1.0  0.85644  0.16770  0.59614  1.0000
  Fe  Fe137     1.0  0.61803  0.06056  0.62728  1.0000
  S   S262      1.0  0.64616  0.06706  0.59840  1.0000
  Fe  Fe138     1.0  0.55980  0.04235  0.64727  1.0000
  S   S263      1.0  0.63153  0.07005  0.65459  1.0000
  S   S264      1.0  0.56848  0.05088  0.67605  1.0000
  C   C791      1.0  0.57527  0.13346  0.67416  1.0000
  C   C792      1.0  0.57249  0.15095  0.68668  1.0000
  H   H778      1.0  0.58897  0.16061  0.69282  1.0000
  C   C793      1.0  0.93000  0.48905  0.69076  1.0000
  H   H779      1.0  0.98145  0.24822  0.65027  1.0000
  H   H780      1.0  0.71083  0.00954  0.55610  1.0000
  C   C794      1.0  0.54113  0.08686  0.72916  1.0000
  C   C795      1.0  0.84338  0.16243  0.58091  1.0000
  C   C796      1.0  0.97914  0.30532  0.55138  1.0000
  C   C797      1.0  0.87002  0.42880  0.72381  1.0000
  H   H781      1.0  0.49745  0.06773  0.67899  1.0000
  C   C798      1.0  0.53010  0.12660  0.67045  1.0000
  C   C799      1.0  0.96346  0.31449  0.56467  1.0000
  C   C800      1.0  0.85006  0.14826  0.61326  1.0000
  Fe  Fe139     1.0  0.95637  0.19905  0.59514  1.0000
  S   S265      1.0  0.60626  0.00262  0.69328  1.0000
  H   H782      1.0  0.53655  0.49388  0.66237  1.0000
  H   H783      1.0  0.48858  0.00527  0.71268  1.0000
  S   S266      1.0  0.51736  0.02090  0.64741  1.0000
  H   H784      1.0  0.85055  0.03548  0.49429  1.0000
  H   H785      1.0  0.78158  0.09489  0.59413  1.0000
  C   C801      1.0  0.90326  0.41081  0.69824  1.0000
  C   C802      1.0  0.87971  0.41335  0.69372  1.0000
  H   H786      1.0  0.73229  0.02232  0.52150  1.0000
  C   C803      1.0  0.95146  0.23492  0.52528  1.0000
  H   H787      1.0  0.87411  0.40812  0.68040  1.0000
  C   C804      1.0  0.72265  0.04708  0.59980  1.0000
  C   C805      1.0  0.70321  0.04065  0.61707  1.0000
  C   C806      1.0  0.68006  0.04770  0.61704  1.0000
  C   C807      1.0  0.67637  0.06130  0.59972  1.0000
  C   C808      1.0  0.69617  0.06840  0.58262  1.0000
  C   C809      1.0  0.71917  0.06120  0.58262  1.0000
  Fe  Fe140     1.0  0.48797  0.15358  0.72102  1.0000
  H   H788      1.0  0.66481  0.04199  0.63028  1.0000
  H   H789      1.0  0.69338  0.07893  0.56920  1.0000
  H   H790      1.0  0.73383  0.06602  0.56918  1.0000
  H   H791      1.0  0.91809  0.34851  0.71387  1.0000
  C   C810      1.0  0.54825  0.15558  0.69159  1.0000
  H   H792      1.0  0.81465  0.13338  0.57088  1.0000
  C   C811      1.0  0.82395  0.13773  0.58309  1.0000
  H   H793      1.0  0.80699  0.07933  0.59550  1.0000
  C   C812      1.0  0.90856  0.14839  0.58595  1.0000
  C   C813      1.0  0.91264  0.16586  0.56810  1.0000
  C   C814      1.0  0.89897  0.15741  0.55369  1.0000
  C   C815      1.0  0.88103  0.13155  0.55713  1.0000
  C   C816      1.0  0.87712  0.11388  0.57488  1.0000
  C   C817      1.0  0.89097  0.12231  0.58928  1.0000
  H   H794      1.0  0.92581  0.18609  0.56559  1.0000
  H   H795      1.0  0.90191  0.17111  0.53998  1.0000
  H   H796      1.0  0.86337  0.09386  0.57756  1.0000
  Fe  Fe141     1.0  0.96441  0.40381  0.68551  1.0000
  H   H797      1.0  0.97734  0.16118  0.54347  1.0000
  C   C818      1.0  0.69234  0.00777  0.56561  1.0000
  C   C819      1.0  0.68369  0.03745  0.53936  1.0000
  H   H798      1.0  0.53043  0.07827  0.63497  1.0000
  C   C820      1.0  0.79755  0.09298  0.60187  1.0000
  C   C821      1.0  0.60435  0.07125  0.71658  1.0000
  C   C822      1.0  0.49255  0.48403  0.68983  1.0000
  H   H799      1.0  0.91116  0.21830  0.52244  1.0000
  S   S267      1.0  0.58914  0.02040  0.64229  1.0000
  N   N70       1.0  0.57752  0.06927  0.72622  1.0000
  C   C823      1.0  0.98453  0.24857  0.49505  1.0000
  C   C824      1.0  0.55765  0.99508  0.71678  1.0000
  H   H800      1.0  0.95004  0.35870  0.57762  1.0000
  C   C825      1.0  0.56687  0.08868  0.72038  1.0000
  H   H801      1.0  0.61876  0.08011  0.72526  1.0000
  S   S268      1.0  0.49700  0.44201  0.73682  1.0000
  C   C826      1.0  0.93167  0.22652  0.51479  1.0000
  C   C827      1.0  0.95787  0.34502  0.58650  1.0000
  H   H802      1.0  0.97303  0.28091  0.66994  1.0000
  N   N71       1.0  0.81739  0.11901  0.60012  1.0000
  H   H803      1.0  0.90498  0.48167  0.72659  1.0000
  S   S269      1.0  0.76378  0.07611  0.50244  1.0000
  C   C828      1.0  0.49296  0.08548  0.63638  1.0000
  S   S270      1.0  0.49091  0.36755  0.73322  1.0000
  H   H804      1.0  0.57835  0.10576  0.70893  1.0000
  H   H805      1.0  0.70579  0.02973  0.63041  1.0000
  H   H806      1.0  0.96884  0.35597  0.59643  1.0000
  H   H807      1.0  0.82609  0.10854  0.62813  1.0000
  C   C829      1.0  0.94318  0.49448  0.67114  1.0000
  H   H808      1.0  0.51394  0.11761  0.66383  1.0000
  H   H809      1.0  0.94608  0.23293  0.54092  1.0000
  H   H810      1.0  0.67217  0.05154  0.53759  1.0000
  C   C830      1.0  0.65258  0.01869  0.57129  1.0000
  H   H811      1.0  0.84506  0.42449  0.70278  1.0000
  C   C831      1.0  0.93130  0.36210  0.73895  1.0000
  H   H812      1.0  0.78770  0.08350  0.61742  1.0000
  H   H813      1.0  0.55127  0.00095  0.70355  1.0000
  S   S271      1.0  0.76803  0.02303  0.54689  1.0000
  C   C832      1.0  0.91031  0.41751  0.71554  1.0000
  H   H814      1.0  0.51003  0.03033  0.69216  1.0000
  H   H815      1.0  0.87246  0.34872  0.72499  1.0000
  H   H816      1.0  0.70491  0.04986  0.53611  1.0000
  C   C833      1.0  0.55403  0.12118  0.66610  1.0000
  H   H817      1.0  0.96350  0.18812  0.54051  1.0000
  H   H818      1.0  0.55616  0.10779  0.65634  1.0000
  H   H819      1.0  0.54623  0.16915  0.70120  1.0000
  S   S272      1.0  0.97517  0.21898  0.61744  1.0000
  H   H820      1.0  0.87235  0.18630  0.59435  1.0000
  Fe  Fe142     1.0  0.97361  0.25681  0.59994  1.0000
  C   C834      1.0  0.96796  0.17207  0.53368  1.0000
  H   H821      1.0  0.94771  0.32029  0.63938  1.0000
  S   S273      1.0  0.51698  0.16412  0.74025  1.0000
  C   C835      1.0  0.85847  0.15961  0.49332  1.0000
  C   C836      1.0  0.49777  0.04162  0.64440  1.0000
  S   S274      1.0  0.95735  0.28488  0.61478  1.0000
  S   S275      1.0  0.49635  0.14823  0.68999  1.0000
  H   H822      1.0  0.97757  0.35787  0.64982  1.0000
  H   H823      1.0  0.94898  0.15763  0.53265  1.0000
  C   C837      1.0  0.97794  0.24597  0.51545  1.0000
  H   H824      1.0  0.61020  0.08384  0.70150  1.0000
  C   C838      1.0  0.93830  0.22841  0.49450  1.0000
  H   H825      1.0  0.94215  0.30522  0.56797  1.0000
  H   H826      1.0  0.87439  0.16665  0.50082  1.0000
  H   H827      1.0  0.97017  0.28924  0.54436  1.0000
  C   C839      1.0  0.97928  0.31142  0.62175  1.0000
  H   H828      1.0  0.53274  0.10229  0.72437  1.0000
  H   H829      1.0  0.63978  0.02957  0.56652  1.0000
  H   H830      1.0  0.68057  0.02454  0.52839  1.0000
  H   H831      1.0  0.95404  0.48169  0.66599  1.0000
  C   C840      1.0  0.74774  0.04859  0.49320  1.0000
  S   S276      1.0  0.98235  0.42172  0.70885  1.0000
  H   H832      1.0  0.49335  0.46525  0.68612  1.0000
  C   C841      1.0  0.88665  0.35409  0.73417  1.0000
  C   C842      1.0  0.72007  0.00240  0.49864  1.0000
  S   S277      1.0  0.84850  0.43928  0.73970  1.0000
  H   H833      1.0  0.95620  0.16890  0.49833  1.0000
  H   H834      1.0  0.49162  0.49257  0.64003  1.0000
  C   C843      1.0  0.84844  0.13252  0.49334  1.0000
  H   H835      1.0  0.49037  0.17272  0.65054  1.0000
  C   C844      1.0  0.91250  0.35399  0.72776  1.0000
  N   N72       1.0  0.97481  0.33465  0.57357  1.0000
  C   C845      1.0  0.48909  0.01836  0.69873  1.0000
  H   H836      1.0  0.60561  0.05122  0.71495  1.0000
  S   S278      1.0  0.56774  0.49053  0.72163  1.0000
  H   H837      1.0  0.95145  0.36232  0.73408  1.0000
  C   C846      1.0  0.97661  0.18037  0.49762  1.0000
  H   H838      1.0  0.52115  0.31873  0.73796  1.0000
  H   H839      1.0  0.97336  0.48811  0.82382  1.0000
  S   S279      1.0  0.88123  0.44999  0.81808  1.0000
  C   C847      1.0  0.61283  0.42636  0.91323  1.0000
  Fe  Fe143     1.0  0.85976  0.44323  0.76857  1.0000
  S   S280      1.0  0.85911  0.40786  0.79012  1.0000
  S   S281      1.0  0.58814  0.24092  0.87610  1.0000
  Fe  Fe144     1.0  0.84191  0.42685  0.81290  1.0000
  S   S282      1.0  0.80694  0.39907  0.83558  1.0000
  Fe  Fe145     1.0  0.89821  0.43370  0.79333  1.0000
  S   S283      1.0  0.93268  0.41808  0.79054  1.0000
  S   S284      1.0  0.83876  0.46012  0.79089  1.0000
  H   H840      1.0  0.55071  0.14700  0.76419  1.0000
  S   S285      1.0  0.53299  0.40595  0.81134  1.0000
  Fe  Fe146     1.0  0.52504  0.41718  0.94741  1.0000
  C   C848      1.0  0.50977  0.34486  0.87916  1.0000
  C   C849      1.0  0.89819  0.37027  0.76223  1.0000
  C   C850      1.0  0.97678  0.47521  0.81391  1.0000
  H   H841      1.0  0.75271  0.40988  0.83579  1.0000
  C   C851      1.0  0.75239  0.42367  0.84562  1.0000
  C   C852      1.0  0.74240  0.44920  0.98115  1.0000
  C   C853      1.0  0.52455  0.22193  0.78085  1.0000
  C   C854      1.0  0.95958  0.44132  0.79574  1.0000
  H   H842      1.0  0.56037  0.25661  0.80972  1.0000
  H   H843      1.0  0.53893  0.34444  0.81325  1.0000
  S   S286      1.0  0.52148  0.40106  0.92008  1.0000
  Fe  Fe147     1.0  0.68150  0.39931  0.92716  1.0000
  S   S287      1.0  0.70947  0.37891  0.91587  1.0000
  S   S288      1.0  0.65966  0.41557  0.90669  1.0000
  Fe  Fe148     1.0  0.69183  0.39103  0.96819  1.0000
  S   S289      1.0  0.72116  0.36960  0.96069  1.0000
  N   N73       1.0  0.50118  0.30546  0.97593  1.0000
  Fe  Fe149     1.0  0.73638  0.40134  0.93302  1.0000
  S   S290      1.0  0.77916  0.42418  0.91961  1.0000
  Fe  Fe150     1.0  0.69192  0.34898  0.94401  1.0000
  S   S291      1.0  0.67789  0.30595  0.94219  1.0000
  S   S292      1.0  0.70966  0.42468  0.94194  1.0000
  S   S293      1.0  0.66121  0.36740  0.95401  1.0000
  Fe  Fe151     1.0  0.55054  0.28898  0.85972  1.0000
  S   S294      1.0  0.58351  0.28393  0.83867  1.0000
  C   C855      1.0  0.49014  0.32562  0.91356  1.0000
  Fe  Fe152     1.0  0.60411  0.28503  0.86385  1.0000
  S   S295      1.0  0.64700  0.30865  0.85953  1.0000
  S   S296      1.0  0.57292  0.29465  0.88359  1.0000
  H   H844      1.0  0.59758  0.30361  0.94716  1.0000
  S   S297      1.0  0.52986  0.24542  0.87138  1.0000
  C   C856      1.0  0.66989  0.30558  0.91905  1.0000
  C   C857      1.0  0.64381  0.29331  0.91772  1.0000
  C   C858      1.0  0.63707  0.29344  0.89936  1.0000
  C   C859      1.0  0.65618  0.30659  0.88227  1.0000
  C   C860      1.0  0.68234  0.31887  0.88350  1.0000
  C   C861      1.0  0.68922  0.31830  0.90190  1.0000
  H   H845      1.0  0.62869  0.28414  0.93087  1.0000
  H   H846      1.0  0.61700  0.28362  0.89842  1.0000
  H   H847      1.0  0.69726  0.32862  0.87024  1.0000
  H   H848      1.0  0.70951  0.32758  0.90283  1.0000
  H   H849      1.0  0.58055  0.27948  0.92209  1.0000
  C   C862      1.0  0.56189  0.15957  0.77267  1.0000
  C   C863      1.0  0.52313  0.41933  0.83154  1.0000
  H   H850      1.0  0.59029  0.16663  0.82948  1.0000
  C   C864      1.0  0.59045  0.42811  0.92543  1.0000
  H   H851      1.0  0.54344  0.26380  0.77930  1.0000
  H   H852      1.0  0.53068  0.35735  0.75345  1.0000
  H   H853      1.0  0.93558  0.45800  0.81413  1.0000
  H   H854      1.0  0.78999  0.45168  0.82964  1.0000
  C   C865      1.0  0.57508  0.15336  0.82331  1.0000
  C   C866      1.0  0.50670  0.29948  0.89252  1.0000
  C   C867      1.0  0.85257  0.36191  0.75790  1.0000
  H   H855      1.0  0.61411  0.42858  0.89758  1.0000
  S   S298      1.0  0.90036  0.46767  0.76980  1.0000
  C   C868      1.0  0.58869  0.42495  0.94570  1.0000
  C   C869      1.0  0.49799  0.34729  0.89767  1.0000
  C   C870      1.0  0.63504  0.23831  0.94786  1.0000
  C   C871      1.0  0.63327  0.42118  0.92138  1.0000
  C   C872      1.0  0.63184  0.41892  0.94157  1.0000
  C   C873      1.0  0.60959  0.42082  0.95371  1.0000
  H   H856      1.0  0.79137  0.48215  0.85319  1.0000
  C   C874      1.0  0.57938  0.28694  0.95130  1.0000
  H   H857      1.0  0.64790  0.41578  0.94789  1.0000
  H   H858      1.0  0.60846  0.41873  0.96935  1.0000
  H   H859      1.0  0.50398  0.27813  0.78767  1.0000
  C   C875      1.0  0.53184  0.41387  0.84889  1.0000
  C   C876      1.0  0.52267  0.42258  0.86567  1.0000
  H   H860      1.0  0.51517  0.36130  0.86679  1.0000
  C   C877      1.0  0.53269  0.33652  0.80084  1.0000
  Fe  Fe153     1.0  0.53561  0.45990  0.74495  1.0000
  H   H861      1.0  0.54575  0.40286  0.84932  1.0000
  C   C878      1.0  0.51422  0.32102  0.87657  1.0000
  C   C879      1.0  0.52805  0.34363  0.76717  1.0000
  H   H862      1.0  0.71728  0.37594  0.87288  1.0000
  C   C880      1.0  0.80213  0.40523  0.85947  1.0000
  C   C881      1.0  0.78161  0.38666  0.87391  1.0000
  C   C882      1.0  0.77537  0.39199  0.89261  1.0000
  C   C883      1.0  0.78920  0.41618  0.89691  1.0000
  C   C884      1.0  0.81042  0.43442  0.88270  1.0000
  C   C885      1.0  0.81694  0.42893  0.86397  1.0000
  H   H863      1.0  0.77038  0.36812  0.87059  1.0000
  H   H864      1.0  0.76006  0.37716  0.90377  1.0000
  H   H865      1.0  0.82137  0.45305  0.88602  1.0000
  H   H866      1.0  0.83283  0.44336  0.85287  1.0000
  C   C886      1.0  0.50519  0.43742  0.86506  1.0000
  Fe  Fe154     1.0  0.52038  0.42045  0.78392  1.0000
  H   H867      1.0  0.59951  0.20395  0.80403  1.0000
  H   H868      1.0  0.57476  0.43224  0.91910  1.0000
  C   C887      1.0  0.53284  0.24344  0.96201  1.0000
  H   H869      1.0  0.62610  0.27690  0.97176  1.0000
  H   H870      1.0  0.83836  0.34865  0.75102  1.0000
  H   H871      1.0  0.76157  0.43016  0.96120  1.0000
  S   S299      1.0  0.55813  0.20763  0.83545  1.0000
  H   H872      1.0  0.51311  0.28976  0.95121  1.0000
  Fe  Fe155     1.0  0.56475  0.24041  0.85243  1.0000
  H   H873      1.0  0.59847  0.22381  0.77035  1.0000
  C   C888      1.0  0.54868  0.23973  0.80483  1.0000
  H   H874      1.0  0.51506  0.22628  0.96629  1.0000
  C   C889      1.0  0.77363  0.44732  0.84208  1.0000
  C   C890      1.0  0.92425  0.37058  0.75618  1.0000
  H   H875      1.0  0.85163  0.38248  0.75392  1.0000
  H   H876      1.0  0.65593  0.24925  0.94571  1.0000
  N   N74       1.0  0.61743  0.23919  0.96381  1.0000
  H   H877      1.0  0.64009  0.22541  0.92030  1.0000
  C   C891      1.0  0.58895  0.20257  0.77605  1.0000
  H   H878      1.0  0.71685  0.42916  0.88756  1.0000
  Fe  Fe156     1.0  0.49573  0.42673  0.91522  1.0000
  Fe  Fe157     1.0  0.49166  0.18714  0.75241  1.0000
  C   C892      1.0  0.71073  0.39202  0.86552  1.0000
  H   H879      1.0  0.95837  0.42133  0.84294  1.0000
  H   H880      1.0  0.54511  0.37522  0.78179  1.0000
  S   S300      1.0  0.50310  0.44617  0.94094  1.0000
  H   H881      1.0  0.55100  0.12816  0.79816  1.0000
  C   C893      1.0  0.54667  0.25136  0.94245  1.0000
  C   C894      1.0  0.54389  0.21375  0.81523  1.0000
  H   H882      1.0  0.64720  0.25799  0.97846  1.0000
  C   C895      1.0  0.56969  0.27343  0.93706  1.0000
  H   H883      1.0  0.69256  0.39264  0.87514  1.0000
  N   N75       1.0  0.57620  0.16468  0.80282  1.0000
  H   H884      1.0  0.75464  0.47035  0.88254  1.0000
  H   H885      1.0  0.56562  0.36498  0.95586  1.0000
  H   H886      1.0  0.56045  0.20222  0.95386  1.0000
  C   C896      1.0  0.54133  0.32718  0.95162  1.0000
  C   C897      1.0  0.56590  0.27858  0.97094  1.0000
  C   C898      1.0  0.95537  0.45833  0.80828  1.0000
  C   C899      1.0  0.62618  0.22486  0.93340  1.0000
  C   C900      1.0  0.59101  0.22597  0.96622  1.0000
  N   N76       1.0  0.73212  0.41752  0.86164  1.0000
  H   H887      1.0  0.57700  0.22694  0.97872  1.0000
  H   H888      1.0  0.52551  0.17189  0.81640  1.0000
  H   H889      1.0  0.50989  0.28089  0.89068  1.0000
  H   H890      1.0  0.73164  0.45602  0.97085  1.0000
  C   C901      1.0  0.50806  0.30641  0.75207  1.0000
  C   C902      1.0  0.53616  0.35389  0.78311  1.0000
  Fe  Fe158     1.0  0.55498  0.25044  0.89384  1.0000
  S   S301      1.0  0.56015  0.42487  0.96139  1.0000
  C   C903      1.0  0.73269  0.43415  0.87469  1.0000
  C   C904      1.0  0.54234  0.25714  0.97620  1.0000
  H   H891      1.0  0.55455  0.32703  0.93842  1.0000
  S   S302      1.0  0.52912  0.31817  0.85343  1.0000
  C   C905      1.0  0.53909  0.24380  0.78760  1.0000
  C   C906      1.0  0.77446  0.46430  0.85537  1.0000
  N   N77       1.0  0.59565  0.36449  0.86941  1.0000
  C   C907      1.0  0.61719  0.35815  0.87373  1.0000
  C   C908      1.0  0.57857  0.36981  0.88358  1.0000
  C   C909      1.0  0.62187  0.35654  0.89275  1.0000
  C   C910      1.0  0.58271  0.36851  0.90273  1.0000
  C   C911      1.0  0.60450  0.36178  0.90731  1.0000
  C   C912      1.0  0.59136  0.36603  0.84931  1.0000
  H   H892      1.0  0.63082  0.35413  0.86245  1.0000
  H   H893      1.0  0.56173  0.37528  0.88014  1.0000
  H   H894      1.0  0.63903  0.35159  0.89613  1.0000
  H   H895      1.0  0.56944  0.37333  0.91379  1.0000
  H   H896      1.0  0.60843  0.36133  0.92197  1.0000
  H   H897      1.0  0.60743  0.38280  0.83916  1.0000
  H   H898      1.0  0.59095  0.34700  0.84455  1.0000
  H   H899      1.0  0.57215  0.36918  0.84808  1.0000
  H   H900      1.0  0.52962  0.41831  0.87890  1.0000
  C   C913      1.0  0.58950  0.19116  0.79511  1.0000
  Fe  Fe159     1.0  0.87970  0.48187  0.79396  1.0000
  C   C914      1.0  0.50680  0.32625  0.98548  1.0000
  C   C915      1.0  0.59920  0.21183  0.93555  1.0000
  C   C916      1.0  0.51313  0.29948  0.78627  1.0000
  N   N78       1.0  0.87967  0.36168  0.75142  1.0000
  S   S303      1.0  0.53613  0.23186  0.92553  1.0000
  H   H901      1.0  0.59185  0.20211  0.92416  1.0000
  C   C917      1.0  0.52116  0.30909  0.80248  1.0000
  C   C918      1.0  0.75392  0.45768  0.87183  1.0000
  H   H902      1.0  0.94508  0.39675  0.82957  1.0000
  H   H903      1.0  0.48769  0.30703  0.75200  1.0000
  H   H904      1.0  0.84581  0.35493  0.77407  1.0000
  S   S304      1.0  0.51208  0.22686  0.75950  1.0000
  C   C919      1.0  0.58153  0.21193  0.95223  1.0000
  C   C920      1.0  0.53012  0.34790  0.97842  1.0000
  H   H905      1.0  0.70537  0.38695  0.85167  1.0000
  H   H906      1.0  0.95307  0.38646  0.85285  1.0000
  C   C921      1.0  0.54751  0.34827  0.96142  1.0000
  H   H907      1.0  0.93895  0.37770  0.76468  1.0000
  C   C922      1.0  0.56236  0.14894  0.79190  1.0000
  H   H908      1.0  0.55544  0.15106  0.83240  1.0000
  H   H909      1.0  0.50309  0.04662  0.79078  1.0000
  C   C923      1.0  0.75896  0.43447  0.97584  1.0000
  C   C924      1.0  0.52647  0.06518  0.74431  1.0000
  S   S305      1.0  0.54168  0.42031  0.75388  1.0000
  H   H910      1.0  0.89300  0.37715  0.77556  1.0000
  H   H911      1.0  0.52683  0.02928  0.76280  1.0000
  C   C925      1.0  0.95940  0.40209  0.83922  1.0000
  H   H912      1.0  0.49881  0.43857  0.81760  1.0000
  C   C926      1.0  0.52941  0.19202  0.80843  1.0000
  C   C927      1.0  0.77186  0.42500  0.98962  1.0000
  H   H913      1.0  0.51859  0.29542  0.81623  1.0000
  C   C928      1.0  0.62655  0.25644  0.97731  1.0000
  N   N79       1.0  0.51701  0.31669  0.76882  1.0000
  C   C929      1.0  0.50575  0.43429  0.83087  1.0000
  S   S306      1.0  0.51742  0.46154  0.77555  1.0000
  H   H914      1.0  0.50996  0.17908  0.78581  1.0000
  C   C930      1.0  0.52015  0.19609  0.79118  1.0000
  H   H915      1.0  0.57820  0.45835  0.99019  1.0000
  H   H916      1.0  0.97318  0.37740  0.81097  1.0000
  S   S307      1.0  0.48987  0.38474  0.96611  1.0000
  C   C931      1.0  0.51790  0.30590  0.95906  1.0000
  Fe  Fe160     1.0  0.50140  0.40253  0.74804  1.0000
  H   H917      1.0  0.78443  0.41328  0.98544  1.0000
  S   S308      1.0  0.50443  0.10092  0.77912  1.0000
  H   H918      1.0  0.57825  0.13360  0.82464  1.0000
  Fe  Fe161     1.0  0.48844  0.12946  0.76244  1.0000
  C   C932      1.0  0.57500  0.18663  0.76479  1.0000
  H   H919      1.0  0.50827  0.28552  0.75259  1.0000
  C   C933      1.0  0.53786  0.04601  0.75076  1.0000
  H   H920      1.0  0.50650  0.06356  0.75127  1.0000
  H   H921      1.0  0.53458  0.36451  0.98586  1.0000
  H   H922      1.0  0.57263  0.03389  0.74689  1.0000
  H   H923      1.0  0.48721  0.49012  0.75903  1.0000
  C   C934      1.0  0.49699  0.44350  0.84754  1.0000
  C   C935      1.0  0.49436  0.30165  0.91094  1.0000
  S   S309      1.0  0.57956  0.29429  0.98873  1.0000
  H   H924      1.0  0.57377  0.19535  0.75020  1.0000
  H   H925      1.0  0.49412  0.36561  0.89941  1.0000
  H   H926      1.0  0.48816  0.28474  0.92313  1.0000
  S   S310      1.0  0.49291  0.44820  0.88599  1.0000
  H   H927      1.0  0.53189  0.25042  0.99126  1.0000
  H   H928      1.0  0.89872  0.43064  0.74205  1.0000
  C   C936      1.0  0.56371  0.04859  0.74164  1.0000
  H   H929      1.0  0.50320  0.50376  0.20827  1.0000
  S   S311      1.0  0.50201  0.92071  0.21645  1.0000
  H   H930      1.0  0.55193  0.61007  0.23158  1.0000
  C   C937      1.0  0.96582  0.62240  0.22386  1.0000
  C   C938      1.0  0.57868  0.98332  0.21664  1.0000
  H   H931      1.0  0.50720  0.51370  0.06991  1.0000
  N   N80       1.0  0.53136  0.52980  0.22075  1.0000
  H   H932      1.0  0.91316  0.49856  0.19304  1.0000
  Fe  Fe162     1.0  0.52576  0.96025  0.19727  1.0000
  H   H933      1.0  0.94993  0.52483  0.20630  1.0000
  H   H934      1.0  0.65743  0.49954  0.20556  1.0000
  S   S312      1.0  0.51320  0.58629  0.20985  1.0000
  C   C939      1.0  0.61316  0.99350  0.23524  1.0000
  C   C940      1.0  0.87705  0.51365  0.23118  1.0000
  S   S313      1.0  0.61961  0.51496  0.23172  1.0000
  H   H935      1.0  0.53930  0.97766  0.23245  1.0000
  H   H936      1.0  0.53630  0.51612  0.19395  1.0000
  C   C941      1.0  0.92407  0.53259  0.22967  1.0000
  C   C942      1.0  0.51534  0.52125  0.23910  1.0000
  C   C943      1.0  0.52131  0.52151  0.20377  1.0000
  H   H937      1.0  0.91892  0.58819  0.22893  1.0000
  H   H938      1.0  0.58632  0.56938  0.23166  1.0000
  S   S314      1.0  0.50819  0.95115  0.17147  1.0000
  H   H939      1.0  0.48851  0.91566  0.13241  1.0000
  H   H940      1.0  0.56896  0.55438  0.20339  1.0000
  C   C944      1.0  0.60529  0.98912  0.21770  1.0000
  C   C945      1.0  0.92966  0.52174  0.21327  1.0000
  H   H941      1.0  0.51633  0.53808  0.19543  1.0000
  C   C946      1.0  0.89780  0.52875  0.23849  1.0000
  S   S315      1.0  0.56947  0.97707  0.19458  1.0000
  C   C947      1.0  0.55651  0.54701  0.21799  1.0000
  C   C948      1.0  0.55993  0.98245  0.23313  1.0000
  C   C949      1.0  0.56639  0.55568  0.23389  1.0000
  S   S316      1.0  0.49842  0.98227  0.20743  1.0000
  H   H942      1.0  0.85679  0.51076  0.23807  1.0000
  H   H943      1.0  0.50695  0.51496  0.10490  1.0000
  C   C950      1.0  0.51069  0.58819  0.23473  1.0000
  H   H944      1.0  0.96504  0.60586  0.21646  1.0000
  H   H945      1.0  0.65681  0.56699  0.22556  1.0000
  H   H946      1.0  0.61984  0.98981  0.20499  1.0000
  C   C951      1.0  0.64314  0.56350  0.23941  1.0000
  S   S317      1.0  0.94954  0.55066  0.23962  1.0000
  C   C952      1.0  0.88258  0.50276  0.21479  1.0000
  C   C953      1.0  0.90887  0.50692  0.20576  1.0000
  H   H947      1.0  0.61825  0.49886  0.19121  1.0000
  N   N81       1.0  0.94406  0.62230  0.23684  1.0000
  C   C954      1.0  0.48992  0.51503  0.07942  1.0000
  C   C955      1.0  0.48954  0.51554  0.09925  1.0000
  S   S318      1.0  0.79338  0.49733  0.23540  1.0000
  C   C956      1.0  0.91937  0.60005  0.24062  1.0000
  H   H948      1.0  0.50173  0.49651  0.99399  1.0000
  H   H949      1.0  0.90217  0.60757  0.24127  1.0000
  H   H950      1.0  0.49525  0.50804  0.24130  1.0000
  S   S319      1.0  0.97735  0.75961  0.37290  1.0000
  C   C957      1.0  0.90959  0.73554  0.34459  1.0000
  Fe  Fe163     1.0  0.91856  0.78009  0.42722  1.0000
  S   S320      1.0  0.93986  0.74976  0.42722  1.0000
  S   S321      1.0  0.87448  0.76581  0.43828  1.0000
  C   C958      1.0  0.49158  0.52932  0.36119  1.0000
  C   C959      1.0  0.62629  0.98445  0.35800  1.0000
  H   H951      1.0  0.58942  0.51600  0.26943  1.0000
  S   S322      1.0  0.94401  0.80426  0.44429  1.0000
  S   S323      1.0  0.94182  0.80523  0.39786  1.0000
  Fe  Fe164     1.0  0.71517  0.73240  0.38207  1.0000
  S   S324      1.0  0.73571  0.77602  0.36911  1.0000
  S   S325      1.0  0.70353  0.70134  0.36392  1.0000
  Fe  Fe165     1.0  0.72310  0.73812  0.42296  1.0000
  S   S326      1.0  0.74471  0.78184  0.41361  1.0000
  S   S327      1.0  0.71801  0.71819  0.45432  1.0000
  Fe  Fe166     1.0  0.71335  0.78258  0.39659  1.0000
  S   S328      1.0  0.69509  0.81529  0.39804  1.0000
  Fe  Fe167     1.0  0.76528  0.77166  0.38729  1.0000
  S   S329      1.0  0.80879  0.79196  0.37609  1.0000
  S   S330      1.0  0.68968  0.73918  0.40800  1.0000
  S   S331      1.0  0.74674  0.72760  0.39813  1.0000
  Fe  Fe168     1.0  0.53878  0.60066  0.31097  1.0000
  S   S332      1.0  0.53608  0.59893  0.34317  1.0000
  Fe  Fe169     1.0  0.59570  0.60071  0.30410  1.0000
  S   S333      1.0  0.59733  0.59744  0.33588  1.0000
  S   S334      1.0  0.63166  0.60511  0.28137  1.0000
  Fe  Fe170     1.0  0.55646  0.56804  0.34148  1.0000
  S   S335      1.0  0.54160  0.52734  0.36129  1.0000
  Fe  Fe171     1.0  0.57697  0.62867  0.33461  1.0000
  S   S336      1.0  0.58800  0.66486  0.34837  1.0000
  S   S337      1.0  0.55700  0.56833  0.30968  1.0000
  S   S338      1.0  0.57759  0.63370  0.30231  1.0000
  Fe  Fe172     1.0  0.93543  0.58435  0.32770  1.0000
  S   S339      1.0  0.94150  0.60205  0.29594  1.0000
  C   C960      1.0  0.64596  0.97285  0.36103  1.0000
  Fe  Fe173     1.0  0.91860  0.62972  0.34052  1.0000
  S   S340      1.0  0.92381  0.65149  0.30968  1.0000
  S   S341      1.0  0.90473  0.64618  0.36642  1.0000
  Fe  Fe174     1.0  0.90383  0.61090  0.30431  1.0000
  S   S342      1.0  0.87887  0.60647  0.28167  1.0000
  C   C961      1.0  0.74886  0.91693  0.36543  1.0000
  H   H952      1.0  0.86451  0.81975  0.48202  1.0000
  S   S343      1.0  0.89546  0.58950  0.33569  1.0000
  C   C962      1.0  0.72028  0.74277  0.46848  1.0000
  C   C963      1.0  0.93432  0.49596  0.33211  1.0000
  H   H953      1.0  0.55741  0.55407  0.26499  1.0000
  C   C964      1.0  0.53063  0.60231  0.26163  1.0000
  H   H954      1.0  0.92227  0.54070  0.29442  1.0000
  C   C965      1.0  0.62095  0.64302  0.40446  1.0000
  C   C966      1.0  0.72812  0.87360  0.35887  1.0000
  H   H955      1.0  0.70946  0.67754  0.43075  1.0000
  C   C967      1.0  0.68151  0.70555  0.30908  1.0000
  H   H956      1.0  0.65300  0.74630  0.30460  1.0000
  C   C968      1.0  0.89879  0.51473  0.33851  1.0000
  C   C969      1.0  0.82286  0.81295  0.48383  1.0000
  H   H957      1.0  0.89211  0.53147  0.34083  1.0000
  C   C970      1.0  0.87882  0.69260  0.34240  1.0000
  H   H958      1.0  0.77609  0.78412  0.44578  1.0000
  Fe  Fe175     1.0  0.96497  0.77645  0.39901  1.0000
  C   C971      1.0  0.72753  0.78430  0.48928  1.0000
  C   C972      1.0  0.64903  0.72871  0.31655  1.0000
  C   C973      1.0  0.60513  0.53477  0.26408  1.0000
  N   N82       1.0  0.70147  0.89798  0.37304  1.0000
  S   S344      1.0  0.70568  0.97702  0.46941  1.0000
  H   H959      1.0  0.81939  0.74524  0.43798  1.0000
  C   C974      1.0  0.82905  0.53985  0.27128  1.0000
  C   C975      1.0  0.84831  0.56481  0.26881  1.0000
  C   C976      1.0  0.85487  0.57505  0.28518  1.0000
  C   C977      1.0  0.84195  0.56034  0.30406  1.0000
  C   C978      1.0  0.66836  0.64943  0.40240  1.0000
  H   H960      1.0  0.97012  0.67937  0.25227  1.0000
  H   H961      1.0  0.94437  0.51285  0.27794  1.0000
  H   H962      1.0  0.51164  0.52301  0.26971  1.0000
  C   C979      1.0  0.80266  0.80969  0.47335  1.0000
  C   C980      1.0  0.52453  0.52959  0.25529  1.0000
  H   H963      1.0  0.77170  0.81583  0.44834  1.0000
  Fe  Fe176     1.0  0.96955  0.82718  0.41500  1.0000
  C   C981      1.0  0.91600  0.75823  0.35283  1.0000
  C   C982      1.0  0.59455  0.99260  0.25177  1.0000
  C   C983      1.0  0.64589  0.58347  0.25045  1.0000
  C   C984      1.0  0.62820  0.57927  0.26827  1.0000
  C   C985      1.0  0.60805  0.55473  0.27523  1.0000
  H   H964      1.0  0.83776  0.81672  0.42800  1.0000
  S   S345      1.0  0.50161  0.59383  0.29929  1.0000
  H   H965      1.0  0.59501  0.55096  0.28931  1.0000
  C   C986      1.0  0.50591  0.59120  0.27454  1.0000
  C   C987      1.0  0.67074  0.69047  0.36116  1.0000
  C   C988      1.0  0.65256  0.70309  0.36755  1.0000
  C   C989      1.0  0.62686  0.69464  0.36402  1.0000
  C   C990      1.0  0.61936  0.67359  0.35417  1.0000
  C   C991      1.0  0.63745  0.66068  0.34827  1.0000
  C   C992      1.0  0.66300  0.66898  0.35187  1.0000
  H   H966      1.0  0.65845  0.71968  0.37478  1.0000
  H   H967      1.0  0.61291  0.70475  0.36858  1.0000
  H   H968      1.0  0.63211  0.64483  0.34038  1.0000
  H   H969      1.0  0.67704  0.65914  0.34694  1.0000
  C   C993      1.0  0.74874  0.89028  0.41217  1.0000
  C   C994      1.0  0.75964  0.87187  0.40495  1.0000
  C   C995      1.0  0.74320  0.84834  0.40117  1.0000
  C   C996      1.0  0.71574  0.84288  0.40497  1.0000
  C   C997      1.0  0.70479  0.86077  0.41294  1.0000
  C   C998      1.0  0.72125  0.88441  0.41651  1.0000
  H   H970      1.0  0.78089  0.87628  0.40154  1.0000
  H   H971      1.0  0.75193  0.83511  0.39446  1.0000
  H   H972      1.0  0.68356  0.85655  0.41602  1.0000
  H   H973      1.0  0.71256  0.89804  0.42255  1.0000
  C   C999      1.0  0.95644  0.72858  0.37078  1.0000
  H   H974      1.0  0.53425  0.50975  0.32408  1.0000
  C   C1000     1.0  0.94796  0.69161  0.35363  1.0000
  C   C1001     1.0  0.92457  0.67810  0.36759  1.0000
  C   C1002     1.0  0.91682  0.69013  0.38285  1.0000
  C   C1003     1.0  0.93270  0.71531  0.38444  1.0000
  C   C1004     1.0  0.63993  0.69078  0.30013  1.0000
  H   H975      1.0  0.95399  0.68252  0.34173  1.0000
  H   H976      1.0  0.89857  0.67986  0.39355  1.0000
  S   S346      1.0  0.49351  0.93395  0.34294  1.0000
  C   C1005     1.0  0.85638  0.77310  0.42092  1.0000
  C   C1006     1.0  0.86870  0.79249  0.40378  1.0000
  C   C1007     1.0  0.85399  0.79816  0.39001  1.0000
  C   C1008     1.0  0.82680  0.78478  0.39352  1.0000
  C   C1009     1.0  0.81428  0.76590  0.41093  1.0000
  C   C1010     1.0  0.82909  0.76000  0.42458  1.0000
  H   H977      1.0  0.88943  0.80352  0.40126  1.0000
  H   H978      1.0  0.86361  0.81312  0.37671  1.0000
  H   H979      1.0  0.79324  0.75568  0.41383  1.0000
  H   H980      1.0  0.84674  0.56826  0.31674  1.0000
  H   H981      1.0  0.66893  0.64051  0.38956  1.0000
  S   S347      1.0  0.75874  0.98427  0.38566  1.0000
  H   H982      1.0  0.76649  0.93278  0.36589  1.0000
  C   C1011     1.0  0.70335  0.87587  0.36606  1.0000
  H   H983      1.0  0.72411  0.86101  0.47388  1.0000
  S   S348      1.0  0.94948  0.54879  0.33350  1.0000
  H   H984      1.0  0.91700  0.58654  0.25485  1.0000
  C   C1012     1.0  0.64504  0.66444  0.42742  1.0000
  H   H985      1.0  0.57696  0.92883  0.25725  1.0000
  H   H986      1.0  0.71426  0.88733  0.46172  1.0000
  C   C1013     1.0  0.71647  0.78583  0.47269  1.0000
  C   C1014     1.0  0.88312  0.51626  0.29375  1.0000
  H   H987      1.0  0.74860  0.88907  0.45683  1.0000
  C   C1015     1.0  0.51730  0.50116  0.31795  1.0000
  H   H988      1.0  0.72949  0.85537  0.35441  1.0000
  C   C1016     1.0  0.75099  0.89420  0.35872  1.0000
  C   C1017     1.0  0.68928  0.68559  0.30144  1.0000
  S   S349      1.0  0.98341  0.76071  0.46668  1.0000
  Fe  Fe177     1.0  0.71600  0.98043  0.39583  1.0000
  H   H989      1.0  0.71004  0.65675  0.40143  1.0000
  H   H990      1.0  0.61166  0.65899  0.40233  1.0000
  C   C1018     1.0  0.96882  0.66386  0.24376  1.0000
  H   H991      1.0  0.73666  0.72364  0.49009  1.0000
  H   H992      1.0  0.63390  0.65769  0.28521  1.0000
  C   C1019     1.0  0.62264  0.53925  0.24612  1.0000
  H   H993      1.0  0.98387  0.67229  0.37686  1.0000
  C   C1020     1.0  0.69171  0.65842  0.40913  1.0000
  C   C1021     1.0  0.49914  0.51480  0.31521  1.0000
  C   C1022     1.0  0.72378  0.91858  0.37240  1.0000
  C   C1023     1.0  0.50743  0.51296  0.36317  1.0000
  S   S350      1.0  0.95782  0.62263  0.33525  1.0000
  C   C1024     1.0  0.50995  0.91280  0.26857  1.0000
  C   C1025     1.0  0.55722  0.92505  0.26583  1.0000
  C   C1026     1.0  0.66395  0.98278  0.37255  1.0000
  C   C1027     1.0  0.55381  0.92982  0.28482  1.0000
  H   H994      1.0  0.66906  0.91171  0.36945  1.0000
  C   C1028     1.0  0.73640  0.92402  0.48130  1.0000
  C   C1029     1.0  0.94835  0.67050  0.42162  1.0000
  H   H995      1.0  0.57089  0.93724  0.29114  1.0000
  H   H996      1.0  0.98214  0.72708  0.34454  1.0000
  H   H997      1.0  0.77031  0.89221  0.35395  1.0000
  H   H998      1.0  0.69492  0.71872  0.31601  1.0000
  N   N83       1.0  0.73489  0.89767  0.48424  1.0000
  H   H999      1.0  0.81187  0.52452  0.32112  1.0000
  Fe  Fe178     1.0  0.72295  0.98296  0.43746  1.0000
  H   H1000     1.0  0.92643  0.72444  0.39616  1.0000
  H   H1001     1.0  0.94278  0.64451  0.40086  1.0000
  C   C1030     1.0  0.48626  0.57650  0.24784  1.0000
  H   H1002     1.0  0.89339  0.53738  0.25104  1.0000
  H   H1003     1.0  0.52586  0.92960  0.31012  1.0000
  C   C1031     1.0  0.78632  0.80601  0.44314  1.0000
  H   H1004     1.0  0.93552  0.77308  0.34804  1.0000
  N   N84       1.0  0.88545  0.71619  0.35125  1.0000
  C   C1032     1.0  0.86698  0.71913  0.36569  1.0000
  C   C1033     1.0  0.87269  0.74163  0.37419  1.0000
  C   C1034     1.0  0.89741  0.76122  0.36773  1.0000
  H   H1005     1.0  0.84773  0.70397  0.37081  1.0000
  H   H1006     1.0  0.85806  0.74386  0.38573  1.0000
  H   H1007     1.0  0.90221  0.77864  0.37428  1.0000
  H   H1008     1.0  0.89689  0.68892  0.33508  1.0000
  H   H1009     1.0  0.86777  0.67433  0.35385  1.0000
  H   H1010     1.0  0.71100  0.80323  0.46763  1.0000
  C   C1035     1.0  0.92582  0.51778  0.33500  1.0000
  C   C1036     1.0  0.85415  0.81895  0.45373  1.0000
  H   H1011     1.0  0.66037  0.87990  0.38643  1.0000
  H   H1012     1.0  0.62694  0.66714  0.43455  1.0000
  C   C1037     1.0  0.53520  0.91647  0.25762  1.0000
  C   C1038     1.0  0.82217  0.53565  0.30651  1.0000
  H   H1013     1.0  0.70415  0.76644  0.44956  1.0000
  C   C1039     1.0  0.95549  0.66243  0.40419  1.0000
  H   H1014     1.0  0.61284  0.97694  0.34885  1.0000
  H   H1015     1.0  0.66781  0.68303  0.44719  1.0000
  C   C1040     1.0  0.81569  0.52542  0.29011  1.0000
  H   H1016     1.0  0.70843  0.68343  0.30239  1.0000
  H   H1017     1.0  0.49963  0.55038  0.36057  1.0000
  N   N85       1.0  0.80811  0.81116  0.45353  1.0000
  N   N86       1.0  0.64546  0.65269  0.41145  1.0000
  H   H1018     1.0  0.66551  0.50901  0.25469  1.0000
  C   C1041     1.0  0.83346  0.81580  0.44368  1.0000
  H   H1019     1.0  0.92433  0.73320  0.33322  1.0000
  H   H1020     1.0  0.86664  0.69517  0.33143  1.0000
  H   H1021     1.0  0.92843  0.64183  0.25778  1.0000
  H   H1022     1.0  0.87338  0.52837  0.30106  1.0000
  H   H1023     1.0  0.72225  0.93606  0.37790  1.0000
  C   C1042     1.0  0.55021  0.54693  0.25264  1.0000
  C   C1043     1.0  0.52830  0.92576  0.29541  1.0000
  H   H1024     1.0  0.78259  0.80586  0.48117  1.0000
  C   C1044     1.0  0.66798  0.67335  0.43469  1.0000
  S   S351      1.0  0.69021  0.96976  0.37396  1.0000
  H   H1025     1.0  0.82416  0.53210  0.25857  1.0000
  S   S352      1.0  0.76992  0.92088  0.41484  1.0000
  S   S353      1.0  0.98382  0.87192  0.41214  1.0000
  C   C1045     1.0  0.67546  0.89995  0.38094  1.0000
  H   H1026     1.0  0.68507  0.98244  0.30707  1.0000
  C   C1046     1.0  0.71280  0.76510  0.46234  1.0000
  Fe  Fe179     1.0  0.75321  0.95502  0.41345  1.0000
  H   H1027     1.0  0.95878  0.70035  0.43886  1.0000
  C   C1047     1.0  0.96449  0.69418  0.42528  1.0000
  C   C1048     1.0  0.69144  0.67031  0.42544  1.0000
  Fe  Fe180     1.0  0.52772  0.97131  0.33136  1.0000
  H   H1028     1.0  0.85800  0.57615  0.25417  1.0000
  N   N87       1.0  0.50677  0.91730  0.28728  1.0000
  H   H1029     1.0  0.54777  0.61248  0.26691  1.0000
  S   S354      1.0  0.57008  0.97256  0.32818  1.0000
  Fe  Fe181     1.0  0.96784  0.77648  0.44143  1.0000
  S   S355      1.0  0.53306  0.99457  0.30114  1.0000
  N   N88       1.0  0.65692  0.70764  0.30864  1.0000
  H   H1030     1.0  0.65987  0.73495  0.32810  1.0000
  C   C1049     1.0  0.91060  0.52311  0.29013  1.0000
  S   S356      1.0  0.71006  0.94888  0.42247  1.0000
  H   H1031     1.0  0.62757  0.72141  0.32359  1.0000
  H   H1032     1.0  0.62458  0.63706  0.39008  1.0000
  H   H1033     1.0  0.79346  0.81371  0.42704  1.0000
  S   S357      1.0  0.76596  0.98694  0.43045  1.0000
  C   C1050     1.0  0.84875  0.81752  0.47395  1.0000
  C   C1051     1.0  0.64730  0.67099  0.29201  1.0000
  H   H1034     1.0  0.55341  0.98621  0.26341  1.0000
  H   H1035     1.0  0.93022  0.65869  0.43207  1.0000
  H   H1036     1.0  0.95519  0.49820  0.32943  1.0000
  Fe  Fe182     1.0  0.96106  0.64077  0.30389  1.0000
  C   C1052     1.0  0.94543  0.64244  0.24697  1.0000
  C   C1053     1.0  0.97857  0.67804  0.39069  1.0000
  C   C1054     1.0  0.67197  0.66817  0.29289  1.0000
  H   H1037     1.0  0.64757  0.95649  0.35408  1.0000
  H   H1038     1.0  0.60682  0.62540  0.41520  1.0000
  H   H1039     1.0  0.62036  0.69228  0.29989  1.0000
  H   H1040     1.0  0.68574  0.85923  0.36692  1.0000
  H   H1041     1.0  0.67746  0.65235  0.28703  1.0000
  H   H1042     1.0  0.49933  0.98791  0.25238  1.0000
  C   C1055     1.0  0.73024  0.88302  0.46844  1.0000
  C   C1056     1.0  0.96387  0.71682  0.35524  1.0000
  H   H1043     1.0  0.67630  0.91024  0.39356  1.0000
  H   H1044     1.0  0.49296  0.90652  0.26196  1.0000
  H   H1045     1.0  0.87412  0.82189  0.44590  1.0000
  H   H1046     1.0  0.50228  0.53413  0.31920  1.0000
  H   H1047     1.0  0.73327  0.93383  0.46767  1.0000
  H   H1048     1.0  0.53778  0.91325  0.24270  1.0000
  C   C1057     1.0  0.73072  0.74085  0.48539  1.0000
  C   C1058     1.0  0.56792  0.98738  0.25064  1.0000
  H   H1049     1.0  0.66163  0.60232  0.24508  1.0000
  C   C1059     1.0  0.92295  0.50707  0.28102  1.0000
  C   C1060     1.0  0.53296  0.60101  0.24166  1.0000
  C   C1061     1.0  0.93706  0.67757  0.72343  1.0000
  H   H1050     1.0  0.74316  0.76047  0.50845  1.0000
  H   H1051     1.0  0.70869  0.98367  0.50858  1.0000
  Fe  Fe183     1.0  0.96264  0.83537  0.57846  1.0000
  H   H1052     1.0  0.53658  0.62540  0.73065  1.0000
  S   S358      1.0  0.92184  0.83676  0.59009  1.0000
  H   H1053     1.0  0.94517  0.73592  0.55612  1.0000
  Fe  Fe184     1.0  0.52948  0.63724  0.64568  1.0000
  H   H1054     1.0  0.80572  0.86340  0.60657  1.0000
  H   H1055     1.0  0.78143  0.97167  0.56364  1.0000
  C   C1062     1.0  0.89754  0.56845  0.73075  1.0000
  H   H1056     1.0  0.89302  0.78797  0.52737  1.0000
  H   H1057     1.0  0.81185  0.87526  0.57063  1.0000
  Fe  Fe185     1.0  0.80300  0.81446  0.54175  1.0000
  S   S359      1.0  0.78368  0.81294  0.57267  1.0000
  S   S360      1.0  0.84644  0.82199  0.52978  1.0000
  Fe  Fe186     1.0  0.75192  0.80871  0.52728  1.0000
  S   S361      1.0  0.72835  0.80679  0.55693  1.0000
  H   H1058     1.0  0.90471  0.53960  0.69001  1.0000
  Fe  Fe187     1.0  0.76367  0.84011  0.55896  1.0000
  S   S362      1.0  0.75793  0.87470  0.57177  1.0000
  Fe  Fe188     1.0  0.75015  0.77967  0.56788  1.0000
  S   S363      1.0  0.73211  0.74177  0.59111  1.0000
  S   S364      1.0  0.78547  0.84428  0.52837  1.0000
  S   S365      1.0  0.77127  0.77895  0.53785  1.0000
  H   H1059     1.0  0.57131  0.96480  0.66630  1.0000
  H   H1060     1.0  0.49047  0.93231  0.71887  1.0000
  C   C1063     1.0  0.89979  0.76845  0.55401  1.0000
  Fe  Fe189     1.0  0.94379  0.60257  0.69295  1.0000
  C   C1064     1.0  0.51599  0.61662  0.72883  1.0000
  H   H1061     1.0  0.51965  0.98774  0.73578  1.0000
  C   C1065     1.0  0.50741  0.95274  0.68897  1.0000
  H   H1062     1.0  0.93074  0.59918  0.73515  1.0000
  H   H1063     1.0  0.52339  0.89973  0.73174  1.0000
  N   N89       1.0  0.85342  0.88167  0.56513  1.0000
  Fe  Fe190     1.0  0.58564  0.64307  0.62544  1.0000
  S   S366      1.0  0.56936  0.65891  0.65073  1.0000
  S   S367      1.0  0.61451  0.67022  0.59821  1.0000
  Fe  Fe191     1.0  0.56621  0.61927  0.66894  1.0000
  S   S368      1.0  0.57033  0.61069  0.70019  1.0000
  S   S369      1.0  0.58557  0.60482  0.64405  1.0000
  H   H1064     1.0  0.59788  0.57989  0.68068  1.0000
  H   H1065     1.0  0.85631  0.90921  0.53930  1.0000
  C   C1066     1.0  0.85648  0.88844  0.54379  1.0000
  H   H1066     1.0  0.88927  0.87541  0.59975  1.0000
  H   H1067     1.0  0.55482  0.52362  0.66895  1.0000
  H   H1068     1.0  0.92888  0.55089  0.65534  1.0000
  C   C1067     1.0  0.74398  0.89940  0.51641  1.0000
  C   C1068     1.0  0.55335  0.95743  0.67764  1.0000
  C   C1069     1.0  0.92886  0.53318  0.66515  1.0000
  C   C1070     1.0  0.68609  0.99283  0.58476  1.0000
  C   C1071     1.0  0.56964  0.57737  0.70669  1.0000
  C   C1072     1.0  0.55330  0.56074  0.72421  1.0000
  H   H1069     1.0  0.81837  0.81165  0.49955  1.0000
  C   C1073     1.0  0.59136  0.98577  0.73284  1.0000
  C   C1074     1.0  0.51977  0.66955  0.68624  1.0000
  H   H1070     1.0  0.88525  0.62456  0.72182  1.0000
  C   C1075     1.0  0.90168  0.64300  0.71657  1.0000
  H   H1071     1.0  0.88550  0.77439  0.56344  1.0000
  H   H1072     1.0  0.94825  0.68623  0.73366  1.0000
  S   S370      1.0  0.52711  0.54578  0.63563  1.0000
  H   H1073     1.0  0.52985  0.97263  0.65980  1.0000
  H   H1074     1.0  0.84465  0.86326  0.62144  1.0000
  C   C1076     1.0  0.69780  0.72484  0.59557  1.0000
  C   C1077     1.0  0.68200  0.73287  0.58364  1.0000
  C   C1078     1.0  0.65569  0.71683  0.58559  1.0000
  C   C1079     1.0  0.64489  0.69285  0.59963  1.0000
  C   C1080     1.0  0.66020  0.68560  0.61235  1.0000
  C   C1081     1.0  0.68665  0.70150  0.61023  1.0000
  H   H1075     1.0  0.69033  0.75085  0.57238  1.0000
  H   H1076     1.0  0.64390  0.72254  0.57575  1.0000
  H   H1077     1.0  0.65213  0.66704  0.62310  1.0000
  H   H1078     1.0  0.69876  0.69523  0.61956  1.0000
  H   H1079     1.0  0.61129  0.98497  0.73208  1.0000
  C   C1082     1.0  0.73446  0.76169  0.49575  1.0000
  H   H1080     1.0  0.65662  0.71983  0.53591  1.0000
  H   H1081     1.0  0.48635  0.54423  0.59740  1.0000
  H   H1082     1.0  0.96188  0.70695  0.69802  1.0000
  H   H1083     1.0  0.57187  0.94123  0.69890  1.0000
  C   C1083     1.0  0.84715  0.86878  0.60565  1.0000
  C   C1084     1.0  0.93320  0.74680  0.54988  1.0000
  C   C1085     1.0  0.52691  0.65231  0.69969  1.0000
  H   H1084     1.0  0.89128  0.65738  0.67234  1.0000
  C   C1086     1.0  0.80599  0.96069  0.54135  1.0000
  C   C1087     1.0  0.81145  0.93944  0.53397  1.0000
  C   C1088     1.0  0.79671  0.91294  0.54310  1.0000
  C   C1089     1.0  0.77653  0.90761  0.55970  1.0000
  C   C1090     1.0  0.77100  0.92887  0.56698  1.0000
  C   C1091     1.0  0.78563  0.95538  0.55779  1.0000
  H   H1085     1.0  0.82717  0.94354  0.52120  1.0000
  H   H1086     1.0  0.80108  0.89673  0.53736  1.0000
  H   H1087     1.0  0.75544  0.92484  0.57985  1.0000
  Fe  Fe192     1.0  0.54393  0.58758  0.64034  1.0000
  C   C1092     1.0  0.90425  0.77621  0.53359  1.0000
  C   C1093     1.0  0.87777  0.54415  0.73934  1.0000
  S   S371      1.0  0.90070  0.58305  0.70615  1.0000
  S   S372      1.0  0.82486  0.99366  0.52979  1.0000
  N   N90       1.0  0.92268  0.76933  0.52164  1.0000
  H   H1088     1.0  0.48730  0.56822  0.65109  1.0000
  C   C1094     1.0  0.87502  0.88241  0.57316  1.0000
  H   H1089     1.0  0.74272  0.95954  0.49349  1.0000
  C   C1095     1.0  0.55351  0.94394  0.69617  1.0000
  H   H1090     1.0  0.91174  0.74819  0.57799  1.0000
  C   C1096     1.0  0.90110  0.83121  0.57330  1.0000
  C   C1097     1.0  0.87366  0.82016  0.58019  1.0000
  C   C1098     1.0  0.85670  0.81706  0.56694  1.0000
  C   C1099     1.0  0.86714  0.82511  0.54675  1.0000
  C   C1100     1.0  0.89460  0.83590  0.53986  1.0000
  C   C1101     1.0  0.91158  0.83881  0.55309  1.0000
  H   H1091     1.0  0.86549  0.81413  0.59582  1.0000
  H   H1092     1.0  0.83561  0.80830  0.57239  1.0000
  H   H1093     1.0  0.90281  0.84224  0.52424  1.0000
  H   H1094     1.0  0.93274  0.84753  0.54768  1.0000
  C   C1102     1.0  0.49356  0.66927  0.68887  1.0000
  C   C1103     1.0  0.53183  0.92165  0.73027  1.0000
  C   C1104     1.0  0.92818  0.77897  0.50034  1.0000
  H   H1095     1.0  0.59675  0.53294  0.68938  1.0000
  H   H1096     1.0  0.53425  0.68261  0.67356  1.0000
  H   H1097     1.0  0.48968  0.55050  0.70364  1.0000
  N   N91       1.0  0.50846  0.63547  0.71544  1.0000
  H   H1098     1.0  0.48764  0.68189  0.67814  1.0000
  S   S373      1.0  0.98461  0.81768  0.59837  1.0000
  H   H1099     1.0  0.86364  0.53494  0.73110  1.0000
  H   H1100     1.0  0.84014  0.87449  0.53904  1.0000
  H   H1101     1.0  0.55231  0.92659  0.73287  1.0000
  H   H1102     1.0  0.65797  0.98025  0.61241  1.0000
  C   C1105     1.0  0.58495  0.56712  0.69406  1.0000
  H   H1103     1.0  0.53180  0.54660  0.68685  1.0000
  C   C1106     1.0  0.82535  0.86873  0.59735  1.0000
  C   C1107     1.0  0.87220  0.87580  0.59352  1.0000
  C   C1108     1.0  0.91441  0.75368  0.56217  1.0000
  H   H1104     1.0  0.87517  0.88648  0.53595  1.0000
  C   C1109     1.0  0.82891  0.87541  0.57695  1.0000
  H   H1105     1.0  0.89450  0.88731  0.56386  1.0000
  C   C1110     1.0  0.74179  0.93871  0.49588  1.0000
  N   N92       1.0  0.51485  0.50588  0.68517  1.0000
  C   C1111     1.0  0.56784  0.52376  0.71636  1.0000
  H   H1106     1.0  0.54724  0.65228  0.69734  1.0000
  C   C1112     1.0  0.58435  0.54054  0.69903  1.0000
  H   H1107     1.0  0.98252  0.69616  0.59675  1.0000
  C   C1113     1.0  0.74567  0.92630  0.51352  1.0000
  C   C1114     1.0  0.94465  0.68926  0.70347  1.0000
  H   H1108     1.0  0.74664  0.88942  0.53016  1.0000
  C   C1115     1.0  0.91555  0.52690  0.68478  1.0000
  S   S374      1.0  0.52475  0.59955  0.66642  1.0000
  C   C1116     1.0  0.53017  0.96194  0.67406  1.0000
  N   N93       1.0  0.68430  0.70229  0.54593  1.0000
  C   C1117     1.0  0.66534  0.67878  0.55560  1.0000
  C   C1118     1.0  0.70944  0.70819  0.54922  1.0000
  C   C1119     1.0  0.67106  0.66099  0.56956  1.0000
  C   C1120     1.0  0.71582  0.69088  0.56311  1.0000
  C   C1121     1.0  0.69642  0.66724  0.57343  1.0000
  C   C1122     1.0  0.67776  0.72111  0.53178  1.0000
  H   H1109     1.0  0.64521  0.67428  0.55341  1.0000
  H   H1110     1.0  0.72441  0.72691  0.54175  1.0000
  H   H1111     1.0  0.65549  0.64322  0.57806  1.0000
  H   H1112     1.0  0.73531  0.69647  0.56656  1.0000
  H   H1113     1.0  0.70076  0.65426  0.58489  1.0000
  H   H1114     1.0  0.68960  0.74210  0.53139  1.0000
  H   H1115     1.0  0.68176  0.71681  0.51686  1.0000
  C   C1123     1.0  0.98478  0.52904  0.73616  1.0000
  C   C1124     1.0  0.93054  0.67736  0.69037  1.0000
  C   C1125     1.0  0.91547  0.65424  0.73005  1.0000
  C   C1126     1.0  0.49290  0.53168  0.64508  1.0000
  S   S375      1.0  0.54576  0.62396  0.61926  1.0000
  N   N94       1.0  0.90924  0.65465  0.69701  1.0000
  S   S376      1.0  0.96025  0.62134  0.66116  1.0000
  H   H1116     1.0  0.74991  0.93743  0.52497  1.0000
  N   N95       1.0  0.53126  0.93551  0.71085  1.0000
  H   H1117     1.0  0.51473  0.59830  0.72283  1.0000
  C   C1127     1.0  0.55205  0.53378  0.72890  1.0000
  H   H1118     1.0  0.51099  0.58983  0.59980  1.0000
  C   C1128     1.0  0.91558  0.58033  0.74156  1.0000
  C   C1129     1.0  0.51405  0.52942  0.69025  1.0000
  C   C1130     1.0  0.49026  0.53178  0.69966  1.0000
  H   H1119     1.0  0.87620  0.62668  0.69022  1.0000
  H   H1120     1.0  0.94369  0.79890  0.49619  1.0000
  H   H1121     1.0  0.91014  0.78062  0.49530  1.0000
  S   S377      1.0  0.73394  0.81174  0.50077  1.0000
  N   N96       1.0  0.91641  0.50520  0.69733  1.0000
  C   C1131     1.0  0.53965  0.98723  0.73496  1.0000
  C   C1132     1.0  0.89539  0.64220  0.68284  1.0000
  S   S378      1.0  0.96631  0.80952  0.55670  1.0000
  C   C1133     1.0  0.93716  0.75491  0.52953  1.0000
  S   S379      1.0  0.49800  0.65625  0.64187  1.0000
  C   C1134     1.0  0.94262  0.51676  0.65830  1.0000
  H   H1122     1.0  0.90772  0.63226  0.67463  1.0000
  H   H1123     1.0  0.91135  0.51688  0.72478  1.0000
  H   H1124     1.0  0.54148  0.56859  0.73408  1.0000
  S   S380      1.0  0.96957  0.63563  0.70375  1.0000
  H   H1125     1.0  0.69988  0.98364  0.59006  1.0000
  C   C1135     1.0  0.48972  0.58218  0.60519  1.0000
  H   H1126     1.0  0.95204  0.74979  0.52009  1.0000
  H   H1127     1.0  0.95325  0.52165  0.64313  1.0000
  H   H1128     1.0  0.48923  0.95604  0.68630  1.0000
  H   H1129     1.0  0.48718  0.61753  0.61567  1.0000
  H   H1130     1.0  0.93712  0.68614  0.67480  1.0000
  C   C1136     1.0  0.73872  0.88536  0.50148  1.0000
  H   H1131     1.0  0.73762  0.86452  0.50386  1.0000
  C   C1137     1.0  0.50827  0.93935  0.70737  1.0000
  S   S381      1.0  0.97021  0.57748  0.69486  1.0000
  C   C1138     1.0  0.90295  0.49979  0.71795  1.0000
  C   C1139     1.0  0.66259  0.99092  0.59729  1.0000
  H   H1132     1.0  0.95481  0.54846  0.74008  1.0000
  H   H1133     1.0  0.88141  0.49643  0.71913  1.0000
  C   C1140     1.0  0.53975  0.50366  0.67501  1.0000
  H   H1134     1.0  0.93535  0.76512  0.49230  1.0000
  C   C1141     1.0  0.98439  0.70743  0.60828  1.0000
  C   C1142     1.0  0.58351  0.99419  0.71573  1.0000
  S   S382      1.0  0.52691  0.97199  0.77520  1.0000
  C   C1143     1.0  0.54788  0.97946  0.75212  1.0000
  S   S383      1.0  0.48678  0.68185  0.88827  1.0000
  C   C1144     1.0  0.89512  0.54287  0.76909  1.0000
  H   H1135     1.0  0.50100  0.64183  0.94732  1.0000
  C   C1145     1.0  0.57374  0.97885  0.75102  1.0000
  H   H1136     1.0  0.58014  0.97289  0.76427  1.0000
  H   H1137     1.0  0.92792  0.57722  0.76917  1.0000
  S   S384      1.0  0.89537  0.52595  0.79234  1.0000
  C   C1146     1.0  0.91399  0.56786  0.76085  1.0000
  H   H1138     1.0  0.50386  0.75966  0.91873  1.0000
  H   H1139     1.0  0.51709  0.72861  0.89943  1.0000
  H   H1140     1.0  0.48716  0.69380  0.94195  1.0000
  H   H1141     1.0  0.49161  0.53351  0.89878  1.0000
  C   C1147     1.0  0.48887  0.74328  0.91565  1.0000
  H   H1142     1.0  0.52028  0.92801  0.74204  1.0000
  C   C1148     1.0  0.87698  0.53105  0.75831  1.0000
  C   C1149     1.0  0.96748  0.53934  0.74705  1.0000
  H   H1143     1.0  0.95376  0.54630  0.77561  1.0000
  C   C1150     1.0  0.49634  0.72577  0.90475  1.0000
  C   C1151     1.0  0.96711  0.53847  0.76696  1.0000
  H   H1144     1.0  0.49389  0.53747  0.74549  1.0000
  H   H1145     1.0  0.50273  0.61068  0.74362  1.0000
  H   H1146     1.0  0.49246  0.65767  0.92591  1.0000
  H   H1147     1.0  0.90974  0.64455  0.74546  1.0000
  H   H1148     1.0  0.53935  0.52095  0.74235  1.0000
  H   H1149     1.0  0.86219  0.51189  0.76462  1.0000
  C   C1152     1.0  0.98436  0.52793  0.77564  1.0000
  H   H1150     1.0  0.98465  0.52772  0.79100  1.0000
  H   H1151     1.0  0.48555  0.73424  0.85733  1.0000
  H   H1152     1.0  0.48648  0.50219  0.89128  1.0000
