data_image0
_chemical_formula_structural       C2SHCH2SHCSHFeH2SHC2SHC4S2H2CFeCHCHNHCHC2FeCSHSFeH2CSCH3SH3SFeHCH2NC3HCHNC4SH2CHC4H4FeH5CHC2HSC4SCHCFeC2H3C2H2C4H3C2HCSHCH2NHSCSH2CHC3FeNCH2C5FeSCSCSC4SC2SCHC2HCH2C2HC2H6CH3SCFeH3CHCHNH3CHCSCFeHC4SHC3S2H4CFeSC3FeCHSCFeCS2CHNCNHC2SHCH2FeHCH2C2HFe2HS2HCH3CHCH2C2HSHCHC2SCH2Fe2HC2HNS3HFeC2H2SHC2H5CSFeC2NH2Fe2C2H4CHNHSFeHC2NCH3C3SHCH2C4H4CHCSHC2H4SC2H2CSC4H3C5HCSCSC2SHFeCH2C2SHC2H2CNHC2HCHCFeH2SC3H2C3NFeCSH3C2H2CHS2C2HSC5HCHFeHC2HCSFeHC4H3CHCS2HFeHCHCSH2SC5H3C2FeH3SCHCFeCHCSHSHCHCNHCFe2H3CHCH2C4SHSHSCH3NCNS2H2FeCH6CH2CHSCFe2CH3CH2CHSHCH3S2HC2SNHCNHCHFeH3C2H3CSCHCH2C2H4C2H2NCFeSC4H3Fe2CHSCH2CNHCNCSC2HSHCFeHSHC2FeCH2S2HSHCHCHCSHCHC2HC3SCH2SCSCHSCNFeC2HCHCH2NC2HSCNH5C3HCSH2CH2S2HCHC4HFeHFeSHSHC4SC2FeH3C3SCHSCS2CNH2C3SH5C3H2CHCSCHCFeSCH2CHC3SH3S2Fe2CFeHC2FeC3NCSFeSC2HCSCH2CFeCHC2HCSHCSHSFeHCHCH2CH5CH3C2HCSCHCHCH2FeH2C2HS2C2H4CH2CH3C4HCFe2C2H3C2SFeSCH4C2HSCSHCNC2HCHCNCH2CH2C2NHC5HCS2CNSFeSHCSHCSHC2HCHCHCFeH2CH2CHCHNHSH3C3HCS2CS2HSHC2SC3H2C2HFeH3CH3FeSHFeC2Fe2H2CSC2H2C2SCFe2CHC2SCH3SNHCHSC2FeC2H2C2FeH2C2H3CH2SCHFeCHSHNSH3CFeCS2H2CSNCSC3HSFeHC3H2C2H3SH3SFeCFe2SHC2H5CSCHSC2HSFeNCHC2FeCHCHC3HNCN2SCFeHSCHC2HCH2FeSHCHSH3SH3FeH2NH2CHCSCHS2C4FeSCNCH2CH2CH2CHCHSC8H2CHC2SNCH3C2H2C2HCHFeH2C3SC4H5C2HCH2NCNSC2HFeC2HC3NSCSHC2HCHCH2CH2CHFeNHCHC2SCH2C2HC2HCHC2HSHSFeC2S2NHSHS3HSH2FeH2CHCHCH2FeSCHC2FeHCFeH2CSH2FeH2FeHS2HCHC2H2SCHCHCHCHC3HC2SC4SHC2H3CNHFeCHCSHC2H3C2HFeCH3CHC2FeCSC2SH3CSCH5FeHCSH3CH3CH3SC7NH3SCHSCHSN2CHFeHCS2H3SHCH4FeH4Fe2C3SHCSFeC2Fe2H2FeH2SHS3C2SH4C3H2FeHCH2C2HCHC3H4CSCSH3S2CFeHSC2H2SHCHCSC5HN2SH2SC2HFeH2SC2HC4SC3HC3FeHSH4FeH2CH6CSH2C4H2CHCHCHCH2SHC2HCNCFeH2CHFeCHSCH2CH3FeCHCHCSHC3H2C4FeCNHC2HS3HNC3S2HSCH2SHC2H2C4H2CHCFeH2CHCHFe2CSC2H3SCHSCSHC2SC2HCNSH3CH2C2SHCSFeCH3CHSC2HSFeNCH5SHCHS2CFe2H2CSCH2CHFe2CSHCNCSC4H2C3Fe2HSH2CHC3FeHCHCS2C2H2CFeH2CHS2C2HFeHSHC2NH3C2S2HCHNHC2HSNC3SH2C2SC2FeH2C4SCH7SH3FeC2S3HCHSNC2HCH3SFeC2HC2HCHCHNH2CHCHCFeHS3HC5SHCH2CFeHFeHC2SHC2HC2HFeC2H2CSCHSC3H2CH3C2HCHCH4NCSCH2CSFeHSHC2SH2CSHNH2SC4HCHFeH3C5H4C2HC8HCHCFeNC2FeH3CSC2FeCHNCH3SHC2FeSHCHS2CHCSHCHCS2CHCHC4HC2HC2FeSHCFeHCHSHCSCH2CNSC4HC2SH2CHFeC2HCHCNFeC2HC2H2CSHCH3CH4SHC2HCSHNC4H2C2HCH2NH
_chemical_formula_sum              "C864 S288 H864 Fe144 N72"
_cell_length_a       44.3402
_cell_length_b       39.3523
_cell_length_c       21.9657
_cell_angle_alpha    76.9662
_cell_angle_beta     80.9676
_cell_angle_gamma    63.6043

_space_group_name_H-M_alt    "P 1"
_space_group_IT_number       1

loop_
  _space_group_symop_operation_xyz
  'x, y, z'

loop_
  _atom_site_type_symbol
  _atom_site_label
  _atom_site_symmetry_multiplicity
  _atom_site_fract_x
  _atom_site_fract_y
  _atom_site_fract_z
  _atom_site_occupancy
  C   C1        1.0  0.12244  0.55154  0.15770  1.0000
  C   C2        1.0  0.22175  0.10499  0.12017  1.0000
  S   S1        1.0  0.08913  0.24306  0.30258  1.0000
  H   H1        1.0  0.40163  0.11118  0.16616  1.0000
  C   C3        1.0  0.34910  0.26542  0.24923  1.0000
  H   H2        1.0  0.28407  0.13804  0.25890  1.0000
  H   H3        1.0  0.50407  0.30812  0.17448  1.0000
  S   S2        1.0  0.08756  0.17100  0.07856  1.0000
  H   H4        1.0  0.52120  0.34366  0.15625  1.0000
  C   C4        1.0  0.05275  0.47381  0.15899  1.0000
  S   S3        1.0  0.31036  0.55855  0.10718  1.0000
  H   H5        1.0  0.16003  0.10239  0.27904  1.0000
  Fe  Fe1       1.0  0.30529  0.21846  0.06733  1.0000
  H   H6        1.0  0.08531  0.37160  0.14142  1.0000
  H   H7        1.0  0.42573  0.59120  0.23462  1.0000
  S   S4        1.0  0.18423  0.24744  0.15146  1.0000
  H   H8        1.0  0.44102  0.54228  0.16760  1.0000
  C   C5        1.0  0.18312  0.17606  0.28570  1.0000
  C   C6        1.0  0.36955  0.57096  0.30122  1.0000
  S   S5        1.0  0.28164  0.18402  0.13544  1.0000
  H   H9        1.0  0.36951  0.23723  0.26727  1.0000
  C   C7        1.0  0.26197  0.27952  0.25429  1.0000
  C   C8        1.0  0.52032  0.22689  0.08841  1.0000
  C   C9        1.0  0.46992  0.42696  0.14171  1.0000
  C   C10       1.0  0.38146  0.11892  0.20442  1.0000
  S   S6        1.0  0.12578  0.46171  0.27540  1.0000
  S   S7        1.0  0.48237  0.26745  0.09548  1.0000
  H   H10       1.0  0.30614  0.18326  0.25737  1.0000
  H   H11       1.0  0.49448  0.34217  0.10368  1.0000
  C   C11       1.0  0.45289  0.56199  0.15809  1.0000
  Fe  Fe2       1.0  0.04912  0.15110  0.13066  1.0000
  C   C12       1.0  0.09588  0.22458  0.12633  1.0000
  H   H12       1.0  0.36505  0.15032  0.19298  1.0000
  C   C13       1.0  0.12714  0.31561  0.14452  1.0000
  H   H13       1.0  0.05638  0.44407  0.16637  1.0000
  N   N1        1.0  0.24053  0.13425  0.30955  1.0000
  H   H14       1.0  0.10592  0.31601  0.31271  1.0000
  C   C14       1.0  0.10639  0.35267  0.11503  1.0000
  H   H15       1.0  0.10309  0.16571  0.29451  1.0000
  C   C15       1.0  0.15555  0.29158  0.11181  1.0000
  C   C16       1.0  0.04477  0.54938  0.13872  1.0000
  Fe  Fe3       1.0  0.23299  0.22601  0.09322  1.0000
  C   C17       1.0  0.51485  0.32427  0.13642  1.0000
  S   S8        1.0  0.52780  0.51483  0.23000  1.0000
  H   H16       1.0  0.29020  0.24533  0.18402  1.0000
  S   S9        1.0  0.43774  0.41175  0.16677  1.0000
  Fe  Fe4       1.0  0.12647  0.40437  0.27423  1.0000
  H   H17       1.0  0.33270  0.38870  0.15516  1.0000
  H   H18       1.0  0.09340  0.26994  0.16898  1.0000
  C   C18       1.0  0.15921  0.28346  0.29811  1.0000
  S   S10       1.0  0.24957  0.32273  0.20077  1.0000
  C   C19       1.0  0.21754  0.16005  0.26763  1.0000
  H   H19       1.0  0.16102  0.29884  0.25115  1.0000
  H   H20       1.0  0.52454  0.20898  0.18821  1.0000
  H   H21       1.0  0.44829  0.16435  0.24820  1.0000
  S   S11       1.0  0.34612  0.23038  0.09430  1.0000
  H   H22       1.0  0.23919  0.10105  0.15342  1.0000
  H   H23       1.0  0.48208  0.54015  0.07630  1.0000
  H   H24       1.0  0.39335  0.37387  0.15835  1.0000
  S   S12       1.0  0.15571  0.49235  0.09252  1.0000
  Fe  Fe5       1.0  0.20231  0.36900  0.23496  1.0000
  H   H25       1.0  0.41219  0.25854  0.24929  1.0000
  C   C20       1.0  0.20755  0.55451  0.09859  1.0000
  H   H26       1.0  0.08554  0.46849  0.07457  1.0000
  H   H27       1.0  0.20962  0.56110  0.19241  1.0000
  N   N2        1.0  0.39537  0.10951  0.26555  1.0000
  C   C21       1.0  0.53561  0.20232  0.14240  1.0000
  C   C22       1.0  0.48671  0.43262  0.18455  1.0000
  C   C23       1.0  0.19503  0.14128  0.10524  1.0000
  H   H28       1.0  0.04198  0.57879  0.13164  1.0000
  C   C24       1.0  0.09691  0.18770  0.13718  1.0000
  H   H29       1.0  0.19137  0.16503  0.12737  1.0000
  N   N3        1.0  0.36139  0.29523  0.22571  1.0000
  C   C25       1.0  0.35030  0.36022  0.17562  1.0000
  C   C26       1.0  0.49077  0.58665  0.09427  1.0000
  C   C27       1.0  0.45430  0.16794  0.19799  1.0000
  C   C28       1.0  0.33926  0.33129  0.19993  1.0000
  S   S13       1.0  0.20619  0.42377  0.23233  1.0000
  H   H30       1.0  0.10249  0.13701  0.20602  1.0000
  H   H31       1.0  0.43313  0.30816  0.20465  1.0000
  C   C29       1.0  0.10141  0.58998  0.16257  1.0000
  H   H32       1.0  0.33786  0.26157  0.21096  1.0000
  C   C30       1.0  0.38426  0.35189  0.17733  1.0000
  C   C31       1.0  0.27620  0.11613  0.28802  1.0000
  C   C32       1.0  0.10080  0.18224  0.24792  1.0000
  C   C33       1.0  0.29089  0.20979  0.27462  1.0000
  H   H33       1.0  0.38550  0.26930  0.10764  1.0000
  H   H34       1.0  0.50815  0.13578  0.20523  1.0000
  H   H35       1.0  0.16498  0.19661  0.25230  1.0000
  H   H36       1.0  0.52107  0.14500  0.09155  1.0000
  Fe  Fe6       1.0  0.42543  0.40400  0.27052  1.0000
  H   H37       1.0  0.22558  0.52446  0.10451  1.0000
  H   H38       1.0  0.31292  0.33764  0.19782  1.0000
  H   H39       1.0  0.40244  0.20039  0.17444  1.0000
  H   H40       1.0  0.12110  0.30588  0.19281  1.0000
  H   H41       1.0  0.37950  0.57386  0.25309  1.0000
  C   C34       1.0  0.09645  0.22035  0.23817  1.0000
  H   H42       1.0  0.03885  0.32696  0.19629  1.0000
  C   C35       1.0  0.10100  0.16587  0.19754  1.0000
  C   C36       1.0  0.49504  0.15750  0.10940  1.0000
  H   H43       1.0  0.48064  0.42661  0.23413  1.0000
  S   S14       1.0  0.08019  0.39383  0.27953  1.0000
  C   C37       1.0  0.40665  0.31499  0.20346  1.0000
  C   C38       1.0  0.47855  0.43397  0.07767  1.0000
  C   C39       1.0  0.51872  0.45537  0.09874  1.0000
  C   C40       1.0  0.48776  0.15200  0.17415  1.0000
  S   S15       1.0  0.15596  0.39819  0.18155  1.0000
  C   C41       1.0  0.43690  0.19378  0.09225  1.0000
  H   H44       1.0  0.22570  0.16827  0.21972  1.0000
  C   C42       1.0  0.51122  0.44665  0.16307  1.0000
  Fe  Fe7       1.0  0.15800  0.45328  0.18512  1.0000
  C   C43       1.0  0.47597  0.56083  0.10666  1.0000
  C   C44       1.0  0.06917  0.48743  0.10656  1.0000
  H   H45       1.0  0.21118  0.24346  0.29379  1.0000
  H   H46       1.0  0.13122  0.53037  0.19947  1.0000
  H   H47       1.0  0.52387  0.45113  0.19653  1.0000
  C   C45       1.0  0.42861  0.18845  0.15678  1.0000
  C   C46       1.0  0.09586  0.24081  0.17703  1.0000
  H   H48       1.0  0.35855  0.46518  0.10764  1.0000
  H   H49       1.0  0.22068  0.38125  0.08907  1.0000
  C   C47       1.0  0.28211  0.24490  0.23307  1.0000
  C   C48       1.0  0.44427  0.58973  0.19566  1.0000
  C   C49       1.0  0.39467  0.28692  0.22813  1.0000
  C   C50       1.0  0.13197  0.54065  0.09888  1.0000
  H   H50       1.0  0.32964  0.27390  0.28821  1.0000
  H   H51       1.0  0.23195  0.47449  0.29515  1.0000
  H   H52       1.0  0.39838  0.49531  0.08297  1.0000
  C   C51       1.0  0.36773  0.28733  0.07259  1.0000
  C   C52       1.0  0.23878  0.49421  0.31092  1.0000
  H   H53       1.0  0.29212  0.45761  0.30639  1.0000
  C   C53       1.0  0.19840  0.57493  0.14786  1.0000
  S   S16       1.0  0.37090  0.42567  0.30452  1.0000
  H   H54       1.0  0.37653  0.51250  0.30611  1.0000
  C   C54       1.0  0.06458  0.52559  0.09579  1.0000
  H   H55       1.0  0.09291  0.24153  0.07959  1.0000
  H   H56       1.0  0.36648  0.10243  0.20514  1.0000
  N   N4        1.0  0.46980  0.17897  0.06945  1.0000
  H   H57       1.0  0.30690  0.50122  0.34846  1.0000
  S   S17       1.0  0.43986  0.42226  0.34718  1.0000
  C   C55       1.0  0.36778  0.53631  0.33109  1.0000
  S   S18       1.0  0.28650  0.16497  0.38701  1.0000
  H   H58       1.0  0.42348  0.21139  0.48399  1.0000
  H   H59       1.0  0.18741  0.53583  0.32337  1.0000
  C   C56       1.0  0.38516  0.19959  0.54603  1.0000
  H   H60       1.0  0.52504  0.37276  0.35379  1.0000
  C   C57       1.0  0.12849  0.29370  0.33382  1.0000
  C   C58       1.0  0.51441  0.59211  0.41608  1.0000
  C   C59       1.0  0.27254  0.48462  0.31760  1.0000
  Fe  Fe8       1.0  0.38648  0.43820  0.38588  1.0000
  N   N5        1.0  0.25600  0.54279  0.35771  1.0000
  C   C60       1.0  0.26537  0.56744  0.38438  1.0000
  H   H61       1.0  0.43068  0.49420  0.40473  1.0000
  H   H62       1.0  0.11666  0.10747  0.36650  1.0000
  C   C61       1.0  0.52013  0.43291  0.50073  1.0000
  C   C62       1.0  0.15862  0.56724  0.47498  1.0000
  C   C63       1.0  0.28660  0.35615  0.34685  1.0000
  C   C64       1.0  0.38638  0.10645  0.37712  1.0000
  C   C65       1.0  0.17225  0.16541  0.34696  1.0000
  Fe  Fe9       1.0  0.04956  0.21379  0.52560  1.0000
  S   S19       1.0  0.17283  0.36946  0.32799  1.0000
  C   C66       1.0  0.52906  0.58467  0.35650  1.0000
  S   S20       1.0  0.26321  0.22067  0.52739  1.0000
  C   C67       1.0  0.18801  0.55346  0.50665  1.0000
  S   S21       1.0  0.05404  0.16499  0.38863  1.0000
  C   C68       1.0  0.28753  0.29094  0.46690  1.0000
  C   C69       1.0  0.48379  0.23430  0.51860  1.0000
  C   C70       1.0  0.23987  0.40626  0.39425  1.0000
  C   C71       1.0  0.05743  0.57530  0.52651  1.0000
  S   S22       1.0  0.22197  0.50980  0.49482  1.0000
  C   C72       1.0  0.25200  0.37677  0.35913  1.0000
  C   C73       1.0  0.40236  0.20420  0.48760  1.0000
  S   S23       1.0  0.50553  0.11709  0.34353  1.0000
  C   C74       1.0  0.35546  0.53236  0.39370  1.0000
  H   H63       1.0  0.28172  0.27862  0.43347  1.0000
  C   C75       1.0  0.23013  0.12397  0.37008  1.0000
  C   C76       1.0  0.36218  0.30013  0.50742  1.0000
  H   H64       1.0  0.20336  0.57969  0.36185  1.0000
  C   C77       1.0  0.41692  0.51748  0.51198  1.0000
  H   H65       1.0  0.08715  0.39606  0.40841  1.0000
  H   H66       1.0  0.07104  0.54644  0.51589  1.0000
  C   C78       1.0  0.19583  0.13947  0.38978  1.0000
  C   C79       1.0  0.53389  0.44957  0.44729  1.0000
  H   H67       1.0  0.09302  0.26336  0.46746  1.0000
  C   C80       1.0  0.46196  0.53600  0.47927  1.0000
  C   C81       1.0  0.34876  0.18414  0.49716  1.0000
  H   H68       1.0  0.15404  0.23231  0.46842  1.0000
  H   H69       1.0  0.33956  0.27159  0.43437  1.0000
  H   H70       1.0  0.31554  0.39938  0.42620  1.0000
  H   H71       1.0  0.25372  0.43641  0.44740  1.0000
  H   H72       1.0  0.45736  0.28900  0.46001  1.0000
  H   H73       1.0  0.23477  0.36972  0.34090  1.0000
  C   C82       1.0  0.18781  0.25272  0.32286  1.0000
  H   H74       1.0  0.50947  0.41365  0.49655  1.0000
  H   H75       1.0  0.46844  0.50113  0.38481  1.0000
  H   H76       1.0  0.18755  0.13045  0.43729  1.0000
  S   S24       1.0  0.29904  0.12647  0.56308  1.0000
  C   C83       1.0  0.25952  0.24399  0.35900  1.0000
  Fe  Fe10      1.0  0.26864  0.17104  0.48679  1.0000
  H   H77       1.0  0.23657  0.31549  0.50708  1.0000
  H   H78       1.0  0.16917  0.41524  0.51989  1.0000
  H   H79       1.0  0.33344  0.56057  0.47363  1.0000
  C   C84       1.0  0.22292  0.55312  0.34914  1.0000
  H   H80       1.0  0.29538  0.33367  0.31921  1.0000
  C   C85       1.0  0.28073  0.50930  0.34158  1.0000
  H   H81       1.0  0.44595  0.37552  0.54203  1.0000
  N   N6        1.0  0.12672  0.27502  0.39391  1.0000
  H   H82       1.0  0.36158  0.32936  0.49545  1.0000
  H   H83       1.0  0.09160  0.31082  0.45535  1.0000
  H   H84       1.0  0.05040  0.39187  0.50502  1.0000
  C   C86       1.0  0.29783  0.39312  0.40721  1.0000
  H   H85       1.0  0.23619  0.30579  0.33453  1.0000
  C   C87       1.0  0.26287  0.41377  0.41983  1.0000
  S   S25       1.0  0.35285  0.33722  0.35416  1.0000
  C   C88       1.0  0.34353  0.56338  0.42549  1.0000
  Fe  Fe11      1.0  0.46883  0.16490  0.39242  1.0000
  H   H86       1.0  0.27908  0.58087  0.34778  1.0000
  C   C89       1.0  0.32042  0.28671  0.46801  1.0000
  C   C90       1.0  0.27899  0.20921  0.33746  1.0000
  C   C91       1.0  0.52617  0.26552  0.53878  1.0000
  C   C92       1.0  0.09452  0.28746  0.43142  1.0000
  S   S26       1.0  0.35649  0.48840  0.43467  1.0000
  H   H87       1.0  0.35758  0.18578  0.39742  1.0000
  C   C93       1.0  0.25131  0.27914  0.31761  1.0000
  C   C94       1.0  0.30962  0.36452  0.37003  1.0000
  C   C95       1.0  0.36528  0.18983  0.43862  1.0000
  S   S27       1.0  0.21956  0.17214  0.53191  1.0000
  S   S28       1.0  0.47266  0.12758  0.48688  1.0000
  H   H88       1.0  0.07292  0.29818  0.40160  1.0000
  H   H89       1.0  0.32909  0.17493  0.50015  1.0000
  H   H90       1.0  0.14555  0.17700  0.36084  1.0000
  H   H91       1.0  0.24294  0.59063  0.40347  1.0000
  C   C96       1.0  0.18609  0.23421  0.38453  1.0000
  Fe  Fe12      1.0  0.44963  0.36308  0.40093  1.0000
  S   S29       1.0  0.19611  0.43513  0.40108  1.0000
  C   C97       1.0  0.37390  0.11556  0.31805  1.0000
  C   C98       1.0  0.04347  0.39066  0.46110  1.0000
  C   C99       1.0  0.05571  0.39035  0.34962  1.0000
  Fe  Fe13      1.0  0.17468  0.42617  0.32292  1.0000
  C   C100      1.0  0.30332  0.32389  0.54880  1.0000
  H   H92       1.0  0.36911  0.11151  0.41846  1.0000
  S   S30       1.0  0.43920  0.34357  0.32138  1.0000
  C   C101      1.0  0.19021  0.57482  0.54718  1.0000
  Fe  Fe14      1.0  0.38534  0.36635  0.35995  1.0000
  C   C102      1.0  0.21376  0.52867  0.32671  1.0000
  S   S31       1.0  0.39696  0.38016  0.44445  1.0000
  S   S32       1.0  0.49521  0.33287  0.45807  1.0000
  C   C103      1.0  0.35827  0.18946  0.55101  1.0000
  H   H93       1.0  0.15694  0.55083  0.44323  1.0000
  N   N7        1.0  0.44059  0.52217  0.46704  1.0000
  C   C104      1.0  0.44191  0.51452  0.40419  1.0000
  N   N8        1.0  0.32794  0.30323  0.50843  1.0000
  H   H94       1.0  0.46744  0.22225  0.51055  1.0000
  C   C105      1.0  0.26223  0.31192  0.50789  1.0000
  C   C106      1.0  0.49975  0.28737  0.49896  1.0000
  S   S33       1.0  0.41642  0.20057  0.36274  1.0000
  H   H95       1.0  0.48023  0.54046  0.44325  1.0000
  C   C107      1.0  0.47803  0.27211  0.49015  1.0000
  H   H96       1.0  0.51948  0.56866  0.45551  1.0000
  H   H97       1.0  0.37943  0.28375  0.47126  1.0000
  Fe  Fe15      1.0  0.51427  0.14256  0.49814  1.0000
  H   H98       1.0  0.39938  0.50746  0.50182  1.0000
  C   C108      1.0  0.06440  0.39271  0.40650  1.0000
  H   H99       1.0  0.28177  0.54997  0.42383  1.0000
  H   H100      1.0  0.24914  0.24405  0.40652  1.0000
  C   C109      1.0  0.15522  0.24625  0.42010  1.0000
  C   C110      1.0  0.39250  0.19918  0.43395  1.0000
  H   H101      1.0  0.20860  0.21074  0.40419  1.0000
  Fe  Fe16      1.0  0.06912  0.21269  0.38663  1.0000
  Fe  Fe17      1.0  0.08103  0.13798  0.47741  1.0000
  H   H102      1.0  0.42792  0.54195  0.37269  1.0000
  S   S34       1.0  0.50765  0.18353  0.40665  1.0000
  S   S35       1.0  0.09833  0.18414  0.47232  1.0000
  H   H103      1.0  0.19235  0.45835  0.54444  1.0000
  C   C111      1.0  0.51131  0.21163  0.55546  1.0000
  H   H104      1.0  0.37281  0.28576  0.55370  1.0000
  H   H105      1.0  0.08675  0.45512  0.52786  1.0000
  H   H106      1.0  0.38651  0.42282  0.55286  1.0000
  C   C112      1.0  0.27013  0.32848  0.54932  1.0000
  H   H107      1.0  0.16800  0.35142  0.55536  1.0000
  C   C113      1.0  0.06403  0.45153  0.54663  1.0000
  H   H108      1.0  0.29276  0.10236  0.32785  1.0000
  H   H109      1.0  0.24827  0.10315  0.40320  1.0000
  C   C114      1.0  0.52078  0.44072  0.55972  1.0000
  C   C115      1.0  0.46080  0.54427  0.53848  1.0000
  H   H110      1.0  0.47818  0.55471  0.54820  1.0000
  S   S36       1.0  0.53499  0.43821  0.37424  1.0000
  H   H111      1.0  0.34699  0.12685  0.31463  1.0000
  C   C116      1.0  0.28499  0.50838  0.80830  1.0000
  H   H112      1.0  0.25088  0.59222  0.65159  1.0000
  C   C117      1.0  0.09489  0.23615  0.77333  1.0000
  C   C118      1.0  0.06534  0.58473  0.57758  1.0000
  S   S37       1.0  0.52223  0.16223  0.57991  1.0000
  C   C119      1.0  0.08427  0.14058  0.67921  1.0000
  H   H113      1.0  0.08546  0.56336  0.60655  1.0000
  H   H114      1.0  0.51140  0.35972  0.64408  1.0000
  Fe  Fe18      1.0  0.24931  0.13163  0.61259  1.0000
  Fe  Fe19      1.0  0.25161  0.44141  0.71313  1.0000
  H   H115      1.0  0.27051  0.29388  0.74520  1.0000
  C   C120      1.0  0.44767  0.19859  0.69241  1.0000
  C   C121      1.0  0.32209  0.53887  0.80648  1.0000
  H   H116      1.0  0.05862  0.15986  0.66736  1.0000
  N   N9        1.0  0.45933  0.38205  0.62646  1.0000
  S   S38       1.0  0.33619  0.18425  0.62392  1.0000
  S   S39       1.0  0.30537  0.42725  0.72351  1.0000
  S   S40       1.0  0.22076  0.42442  0.79421  1.0000
  H   H117      1.0  0.35212  0.19089  0.74181  1.0000
  Fe  Fe20      1.0  0.29445  0.48652  0.66989  1.0000
  C   C122      1.0  0.44809  0.39886  0.67870  1.0000
  C   C123      1.0  0.14793  0.56774  0.72853  1.0000
  H   H118      1.0  0.33958  0.55018  0.78106  1.0000
  H   H119      1.0  0.06513  0.35977  0.67109  1.0000
  S   S41       1.0  0.23922  0.50281  0.66873  1.0000
  H   H120      1.0  0.45652  0.21281  0.64848  1.0000
  C   C124      1.0  0.06563  0.42012  0.59351  1.0000
  C   C125      1.0  0.38919  0.34592  0.71519  1.0000
  H   H121      1.0  0.18067  0.35507  0.74332  1.0000
  H   H122      1.0  0.40540  0.43868  0.72791  1.0000
  H   H123      1.0  0.35003  0.24960  0.66771  1.0000
  H   H124      1.0  0.43730  0.17997  0.68071  1.0000
  H   H125      1.0  0.19907  0.19617  0.78478  1.0000
  C   C126      1.0  0.13580  0.26698  0.59372  1.0000
  S   S42       1.0  0.26230  0.42018  0.62230  1.0000
  Fe  Fe21      1.0  0.21682  0.21846  0.57913  1.0000
  C   C127      1.0  0.41446  0.42551  0.68634  1.0000
  C   C128      1.0  0.17868  0.40428  0.67281  1.0000
  N   N10       1.0  0.12930  0.11837  0.74694  1.0000
  H   H126      1.0  0.13842  0.54910  0.65169  1.0000
  H   H127      1.0  0.46690  0.22300  0.77666  1.0000
  Fe  Fe22      1.0  0.29155  0.17638  0.60567  1.0000
  Fe  Fe23      1.0  0.25349  0.48073  0.57790  1.0000
  C   C129      1.0  0.13977  0.54404  0.70191  1.0000
  C   C130      1.0  0.13873  0.22927  0.60480  1.0000
  H   H128      1.0  0.25067  0.34518  0.58102  1.0000
  H   H129      1.0  0.46508  0.39137  0.71504  1.0000
  H   H130      1.0  0.43606  0.54541  0.63092  1.0000
  H   H131      1.0  0.08055  0.16394  0.76047  1.0000
  C   C131      1.0  0.30771  0.52281  0.77549  1.0000
  H   H132      1.0  0.49095  0.12477  0.69552  1.0000
  N   N11       1.0  0.03699  0.41532  0.61674  1.0000
  H   H133      1.0  0.41315  0.33954  0.79731  1.0000
  S   S43       1.0  0.48288  0.28817  0.77680  1.0000
  Fe  Fe24      1.0  0.31565  0.40972  0.62977  1.0000
  H   H134      1.0  0.50377  0.35491  0.56945  1.0000
  C   C132      1.0  0.14256  0.12146  0.80148  1.0000
  C   C133      1.0  0.43752  0.39007  0.58202  1.0000
  N   N12       1.0  0.47576  0.17586  0.73313  1.0000
  C   C134      1.0  0.34048  0.28239  0.74134  1.0000
  H   H135      1.0  0.15709  0.13909  0.78611  1.0000
  H   H136      1.0  0.17403  0.32096  0.66768  1.0000
  H   H137      1.0  0.05042  0.31536  0.58901  1.0000
  C   C135      1.0  0.24914  0.35149  0.76582  1.0000
  C   C136      1.0  0.09694  0.14279  0.73175  1.0000
  C   C137      1.0  0.13241  0.51476  0.74023  1.0000
  S   S44       1.0  0.35928  0.35497  0.60866  1.0000
  H   H138      1.0  0.22132  0.58757  0.75104  1.0000
  C   C138      1.0  0.49454  0.35392  0.61954  1.0000
  H   H139      1.0  0.11253  0.19346  0.61440  1.0000
  H   H140      1.0  0.33936  0.30803  0.70891  1.0000
  C   C139      1.0  0.11005  0.22261  0.60775  1.0000
  C   C140      1.0  0.34644  0.24958  0.71772  1.0000
  C   C141      1.0  0.41650  0.33056  0.75284  1.0000
  C   C142      1.0  0.53181  0.22769  0.56743  1.0000
  H   H141      1.0  0.52706  0.38100  0.81014  1.0000
  H   H142      1.0  0.21675  0.23042  0.77795  1.0000
  H   H143      1.0  0.10370  0.20798  0.76161  1.0000
  H   H144      1.0  0.42669  0.22083  0.71620  1.0000
  C   C143      1.0  0.27210  0.16991  0.81059  1.0000
  H   H145      1.0  0.49679  0.32441  0.63949  1.0000
  C   C144      1.0  0.10488  0.11324  0.64222  1.0000
  S   S45       1.0  0.24411  0.17823  0.66250  1.0000
  H   H146      1.0  0.08994  0.39933  0.61062  1.0000
  C   C145      1.0  0.48257  0.19301  0.77358  1.0000
  C   C146      1.0  0.34732  0.21667  0.75920  1.0000
  H   H147      1.0  0.27494  0.18740  0.76621  1.0000
  H   H148      1.0  0.14327  0.23800  0.75026  1.0000
  H   H149      1.0  0.18096  0.41935  0.70636  1.0000
  H   H150      1.0  0.39297  0.20341  0.58726  1.0000
  S   S46       1.0  0.17212  0.27510  0.58101  1.0000
  C   C147      1.0  0.52304  0.11622  0.76659  1.0000
  C   C148      1.0  0.21063  0.20796  0.81080  1.0000
  H   H151      1.0  0.14997  0.48068  0.57898  1.0000
  H   H152      1.0  0.25760  0.36344  0.72115  1.0000
  C   C149      1.0  0.39296  0.33458  0.65760  1.0000
  S   S47       1.0  0.30800  0.46831  0.57614  1.0000
  C   C150      1.0  0.49581  0.13808  0.72877  1.0000
  C   C151      1.0  0.25647  0.31214  0.77946  1.0000
  C   C152      1.0  0.10397  0.29810  0.58892  1.0000
  C   C153      1.0  0.11737  0.25311  0.76695  1.0000
  H   H153      1.0  0.27332  0.49653  0.78456  1.0000
  H   H154      1.0  0.39578  0.52245  0.60691  1.0000
  H   H155      1.0  0.15273  0.59094  0.69871  1.0000
  C   C154      1.0  0.04458  0.58645  0.79346  1.0000
  C   C155      1.0  0.50968  0.17208  0.81190  1.0000
  C   C156      1.0  0.42403  0.30664  0.63866  1.0000
  C   C157      1.0  0.52990  0.13335  0.80853  1.0000
  C   C158      1.0  0.45157  0.29150  0.67607  1.0000
  H   H156      1.0  0.47582  0.27070  0.66045  1.0000
  C   C159      1.0  0.17458  0.34893  0.65162  1.0000
  S   S48       1.0  0.08223  0.41537  0.74148  1.0000
  C   C160      1.0  0.41483  0.52581  0.57160  1.0000
  S   S49       1.0  0.31744  0.52148  0.69556  1.0000
  C   C161      1.0  0.17832  0.36812  0.69409  1.0000
  C   C162      1.0  0.44795  0.30415  0.73261  1.0000
  S   S50       1.0  0.11664  0.48997  0.70693  1.0000
  H   H157      1.0  0.36539  0.36659  0.73108  1.0000
  Fe  Fe25      1.0  0.10230  0.44870  0.77927  1.0000
  C   C163      1.0  0.39233  0.43454  0.64047  1.0000
  H   H158      1.0  0.36617  0.45482  0.64613  1.0000
  H   H159      1.0  0.51089  0.42734  0.60136  1.0000
  C   C164      1.0  0.17184  0.40207  0.56890  1.0000
  C   C165      1.0  0.17594  0.45851  0.58834  1.0000
  S   S51       1.0  0.04277  0.24544  0.60248  1.0000
  H   H160      1.0  0.30915  0.33757  0.57996  1.0000
  C   C166      1.0  0.43717  0.53898  0.58492  1.0000
  C   C167      1.0  0.40382  0.41671  0.58799  1.0000
  H   H161      1.0  0.16306  0.20515  0.61100  1.0000
  H   H162      1.0  0.18541  0.46733  0.62333  1.0000
  C   C168      1.0  0.07825  0.25366  0.60266  1.0000
  N   N13       1.0  0.17586  0.42054  0.61070  1.0000
  H   H163      1.0  0.06297  0.33877  0.80859  1.0000
  C   C169      1.0  0.17117  0.36603  0.58863  1.0000
  C   C170      1.0  0.06133  0.25548  0.79548  1.0000
  H   H164      1.0  0.42710  0.29752  0.59426  1.0000
  C   C171      1.0  0.07507  0.29140  0.59415  1.0000
  H   H165      1.0  0.10173  0.32726  0.57983  1.0000
  C   C172      1.0  0.03877  0.38212  0.66518  1.0000
  Fe  Fe26      1.0  0.42599  0.10279  0.80015  1.0000
  H   H166      1.0  0.09497  0.11052  0.60260  1.0000
  H   H167      1.0  0.07152  0.57142  0.78315  1.0000
  S   S52       1.0  0.13548  0.30861  0.78174  1.0000
  C   C173      1.0  0.10630  0.28957  0.78227  1.0000
  C   C174      1.0  0.07220  0.30992  0.80010  1.0000
  C   C175      1.0  0.04981  0.29272  0.80770  1.0000
  H   H168      1.0  0.21329  0.56523  0.56963  1.0000
  H   H169      1.0  0.32359  0.34254  0.79121  1.0000
  C   C176      1.0  0.14919  0.56200  0.79342  1.0000
  C   C177      1.0  0.13487  0.50794  0.80509  1.0000
  C   C178      1.0  0.23063  0.37510  0.81003  1.0000
  N   N14       1.0  0.33526  0.28238  0.80447  1.0000
  Fe  Fe27      1.0  0.10973  0.36559  0.81394  1.0000
  C   C179      1.0  0.53533  0.46499  0.56486  1.0000
  S   S53       1.0  0.43645  0.38198  0.85266  1.0000
  H   H170      1.0  0.38882  0.17525  0.95300  1.0000
  H   H171      1.0  0.30436  0.32440  0.86024  1.0000
  H   H172      1.0  0.18166  0.45091  0.91571  1.0000
  C   C180      1.0  0.32787  0.31713  0.82903  1.0000
  C   C181      1.0  0.33658  0.25002  0.84545  1.0000
  H   H173      1.0  0.08770  0.14496  0.96586  1.0000
  H   H174      1.0  0.40860  0.14531  0.06021  1.0000
  C   C182      1.0  0.16154  0.30364  0.04795  1.0000
  H   H175      1.0  0.27826  0.43386  0.96244  1.0000
  S   S54       1.0  0.42029  0.15565  0.83156  1.0000
  S   S55       1.0  0.35052  0.38614  0.95014  1.0000
  C   C183      1.0  0.20123  0.43841  0.94870  1.0000
  C   C184      1.0  0.22309  0.39944  0.04518  1.0000
  H   H176      1.0  0.20141  0.55734  0.00240  1.0000
  S   S56       1.0  0.49627  0.41618  0.91823  1.0000
  C   C185      1.0  0.32201  0.33489  0.98173  1.0000
  C   C186      1.0  0.45669  0.10373  0.02819  1.0000
  C   C187      1.0  0.50271  0.44851  0.05613  1.0000
  C   C188      1.0  0.19378  0.57332  0.04072  1.0000
  C   C189      1.0  0.36904  0.46937  0.06003  1.0000
  H   H177      1.0  0.43796  0.51132  0.01360  1.0000
  C   C190      1.0  0.14347  0.53150  0.83172  1.0000
  H   H178      1.0  0.36184  0.10256  0.02816  1.0000
  Fe  Fe28      1.0  0.40647  0.36597  0.93702  1.0000
  H   H179      1.0  0.20447  0.37738  0.90121  1.0000
  C   C191      1.0  0.53471  0.21808  0.02935  1.0000
  C   C192      1.0  0.42796  0.51063  0.97076  1.0000
  H   H180      1.0  0.16046  0.12053  0.99934  1.0000
  C   C193      1.0  0.12097  0.56824  0.04479  1.0000
  S   S57       1.0  0.15346  0.59620  0.82617  1.0000
  Fe  Fe29      1.0  0.47064  0.37797  0.92175  1.0000
  H   H181      1.0  0.12937  0.48515  0.83477  1.0000
  C   C194      1.0  0.22759  0.31984  0.88183  1.0000
  C   C195      1.0  0.39168  0.48636  0.04575  1.0000
  C   C196      1.0  0.41353  0.15159  0.95941  1.0000
  C   C197      1.0  0.16804  0.40819  0.01903  1.0000
  H   H182      1.0  0.46741  0.17263  0.97717  1.0000
  H   H183      1.0  0.17364  0.37965  0.04946  1.0000
  H   H184      1.0  0.50904  0.58572  0.05481  1.0000
  C   C198      1.0  0.13983  0.34007  0.01762  1.0000
  H   H185      1.0  0.46606  0.42879  0.04459  1.0000
  C   C199      1.0  0.23739  0.15428  0.89524  1.0000
  S   S58       1.0  0.05849  0.46959  0.84901  1.0000
  S   S59       1.0  0.27871  0.52867  0.98222  1.0000
  H   H186      1.0  0.26339  0.10758  0.96921  1.0000
  Fe  Fe30      1.0  0.28947  0.15177  0.05854  1.0000
  H   H187      1.0  0.40749  0.48433  0.89163  1.0000
  C   C200      1.0  0.34595  0.34570  0.99521  1.0000
  H   H188      1.0  0.50517  0.17560  0.98981  1.0000
  C   C201      1.0  0.34238  0.21684  0.82340  1.0000
  S   S60       1.0  0.43527  0.30245  0.93936  1.0000
  H   H189      1.0  0.27189  0.39303  0.06373  1.0000
  H   H190      1.0  0.38713  0.33027  0.05186  1.0000
  S   S61       1.0  0.06622  0.38067  0.88588  1.0000
  C   C202      1.0  0.43433  0.13766  0.90729  1.0000
  C   C203      1.0  0.29790  0.11942  0.89697  1.0000
  C   C204      1.0  0.30105  0.14150  0.83905  1.0000
  C   C205      1.0  0.07236  0.09855  0.98494  1.0000
  C   C206      1.0  0.06755  0.13665  0.96488  1.0000
  H   H191      1.0  0.32519  0.55223  0.89435  1.0000
  H   H192      1.0  0.25825  0.50017  0.89678  1.0000
  H   H193      1.0  0.30417  0.29077  0.99954  1.0000
  C   C207      1.0  0.23010  0.44510  0.93275  1.0000
  C   C208      1.0  0.42459  0.13432  0.02013  1.0000
  Fe  Fe31      1.0  0.46847  0.30557  0.00247  1.0000
  H   H194      1.0  0.12823  0.55972  0.99919  1.0000
  H   H195      1.0  0.46630  0.21810  0.98420  1.0000
  H   H196      1.0  0.14429  0.52713  0.88197  1.0000
  S   S62       1.0  0.25581  0.26330  0.03144  1.0000
  C   C209      1.0  0.35989  0.45825  0.01244  1.0000
  H   H197      1.0  0.15763  0.40821  0.97619  1.0000
  C   C210      1.0  0.47761  0.18658  0.00177  1.0000
  Fe  Fe32      1.0  0.26550  0.22562  0.96110  1.0000
  C   C211      1.0  0.25207  0.40615  0.03124  1.0000
  H   H198      1.0  0.21550  0.59143  0.86298  1.0000
  C   C212      1.0  0.31371  0.54038  0.87043  1.0000
  S   S63       1.0  0.13425  0.39711  0.84600  1.0000
  H   H199      1.0  0.52277  0.23673  0.98756  1.0000
  S   S64       1.0  0.25967  0.24635  0.85800  1.0000
  H   H200      1.0  0.32017  0.09736  0.91988  1.0000
  C   C213      1.0  0.25561  0.42903  0.97446  1.0000
  H   H201      1.0  0.51498  0.18598  0.84356  1.0000
  C   C214      1.0  0.39673  0.48024  0.93906  1.0000
  N   N15       1.0  0.19835  0.41519  0.00370  1.0000
  H   H202      1.0  0.50852  0.45500  0.00645  1.0000
  C   C215      1.0  0.46598  0.10687  0.91584  1.0000
  Fe  Fe33      1.0  0.28777  0.57273  0.01550  1.0000
  Fe  Fe34      1.0  0.08856  0.41538  0.91346  1.0000
  H   H203      1.0  0.30457  0.35307  0.94607  1.0000
  H   H204      1.0  0.19185  0.22326  0.84666  1.0000
  H   H205      1.0  0.34911  0.31241  0.85580  1.0000
  C   C216      1.0  0.27657  0.51013  0.87192  1.0000
  H   H206      1.0  0.21848  0.30801  0.92608  1.0000
  C   C217      1.0  0.17784  0.11634  0.03294  1.0000
  H   H207      1.0  0.36651  0.45529  0.91434  1.0000
  H   H208      1.0  0.07689  0.53635  0.05465  1.0000
  C   C218      1.0  0.26589  0.12521  0.92472  1.0000
  C   C219      1.0  0.32169  0.29963  0.01227  1.0000
  C   C220      1.0  0.21947  0.35927  0.86755  1.0000
  C   C221      1.0  0.37383  0.46361  0.95158  1.0000
  S   S65       1.0  0.31660  0.18299  0.99293  1.0000
  H   H209      1.0  0.23272  0.46201  0.88755  1.0000
  S   S66       1.0  0.23910  0.19151  0.02050  1.0000
  H   H210      1.0  0.53490  0.33422  0.01538  1.0000
  S   S67       1.0  0.08800  0.41240  0.01630  1.0000
  C   C222      1.0  0.34467  0.27565  0.05762  1.0000
  H   H211      1.0  0.34173  0.44589  0.02229  1.0000
  H   H212      1.0  0.34328  0.19126  0.85595  1.0000
  H   H213      1.0  0.18284  0.28490  0.02181  1.0000
  N   N16       1.0  0.40532  0.49141  0.98590  1.0000
  C   C223      1.0  0.29083  0.52607  0.90306  1.0000
  N   N17       1.0  0.24081  0.17688  0.83976  1.0000
  S   S68       1.0  0.50386  0.31527  0.92316  1.0000
  S   S69       1.0  0.43767  0.36809  0.00549  1.0000
  H   H214      1.0  0.21257  0.15934  0.91769  1.0000
  H   H215      1.0  0.12182  0.13490  0.83619  1.0000
  Fe  Fe35      1.0  0.46748  0.31810  0.85985  1.0000
  C   C224      1.0  0.36853  0.32209  0.04119  1.0000
  H   H216      1.0  0.05459  0.10334  0.85662  1.0000
  H   H217      1.0  0.33243  0.24998  0.89547  1.0000
  H   H218      1.0  0.15269  0.17519  0.04824  1.0000
  H   H219      1.0  0.41692  0.20979  0.06026  1.0000
  H   H220      1.0  0.14476  0.34918  0.96844  1.0000
  H   H221      1.0  0.41403  0.54088  0.94733  1.0000
  C   C225      1.0  0.24657  0.29616  0.83826  1.0000
  H   H222      1.0  0.44999  0.49504  0.93995  1.0000
  H   H223      1.0  0.14840  0.43102  0.04350  1.0000
  C   C226      1.0  0.11287  0.36509  0.05167  1.0000
  H   H224      1.0  0.53113  0.52485  0.93698  1.0000
  S   S70       1.0  0.39014  0.58297  0.06362  1.0000
  C   C227      1.0  0.17324  0.14700  0.06080  1.0000
  Fe  Fe36      1.0  0.33579  0.59647  0.06015  1.0000
  Fe  Fe37      1.0  0.04032  0.43295  0.81511  1.0000
  C   C228      1.0  0.03650  0.16428  0.94397  1.0000
  H   H225      1.0  0.32566  0.13654  0.81573  1.0000
  H   H226      1.0  0.19475  0.99808  0.19803  1.0000
  H   H227      1.0  0.14443  0.66178  0.07382  1.0000
  C   C229      1.0  0.40769  0.77363  0.22943  1.0000
  H   H228      1.0  0.12179  0.92725  0.21642  1.0000
  H   H229      1.0  0.05490  0.97762  0.30796  1.0000
  C   C230      1.0  0.45796  0.79214  0.25169  1.0000
  H   H230      1.0  0.43038  0.88303  0.14187  1.0000
  S   S71       1.0  0.47364  0.08492  0.10183  1.0000
  H   H231      1.0  0.42124  0.66582  0.21368  1.0000
  C   C231      1.0  0.10040  0.99902  0.09099  1.0000
  H   H232      1.0  0.49070  0.94588  0.07578  1.0000
  H   H233      1.0  0.44658  0.73142  0.17933  1.0000
  H   H234      1.0  0.30085  0.68377  0.25123  1.0000
  S   S72       1.0  0.06373  0.08872  0.16943  1.0000
  S   S73       1.0  0.15411  0.85477  0.29372  1.0000
  H   H235      1.0  0.32838  0.72204  0.27233  1.0000
  C   C232      1.0  0.43504  0.90816  0.13986  1.0000
  C   C233      1.0  0.04193  0.94513  0.25846  1.0000
  S   S74       1.0  0.30378  0.08818  0.08343  1.0000
  N   N18       1.0  0.22613  0.07500  0.09271  1.0000
  H   H236      1.0  0.49192  0.74769  0.19980  1.0000
  C   C234      1.0  0.23967  0.90803  0.22183  1.0000
  N   N19       1.0  0.44605  0.97340  0.13163  1.0000
  H   H237      1.0  0.38772  0.76719  0.21979  1.0000
  C   C235      1.0  0.17787  0.71305  0.28257  1.0000
  H   H238      1.0  0.08959  0.03003  0.07981  1.0000
  Fe  Fe38      1.0  0.04457  0.81997  0.09978  1.0000
  H   H239      1.0  0.44955  0.63138  0.27217  1.0000
  H   H240      1.0  0.24568  0.92461  0.12179  1.0000
  H   H241      1.0  0.21027  0.67690  0.12441  1.0000
  C   C236      1.0  0.25534  0.89500  0.27832  1.0000
  C   C237      1.0  0.10623  0.98092  0.15295  1.0000
  H   H242      1.0  0.38953  0.93701  0.19462  1.0000
  H   H243      1.0  0.10048  0.99769  0.18960  1.0000
  H   H244      1.0  0.43059  0.03094  0.14725  1.0000
  C   C238      1.0  0.30165  0.73608  0.26479  1.0000
  S   S75       1.0  0.29391  0.65049  0.08691  1.0000
  C   C239      1.0  0.21130  0.66105  0.22479  1.0000
  H   H245      1.0  0.51854  0.82036  0.16525  1.0000
  C   C240      1.0  0.41212  0.93844  0.16953  1.0000
  H   H246      1.0  0.27470  0.03398  0.06827  1.0000
  H   H247      1.0  0.12079  0.86992  0.17587  1.0000
  C   C241      1.0  0.44076  0.75355  0.20661  1.0000
  C   C242      1.0  0.20117  0.68665  0.16868  1.0000
  H   H248      1.0  0.46405  0.66049  0.21149  1.0000
  H   H249      1.0  0.29547  0.72799  0.07681  1.0000
  H   H250      1.0  0.45852  0.01983  0.25150  1.0000
  H   H251      1.0  0.15103  0.03084  0.20031  1.0000
  C   C243      1.0  0.17911  0.72520  0.16940  1.0000
  C   C244      1.0  0.17502  0.02090  0.22270  1.0000
  H   H252      1.0  0.48123  0.88763  0.08243  1.0000
  H   H253      1.0  0.23491  0.82237  0.26028  1.0000
  N   N20       1.0  0.17190  0.00576  0.28962  1.0000
  C   C245      1.0  0.46263  0.99395  0.28541  1.0000
  Fe  Fe39      1.0  0.17390  0.89530  0.30818  1.0000
  S   S76       1.0  0.32799  0.99819  0.24339  1.0000
  C   C246      1.0  0.25778  0.91444  0.16564  1.0000
  C   C247      1.0  0.29129  0.90879  0.16615  1.0000
  C   C248      1.0  0.41779  0.84302  0.30781  1.0000
  C   C249      1.0  0.17535  0.61363  0.13903  1.0000
  H   H254      1.0  0.18197  0.04538  0.21654  1.0000
  H   H255      1.0  0.47770  0.79963  0.25913  1.0000
  H   H256      1.0  0.37470  0.81826  0.28100  1.0000
  Fe  Fe40      1.0  0.26683  0.61310  0.12694  1.0000
  Fe  Fe41      1.0  0.11166  0.80582  0.14096  1.0000
  C   C250      1.0  0.28629  0.71431  0.25236  1.0000
  H   H257      1.0  0.11871  0.03932  0.29818  1.0000
  S   S77       1.0  0.19687  0.91913  0.22100  1.0000
  C   C251      1.0  0.30645  0.89739  0.22300  1.0000
  H   H258      1.0  0.20657  0.78484  0.23833  1.0000
  H   H259      1.0  0.16374  0.86545  0.15813  1.0000
  C   C252      1.0  0.40050  0.80263  0.26367  1.0000
  N   N21       1.0  0.28322  0.77432  0.26796  1.0000
  H   H260      1.0  0.39952  0.99496  0.18650  1.0000
  C   C253      1.0  0.36772  0.64416  0.12415  1.0000
  N   N22       1.0  0.45852  0.61525  0.18281  1.0000
  C   C254      1.0  0.28862  0.88999  0.27893  1.0000
  S   S78       1.0  0.09096  0.76622  0.12595  1.0000
  C   C255      1.0  0.08997  0.61748  0.10865  1.0000
  C   C256      1.0  0.08501  0.71560  0.28147  1.0000
  H   H261      1.0  0.16848  0.62991  0.17674  1.0000
  S   S79       1.0  0.47927  0.81449  0.08033  1.0000
  H   H262      1.0  0.30484  0.91506  0.12286  1.0000
  C   C257      1.0  0.23344  0.77112  0.24487  1.0000
  Fe  Fe42      1.0  0.52971  0.05884  0.07845  1.0000
  H   H263      1.0  0.14123  0.86396  0.09923  1.0000
  S   S80       1.0  0.06387  0.85928  0.12214  1.0000
  H   H264      1.0  0.07387  0.70933  0.24578  1.0000
  C   C258      1.0  0.25201  0.73205  0.24225  1.0000
  C   C259      1.0  0.04422  0.97802  0.26671  1.0000
  Fe  Fe43      1.0  0.28186  0.01723  0.30792  1.0000
  C   C260      1.0  0.46363  0.91070  0.10648  1.0000
  H   H265      1.0  0.23981  0.71541  0.23302  1.0000
  H   H266      1.0  0.34736  0.69496  0.16619  1.0000
  S   S81       1.0  0.04730  0.63766  0.29936  1.0000
  S   S82       1.0  0.24014  0.61344  0.22252  1.0000
  H   H267      1.0  0.35228  0.63155  0.15455  1.0000
  S   S83       1.0  0.36856  0.64088  0.30311  1.0000
  H   H268      1.0  0.22480  0.97210  0.29495  1.0000
  C   C261      1.0  0.45189  0.00792  0.12541  1.0000
  H   H269      1.0  0.42167  0.86705  0.27563  1.0000
  C   C262      1.0  0.41799  0.97110  0.16486  1.0000
  H   H270      1.0  0.32591  0.77864  0.29411  1.0000
  C   C263      1.0  0.50209  0.65270  0.31398  1.0000
  S   S84       1.0  0.23172  0.06023  0.27401  1.0000
  H   H271      1.0  0.28035  0.09401  0.26000  1.0000
  C   C264      1.0  0.16198  0.63153  0.08059  1.0000
  H   H272      1.0  0.20708  0.78855  0.09075  1.0000
  C   C265      1.0  0.46614  0.76262  0.21810  1.0000
  C   C266      1.0  0.48161  0.61394  0.13299  1.0000
  H   H273      1.0  0.44665  0.08894  0.22888  1.0000
  C   C267      1.0  0.11838  0.94095  0.16794  1.0000
  C   C268      1.0  0.39012  0.62495  0.07784  1.0000
  C   C269      1.0  0.16782  0.73862  0.22612  1.0000
  S   S85       1.0  0.37841  0.74310  0.09550  1.0000
  C   C270      1.0  0.13837  0.87763  0.13984  1.0000
  H   H274      1.0  0.24708  0.01352  0.11268  1.0000
  H   H275      1.0  0.45486  0.02002  0.07516  1.0000
  S   S86       1.0  0.14090  0.78721  0.22551  1.0000
  C   C271      1.0  0.24954  0.79200  0.25795  1.0000
  S   S87       1.0  0.34577  0.89730  0.22535  1.0000
  C   C272      1.0  0.44781  0.64484  0.22181  1.0000
  H   H276      1.0  0.49782  0.67627  0.27490  1.0000
  S   S88       1.0  0.39389  0.02143  0.29922  1.0000
  C   C273      1.0  0.29954  0.79694  0.28082  1.0000
  N   N23       1.0  0.42552  0.81162  0.27415  1.0000
  Fe  Fe44      1.0  0.33567  0.93844  0.28950  1.0000
  C   C274      1.0  0.46887  0.94363  0.10308  1.0000
  C   C275      1.0  0.49570  0.96649  0.29686  1.0000
  H   H277      1.0  0.51686  0.97150  0.27211  1.0000
  C   C276      1.0  0.19929  0.67402  0.28196  1.0000
  H   H278      1.0  0.26602  0.03435  0.15098  1.0000
  C   C277      1.0  0.36518  0.67983  0.13127  1.0000
  H   H279      1.0  0.47523  0.00065  0.14798  1.0000
  H   H280      1.0  0.28326  0.84253  0.07510  1.0000
  N   N24       1.0  0.12567  0.91948  0.12223  1.0000
  C   C278      1.0  0.25480  0.03738  0.10709  1.0000
  C   C279      1.0  0.38509  0.69623  0.09230  1.0000
  H   H281      1.0  0.17156  0.74467  0.12568  1.0000
  S   S89       1.0  0.06287  0.66517  0.11480  1.0000
  C   C280      1.0  0.52166  0.80579  0.07488  1.0000
  N   N25       1.0  0.06727  0.75619  0.28850  1.0000
  H   H282      1.0  0.11195  0.70823  0.26583  1.0000
  H   H283      1.0  0.49319  0.63394  0.12304  1.0000
  H   H284      1.0  0.27172  0.78611  0.12568  1.0000
  H   H285      1.0  0.29996  0.81863  0.23879  1.0000
  H   H286      1.0  0.33471  0.00722  0.07981  1.0000
  C   C281      1.0  0.28775  0.78493  0.08296  1.0000
  C   C282      1.0  0.52276  0.61483  0.30529  1.0000
  C   C283      1.0  0.53416  0.81293  0.12287  1.0000
  H   H287      1.0  0.09432  0.59825  0.20808  1.0000
  C   C284      1.0  0.42948  0.09430  0.27020  1.0000
  S   S90       1.0  0.05686  0.90294  0.31415  1.0000
  H   H288      1.0  0.19344  0.03303  0.49357  1.0000
  H   H289      1.0  0.16442  0.96905  0.46760  1.0000
  C   C285      1.0  0.22484  0.73342  0.45644  1.0000
  H   H290      1.0  0.20741  0.65434  0.32550  1.0000
  H   H291      1.0  0.04103  0.00455  0.40412  1.0000
  S   S91       1.0  0.12115  0.07730  0.49771  1.0000
  S   S92       1.0  0.28762  0.95781  0.34948  1.0000
  H   H292      1.0  0.42810  0.94500  0.50975  1.0000
  C   C286      1.0  0.24845  0.73488  0.54764  1.0000
  H   H293      1.0  0.51627  0.94806  0.48630  1.0000
  C   C287      1.0  0.07318  0.92409  0.51773  1.0000
  C   C288      1.0  0.26716  0.82724  0.52458  1.0000
  C   C289      1.0  0.29553  0.00984  0.54327  1.0000
  C   C290      1.0  0.14106  0.01841  0.32187  1.0000
  H   H294      1.0  0.41990  0.94902  0.38632  1.0000
  Fe  Fe45      1.0  0.17373  0.82074  0.38577  1.0000
  H   H295      1.0  0.28645  0.06564  0.55809  1.0000
  Fe  Fe46      1.0  0.10707  0.88946  0.34621  1.0000
  S   S93       1.0  0.30854  0.02124  0.38233  1.0000
  H   H296      1.0  0.21421  0.86594  0.52142  1.0000
  S   S94       1.0  0.05258  0.07221  0.35006  1.0000
  H   H297      1.0  0.24512  0.67834  0.42703  1.0000
  C   C291      1.0  0.06595  0.80999  0.32490  1.0000
  C   C292      1.0  0.09185  0.75698  0.47346  1.0000
  C   C293      1.0  0.19809  0.96671  0.38448  1.0000
  C   C294      1.0  0.47392  0.92613  0.37177  1.0000
  S   S95       1.0  0.37484  0.71120  0.52023  1.0000
  C   C295      1.0  0.49237  0.62961  0.42409  1.0000
  C   C296      1.0  0.21079  0.04437  0.39696  1.0000
  Fe  Fe47      1.0  0.36932  0.66663  0.38382  1.0000
  H   H298      1.0  0.39119  0.85460  0.32729  1.0000
  H   H299      1.0  0.07874  0.82233  0.34514  1.0000
  H   H300      1.0  0.06571  0.05512  0.47999  1.0000
  C   C297      1.0  0.48661  0.66005  0.37331  1.0000
  C   C298      1.0  0.13796  0.00524  0.38620  1.0000
  C   C299      1.0  0.43936  0.01435  0.55713  1.0000
  S   S96       1.0  0.36696  0.93460  0.36376  1.0000
  C   C300      1.0  0.36357  0.84456  0.45607  1.0000
  H   H301      1.0  0.47041  0.68933  0.37986  1.0000
  S   S97       1.0  0.34178  0.80415  0.40156  1.0000
  C   C301      1.0  0.38741  0.84819  0.48609  1.0000
  S   S98       1.0  0.09806  0.66487  0.54298  1.0000
  S   S99       1.0  0.19752  0.85842  0.39735  1.0000
  C   C302      1.0  0.14288  0.09079  0.37541  1.0000
  N   N26       1.0  0.42392  0.99268  0.54824  1.0000
  H   H302      1.0  0.05584  0.07829  0.54679  1.0000
  H   H303      1.0  0.11349  0.01577  0.41167  1.0000
  C   C303      1.0  0.10634  0.78895  0.53567  1.0000
  C   C304      1.0  0.34585  0.59761  0.39609  1.0000
  C   C305      1.0  0.14863  0.72957  0.50585  1.0000
  S   S100      1.0  0.50390  0.02722  0.44783  1.0000
  H   H304      1.0  0.10830  0.61234  0.46138  1.0000
  H   H305      1.0  0.30037  0.88101  0.32297  1.0000
  H   H306      1.0  0.45441  0.76282  0.46938  1.0000
  H   H307      1.0  0.07307  0.75439  0.45092  1.0000
  H   H308      1.0  0.22073  0.94716  0.40856  1.0000
  C   C306      1.0  0.24569  0.69402  0.46119  1.0000
  C   C307      1.0  0.13114  0.60189  0.48537  1.0000
  C   C308      1.0  0.28569  0.97964  0.55980  1.0000
  H   H309      1.0  0.33715  0.62125  0.42136  1.0000
  H   H310      1.0  0.13178  0.70402  0.44953  1.0000
  C   C309      1.0  0.04372  0.91808  0.53122  1.0000
  H   H311      1.0  0.17416  0.70703  0.50668  1.0000
  C   C310      1.0  0.27048  0.69584  0.55042  1.0000
  S   S101      1.0  0.13762  0.90904  0.53767  1.0000
  C   C311      1.0  0.04895  0.81840  0.50069  1.0000
  H   H312      1.0  0.07637  0.94172  0.47395  1.0000
  C   C312      1.0  0.04497  0.07039  0.51303  1.0000
  Fe  Fe48      1.0  0.51134  0.08067  0.43856  1.0000
  S   S102      1.0  0.12516  0.85201  0.43750  1.0000
  C   C313      1.0  0.42114  0.09060  0.38232  1.0000
  H   H313      1.0  0.46621  0.00529  0.54588  1.0000
  H   H314      1.0  0.23703  0.02652  0.40574  1.0000
  C   C314      1.0  0.37218  0.81082  0.43316  1.0000
  H   H315      1.0  0.33829  0.86746  0.45220  1.0000
  C   C315      1.0  0.40496  0.78144  0.43794  1.0000
  C   C316      1.0  0.16270  0.60915  0.55792  1.0000
  C   C317      1.0  0.44084  0.95368  0.36030  1.0000
  S   S103      1.0  0.19862  0.75675  0.39429  1.0000
  H   H316      1.0  0.46995  0.07043  0.33247  1.0000
  H   H317      1.0  0.08339  0.69697  0.32698  1.0000
  H   H318      1.0  0.31628  0.00787  0.50911  1.0000
  S   S104      1.0  0.44937  0.82249  0.53081  1.0000
  S   S105      1.0  0.40166  0.69794  0.37498  1.0000
  Fe  Fe49      1.0  0.41608  0.66597  0.47191  1.0000
  Fe  Fe50      1.0  0.35815  0.74074  0.42383  1.0000
  C   C318      1.0  0.12488  0.72812  0.47316  1.0000
  Fe  Fe51      1.0  0.14711  0.89253  0.44328  1.0000
  H   H319      1.0  0.26606  0.80863  0.49606  1.0000
  C   C319      1.0  0.35983  0.60100  0.33471  1.0000
  C   C320      1.0  0.16742  0.08724  0.32573  1.0000
  Fe  Fe52      1.0  0.35589  0.99627  0.32171  1.0000
  C   C321      1.0  0.08243  0.77155  0.31681  1.0000
  C   C322      1.0  0.16663  0.97904  0.41756  1.0000
  C   C323      1.0  0.13298  0.62253  0.52780  1.0000
  N   N27       1.0  0.08330  0.78760  0.50260  1.0000
  C   C324      1.0  0.09874  0.90661  0.55994  1.0000
  S   S106      1.0  0.50223  0.82601  0.37338  1.0000
  Fe  Fe53      1.0  0.31773  0.95972  0.42020  1.0000
  S   S107      1.0  0.46986  0.63792  0.49611  1.0000
  C   C325      1.0  0.44396  0.95785  0.52094  1.0000
  C   C326      1.0  0.23821  0.85941  0.53850  1.0000
  H   H320      1.0  0.45755  0.96498  0.47645  1.0000
  C   C327      1.0  0.15214  0.07148  0.43590  1.0000
  S   S108      1.0  0.32423  0.71260  0.42415  1.0000
  C   C328      1.0  0.44286  0.08407  0.32864  1.0000
  H   H321      1.0  0.20912  0.78414  0.49720  1.0000
  H   H322      1.0  0.16945  0.72340  0.32658  1.0000
  C   C329      1.0  0.13941  0.76014  0.53732  1.0000
  Fe  Fe54      1.0  0.34424  0.67935  0.51762  1.0000
  C   C330      1.0  0.18612  0.04800  0.44673  1.0000
  H   H323      1.0  0.28640  0.64542  0.50876  1.0000
  C   C331      1.0  0.42908  0.78559  0.46605  1.0000
  C   C332      1.0  0.42008  0.81864  0.49126  1.0000
  H   H324      1.0  0.43133  0.08305  0.42778  1.0000
  C   C333      1.0  0.20136  0.06411  0.33649  1.0000
  S   S109      1.0  0.30532  0.93987  0.52131  1.0000
  H   H325      1.0  0.04947  0.84699  0.49417  1.0000
  C   C334      1.0  0.50139  0.93226  0.33936  1.0000
  S   S110      1.0  0.38703  0.63101  0.47742  1.0000
  H   H326      1.0  0.41194  0.75549  0.41966  1.0000
  S   S111      1.0  0.12528  0.93257  0.35506  1.0000
  Fe  Fe55      1.0  0.49931  0.80360  0.47609  1.0000
  H   H327      1.0  0.47814  0.90043  0.40642  1.0000
  C   C335      1.0  0.26872  0.67529  0.50783  1.0000
  H   H328      1.0  0.38052  0.87399  0.50503  1.0000
  C   C336      1.0  0.22557  0.75376  0.50046  1.0000
  H   H329      1.0  0.24148  0.89031  0.32187  1.0000
  H   H330      1.0  0.10783  0.75439  0.33173  1.0000
  C   C337      1.0  0.20027  0.98080  0.32024  1.0000
  H   H331      1.0  0.28571  0.81194  0.32075  1.0000
  H   H332      1.0  0.09930  0.81248  0.56082  1.0000
  H   H333      1.0  0.43418  0.83267  0.34753  1.0000
  H   H334      1.0  0.15780  0.76161  0.56260  1.0000
  H   H335      1.0  0.46282  0.93584  0.55383  1.0000
  C   C338      1.0  0.29783  0.81931  0.54728  1.0000
  H   H336      1.0  0.32021  0.79440  0.53592  1.0000
  H   H337      1.0  0.03571  0.81936  0.46101  1.0000
  H   H338      1.0  0.37808  0.98583  0.55908  1.0000
  C   C339      1.0  0.43513  0.98741  0.31646  1.0000
  C   C340      1.0  0.14548  0.76704  0.76639  1.0000
  H   H339      1.0  0.28076  0.61231  0.63922  1.0000
  C   C341      1.0  0.23259  0.60340  0.76654  1.0000
  S   S112      1.0  0.49872  0.01227  0.65199  1.0000
  C   C342      1.0  0.52520  0.93548  0.64857  1.0000
  H   H340      1.0  0.47954  0.71798  0.78418  1.0000
  C   C343      1.0  0.48787  0.67027  0.74162  1.0000
  H   H341      1.0  0.26815  0.07745  0.76542  1.0000
  C   C344      1.0  0.25341  0.04430  0.61899  1.0000
  H   H342      1.0  0.14546  0.90529  0.69134  1.0000
  H   H343      1.0  0.49488  0.62837  0.68571  1.0000
  Fe  Fe56      1.0  0.05629  0.71664  0.74269  1.0000
  H   H344      1.0  0.25219  0.95839  0.62014  1.0000
  H   H345      1.0  0.37455  0.97636  0.73422  1.0000
  C   C345      1.0  0.36410  0.96296  0.77517  1.0000
  C   C346      1.0  0.52416  0.96368  0.67875  1.0000
  H   H346      1.0  0.13552  0.90040  0.80694  1.0000
  S   S113      1.0  0.13807  0.77559  0.68794  1.0000
  S   S114      1.0  0.42892  0.00654  0.77683  1.0000
  C   C347      1.0  0.31130  0.98911  0.72346  1.0000
  C   C348      1.0  0.25471  0.61712  0.65862  1.0000
  H   H347      1.0  0.45578  0.74653  0.59335  1.0000
  H   H348      1.0  0.11474  0.86833  0.64749  1.0000
  H   H349      1.0  0.27849  0.65384  0.71184  1.0000
  H   H350      1.0  0.49790  0.64900  0.78311  1.0000
  C   C349      1.0  0.04009  0.89397  0.58646  1.0000
  H   H351      1.0  0.18553  0.71039  0.76292  1.0000
  H   H352      1.0  0.23642  0.64410  0.63190  1.0000
  C   C350      1.0  0.15284  0.87510  0.78710  1.0000
  H   H353      1.0  0.45371  0.78326  0.73703  1.0000
  H   H354      1.0  0.21218  0.78451  0.71682  1.0000
  H   H355      1.0  0.27303  0.89301  0.62402  1.0000
  C   C351      1.0  0.17983  0.84532  0.69648  1.0000
  C   C352      1.0  0.47446  0.68636  0.63349  1.0000
  C   C353      1.0  0.46451  0.72525  0.63534  1.0000
  C   C354      1.0  0.08423  0.04177  0.72620  1.0000
  H   H356      1.0  0.15437  0.06817  0.62767  1.0000
  C   C355      1.0  0.38664  0.05956  0.59839  1.0000
  Fe  Fe57      1.0  0.12691  0.65180  0.76184  1.0000
  Fe  Fe58      1.0  0.38573  0.06490  0.76388  1.0000
  C   C356      1.0  0.48625  0.65873  0.68702  1.0000
  C   C357      1.0  0.36052  0.87932  0.72896  1.0000
  H   H357      1.0  0.35314  0.81023  0.58811  1.0000
  H   H358      1.0  0.33715  0.86006  0.59367  1.0000
  H   H359      1.0  0.37206  0.08579  0.61784  1.0000
  C   C358      1.0  0.32673  0.89223  0.71650  1.0000
  C   C359      1.0  0.26000  0.98153  0.60682  1.0000
  S   S115      1.0  0.14885  0.67348  0.67101  1.0000
  Fe  Fe59      1.0  0.11783  0.73196  0.69574  1.0000
  S   S116      1.0  0.09995  0.70946  0.79107  1.0000
  C   C360      1.0  0.15836  0.87806  0.72198  1.0000
  H   H360      1.0  0.13019  0.00856  0.77471  1.0000
  H   H361      1.0  0.21808  0.90852  0.58531  1.0000
  H   H362      1.0  0.09277  0.02535  0.68854  1.0000
  H   H363      1.0  0.28390  0.99879  0.73706  1.0000
  C   C361      1.0  0.24029  0.88324  0.57450  1.0000
  C   C362      1.0  0.26455  0.64023  0.74486  1.0000
  H   H364      1.0  0.05489  0.62983  0.62824  1.0000
  S   S117      1.0  0.33550  0.07194  0.74170  1.0000
  C   C363      1.0  0.30418  0.88430  0.76306  1.0000
  S   S118      1.0  0.07209  0.74307  0.64939  1.0000
  H   H365      1.0  0.17588  0.07340  0.72113  1.0000
  C   C364      1.0  0.19612  0.81035  0.73614  1.0000
  N   N28       1.0  0.33165  0.96718  0.77742  1.0000
  C   C365      1.0  0.10537  0.03232  0.77472  1.0000
  C   C366      1.0  0.45639  0.77714  0.68899  1.0000
  H   H366      1.0  0.25034  0.75094  0.57972  1.0000
  C   C367      1.0  0.19017  0.80845  0.80104  1.0000
  H   H367      1.0  0.10457  0.82055  0.78439  1.0000
  C   C368      1.0  0.28192  0.06041  0.80639  1.0000
  N   N29       1.0  0.25082  0.61989  0.72507  1.0000
  C   C369      1.0  0.04097  0.09373  0.77503  1.0000
  H   H368      1.0  0.31498  0.01570  0.70369  1.0000
  H   H369      1.0  0.43341  0.06568  0.58680  1.0000
  C   C370      1.0  0.09465  0.88329  0.61587  1.0000
  H   H370      1.0  0.50978  0.94364  0.60957  1.0000
  H   H371      1.0  0.06327  0.85720  0.67087  1.0000
  C   C371      1.0  0.47767  0.70942  0.74179  1.0000
  C   C372      1.0  0.26118  0.64338  0.80802  1.0000
  N   N30       1.0  0.46601  0.73633  0.68912  1.0000
  H   H372      1.0  0.18315  0.84691  0.64605  1.0000
  C   C373      1.0  0.05187  0.07221  0.72698  1.0000
  C   C374      1.0  0.33158  0.83433  0.60712  1.0000
  C   C375      1.0  0.27139  0.87441  0.59631  1.0000
  C   C376      1.0  0.37131  0.03656  0.59129  1.0000
  C   C377      1.0  0.24395  0.01376  0.63655  1.0000
  H   H373      1.0  0.47339  0.67768  0.59058  1.0000
  C   C378      1.0  0.12321  0.79277  0.80487  1.0000
  S   S119      1.0  0.41293  0.84574  0.80535  1.0000
  S   S120      1.0  0.41629  0.09536  0.70799  1.0000
  C   C379      1.0  0.42090  0.04842  0.58111  1.0000
  N   N31       1.0  0.29962  0.84289  0.58247  1.0000
  S   S121      1.0  0.08179  0.65735  0.71990  1.0000
  Fe  Fe60      1.0  0.10167  0.68271  0.63074  1.0000
  S   S122      1.0  0.23460  0.08356  0.65861  1.0000
  H   H374      1.0  0.07398  0.00338  0.58793  1.0000
  C   C380      1.0  0.27903  0.04235  0.57200  1.0000
  S   S123      1.0  0.26096  0.90602  0.75122  1.0000
  H   H375      1.0  0.43176  0.79556  0.66784  1.0000
  C   C381      1.0  0.06548  0.87678  0.62888  1.0000
  S   S124      1.0  0.30579  0.67565  0.59443  1.0000
  H   H376      1.0  0.37767  0.88661  0.69360  1.0000
  C   C382      1.0  0.15001  0.09219  0.70981  1.0000
  C   C383      1.0  0.31542  0.05418  0.80790  1.0000
  H   H377      1.0  0.32983  0.82683  0.65902  1.0000
  C   C384      1.0  0.37180  0.85810  0.78774  1.0000
  H   H378      1.0  0.47572  0.78596  0.66097  1.0000
  C   C385      1.0  0.04767  0.62227  0.59011  1.0000
  H   H379      1.0  0.31810  0.97120  0.68672  1.0000
  C   C386      1.0  0.16881  0.73064  0.79275  1.0000
  Fe  Fe61      1.0  0.46022  0.03738  0.72721  1.0000
  H   H380      1.0  0.31780  0.90971  0.67173  1.0000
  H   H381      1.0  0.22440  0.01480  0.67336  1.0000
  C   C387      1.0  0.13809  0.08913  0.65696  1.0000
  H   H382      1.0  0.34483  0.04468  0.60580  1.0000
  H   H383      1.0  0.04809  0.95957  0.64294  1.0000
  C   C388      1.0  0.04761  0.01137  0.58280  1.0000
  H   H384      1.0  0.16478  0.62526  0.58916  1.0000
  C   C389      1.0  0.39035  0.00318  0.56538  1.0000
  H   H385      1.0  0.10517  0.80058  0.89932  1.0000
  N   N32       1.0  0.51963  0.91278  0.92464  1.0000
  H   H386      1.0  0.31848  0.72353  0.92862  1.0000
  S   S125      1.0  0.42356  0.75022  0.92139  1.0000
  H   H387      1.0  0.20856  0.05666  0.02683  1.0000
  H   H388      1.0  0.09676  0.07686  0.99984  1.0000
  H   H389      1.0  0.50136  0.06580  0.98137  1.0000
  C   C390      1.0  0.32632  0.78247  0.97052  1.0000
  C   C391      1.0  0.33291  0.03282  0.86160  1.0000
  C   C392      1.0  0.24349  0.75378  0.95597  1.0000
  H   H390      1.0  0.15927  0.09235  0.82563  1.0000
  C   C393      1.0  0.14532  0.74410  0.89634  1.0000
  S   S126      1.0  0.25728  0.91119  0.92610  1.0000
  S   S127      1.0  0.11976  0.04442  0.88355  1.0000
  C   C394      1.0  0.33347  0.71740  0.96899  1.0000
  S   S128      1.0  0.26682  0.99682  0.97054  1.0000
  S   S129      1.0  0.46620  0.73070  0.04387  1.0000
  H   H391      1.0  0.12841  0.91969  0.02440  1.0000
  S   S130      1.0  0.31693  0.60613  0.96636  1.0000
  H   H392      1.0  0.33244  0.69188  0.00176  1.0000
  C   C395      1.0  0.22015  0.82122  0.00674  1.0000
  C   C396      1.0  0.31713  0.01710  0.91296  1.0000
  S   S131      1.0  0.48237  0.78112  0.91434  1.0000
  C   C397      1.0  0.38326  0.99537  0.03046  1.0000
  C   C398      1.0  0.49870  0.89473  0.91388  1.0000
  C   C399      1.0  0.28428  0.02152  0.90994  1.0000
  H   H393      1.0  0.42503  0.68792  0.01928  1.0000
  H   H394      1.0  0.06159  0.98705  0.87351  1.0000
  C   C400      1.0  0.24580  0.78685  0.91975  1.0000
  C   C401      1.0  0.39856  0.04900  0.00186  1.0000
  H   H395      1.0  0.07210  0.74495  0.93990  1.0000
  Fe  Fe62      1.0  0.41230  0.75990  0.02096  1.0000
  H   H396      1.0  0.10400  0.99061  0.99563  1.0000
  H   H397      1.0  0.35866  0.83186  0.87818  1.0000
  H   H398      1.0  0.50345  0.95765  0.84546  1.0000
  C   C402      1.0  0.51995  0.94452  0.88386  1.0000
  H   H399      1.0  0.25665  0.78645  0.87207  1.0000
  H   H400      1.0  0.17693  0.64061  0.94145  1.0000
  H   H401      1.0  0.27223  0.65935  0.82376  1.0000
  Fe  Fe63      1.0  0.10942  0.77616  0.02621  1.0000
  S   S132      1.0  0.08578  0.91262  0.95241  1.0000
  H   H402      1.0  0.38880  0.96576  0.02974  1.0000
  Fe  Fe64      1.0  0.42742  0.80655  0.89777  1.0000
  C   C403      1.0  0.24360  0.62557  0.85086  1.0000
  C   C404      1.0  0.04591  0.08854  0.98334  1.0000
  Fe  Fe65      1.0  0.43684  0.02154  0.86358  1.0000
  Fe  Fe66      1.0  0.23254  0.93237  0.83518  1.0000
  H   H403      1.0  0.35887  0.02750  0.86327  1.0000
  H   H404      1.0  0.23639  0.84580  0.91710  1.0000
  C   C405      1.0  0.34418  0.05803  0.05581  1.0000
  S   S133      1.0  0.13359  0.81181  0.04274  1.0000
  C   C406      1.0  0.31844  0.95023  0.82900  1.0000
  C   C407      1.0  0.41127  0.64041  0.04091  1.0000
  H   H405      1.0  0.49062  0.88031  0.95871  1.0000
  H   H406      1.0  0.18639  0.69102  0.87816  1.0000
  C   C408      1.0  0.05993  0.73209  0.98070  1.0000
  C   C409      1.0  0.06252  0.08530  0.82171  1.0000
  S   S134      1.0  0.06092  0.82669  0.99791  1.0000
  C   C410      1.0  0.40596  0.01062  0.00093  1.0000
  Fe  Fe67      1.0  0.20753  0.91307  0.96823  1.0000
  Fe  Fe68      1.0  0.23661  0.97325  0.93459  1.0000
  C   C411      1.0  0.36764  0.07275  0.02904  1.0000
  H   H407      1.0  0.47529  0.91662  0.89148  1.0000
  C   C412      1.0  0.34976  0.84833  0.83303  1.0000
  C   C413      1.0  0.23433  0.82047  0.94521  1.0000
  S   S135      1.0  0.24240  0.62515  0.03771  1.0000
  C   C414      1.0  0.29407  0.81673  0.05423  1.0000
  H   H408      1.0  0.15434  0.61135  0.94679  1.0000
  H   H409      1.0  0.31877  0.84001  0.97530  1.0000
  H   H410      1.0  0.13278  0.84477  0.90295  1.0000
  S   S136      1.0  0.14145  0.72708  0.97648  1.0000
  N   N33       1.0  0.17122  0.61129  0.03244  1.0000
  H   H411      1.0  0.33100  0.99990  0.95378  1.0000
  C   C415      1.0  0.22976  0.75433  0.01776  1.0000
  H   H412      1.0  0.41633  0.06081  0.97995  1.0000
  S   S137      1.0  0.41015  0.81927  0.99514  1.0000
  C   C416      1.0  0.16000  0.83786  0.89307  1.0000
  C   C417      1.0  0.04120  0.98550  0.90666  1.0000
  Fe  Fe69      1.0  0.47769  0.72518  0.94281  1.0000
  C   C418      1.0  0.10814  0.97697  0.04429  1.0000
  C   C419      1.0  0.47697  0.08982  0.97593  1.0000
  H   H413      1.0  0.04989  0.05872  0.99764  1.0000
  H   H414      1.0  0.38541  0.90955  0.91969  1.0000
  C   C420      1.0  0.04665  0.95245  0.95204  1.0000
  C   C421      1.0  0.38396  0.94208  0.82621  1.0000
  Fe  Fe70      1.0  0.27326  0.65785  0.99573  1.0000
  H   H415      1.0  0.36032  0.70949  0.95235  1.0000
  H   H416      1.0  0.20205  0.78081  0.83155  1.0000
  C   C422      1.0  0.37036  0.92561  0.87969  1.0000
  C   C423      1.0  0.12327  0.78128  0.86998  1.0000
  H   H417      1.0  0.24078  0.04820  0.85492  1.0000
  H   H418      1.0  0.13409  0.65647  0.97373  1.0000
  H   H419      1.0  0.32645  0.91727  0.92269  1.0000
  C   C424      1.0  0.12147  0.93685  0.06084  1.0000
  H   H420      1.0  0.06769  0.70143  0.97826  1.0000
  H   H421      1.0  0.16535  0.85861  0.91139  1.0000
  S   S138      1.0  0.18890  0.97332  0.98564  1.0000
  C   C425      1.0  0.33740  0.92965  0.88121  1.0000
  H   H422      1.0  0.17439  0.80845  0.91926  1.0000
  Fe  Fe71      1.0  0.08414  0.86199  0.02151  1.0000
  C   C426      1.0  0.09969  0.60664  0.04975  1.0000
  H   H423      1.0  0.29889  0.85371  0.85551  1.0000
  S   S139      1.0  0.18330  0.93143  0.87697  1.0000
  H   H424      1.0  0.22769  0.72895  0.04572  1.0000
  N   N34       1.0  0.16839  0.84051  0.82554  1.0000
  S   S140      1.0  0.20592  0.86302  0.03920  1.0000
  H   H425      1.0  0.53223  0.79055  0.98326  1.0000
  H   H426      1.0  0.04857  0.63051  0.83054  1.0000
  H   H427      1.0  0.51314  0.87308  0.88299  1.0000
  C   C427      1.0  0.20473  0.08034  0.04925  1.0000
  Fe  Fe72      1.0  0.16885  0.99184  0.89026  1.0000
  C   C428      1.0  0.21799  0.78809  0.04307  1.0000
  S   S141      1.0  0.44174  0.98320  0.95714  1.0000
  S   S142      1.0  0.21585  0.99466  0.83987  1.0000
  H   H428      1.0  0.09044  0.62774  0.00802  1.0000
  H   H429      1.0  0.34120  0.78173  0.92636  1.0000
  C   C429      1.0  0.16891  0.71935  0.85781  1.0000
  S   S143      1.0  0.25826  0.71198  0.92333  1.0000
  N   N35       1.0  0.32022  0.75130  0.99931  1.0000
  C   C430      1.0  0.31362  0.81550  0.99777  1.0000
  S   S144      1.0  0.51109  0.67266  0.90139  1.0000
  C   C431      1.0  0.35250  0.01899  0.05833  1.0000
  C   C432      1.0  0.22897  0.60572  0.83006  1.0000
  C   C433      1.0  0.26646  0.04377  0.85703  1.0000
  H   H430      1.0  0.42884  0.62546  0.00537  1.0000
  S   S145      1.0  0.39138  0.07785  0.85374  1.0000
  Fe  Fe73      1.0  0.46496  0.78952  0.01373  1.0000
  H   H431      1.0  0.24140  0.62712  0.90009  1.0000
  C   C434      1.0  0.15855  0.63086  0.97048  1.0000
  C   C435      1.0  0.40890  0.67596  0.04845  1.0000
  C   C436      1.0  0.31596  0.86129  0.82058  1.0000
  H   H432      1.0  0.29294  0.95305  0.83029  1.0000
  H   H433      1.0  0.06978  0.73298  0.02358  1.0000
  C   C437      1.0  0.30099  0.75230  0.05463  1.0000
  C   C438      1.0  0.09436  0.05419  0.82257  1.0000
  H   H434      1.0  0.48235  0.09632  0.87595  1.0000
  H   H435      1.0  0.53444  0.67302  0.01743  1.0000
  H   H436      1.0  0.40969  0.93864  0.82437  1.0000
  S   S146      1.0  0.47231  0.04693  0.81531  1.0000
  H   H437      1.0  0.81578  0.22500  0.26626  1.0000
  H   H438      1.0  0.79201  0.14263  0.10506  1.0000
  H   H439      1.0  0.56096  0.25631  0.18796  1.0000
  S   S147      1.0  0.63962  0.25970  0.26636  1.0000
  Fe  Fe74      1.0  0.56281  0.54158  0.23021  1.0000
  C   C439      1.0  0.64568  0.18936  0.25486  1.0000
  Fe  Fe75      1.0  0.77004  0.19377  0.27077  1.0000
  Fe  Fe76      1.0  0.62512  0.46633  0.22221  1.0000
  S   S148      1.0  0.59478  0.43350  0.22260  1.0000
  H   H440      1.0  0.70630  0.50181  0.20247  1.0000
  C   C440      1.0  0.65815  0.34253  0.15560  1.0000
  C   C441      1.0  0.85910  0.26659  0.08104  1.0000
  H   H441      1.0  0.01409  0.45653  0.24998  1.0000
  H   H442      1.0  0.92617  0.16627  0.14869  1.0000
  H   H443      1.0  0.61133  0.34017  0.27793  1.0000
  H   H444      1.0  0.84116  0.51643  0.29986  1.0000
  H   H445      1.0  0.90200  0.53047  0.22760  1.0000
  C   C442      1.0  0.71091  0.55906  0.11651  1.0000
  S   S149      1.0  0.02460  0.17088  0.22176  1.0000
  C   C443      1.0  0.86418  0.43408  0.24432  1.0000
  H   H446      1.0  0.60512  0.56456  0.27396  1.0000
  S   S150      1.0  0.54699  0.47631  0.07140  1.0000
  C   C444      1.0  0.87203  0.29002  0.09604  1.0000
  C   C445      1.0  0.88408  0.44085  0.19139  1.0000
  H   H447      1.0  0.01579  0.29457  0.28840  1.0000
  S   S151      1.0  0.81454  0.16834  0.20403  1.0000
  Fe  Fe77      1.0  0.56116  0.46568  0.29745  1.0000
  N   N36       1.0  0.87290  0.50182  0.21714  1.0000
  C   C446      1.0  0.88832  0.47504  0.17858  1.0000
  H   H448      1.0  0.66177  0.44375  0.08860  1.0000
  C   C447      1.0  0.56498  0.16853  0.13729  1.0000
  C   C448      1.0  0.57890  0.15917  0.07845  1.0000
  Fe  Fe78      1.0  0.01349  0.09982  0.14057  1.0000
  C   C449      1.0  0.68330  0.52829  0.20052  1.0000
  H   H449      1.0  0.57532  0.25876  0.31262  1.0000
  C   C450      1.0  0.65587  0.52915  0.24239  1.0000
  H   H450      1.0  0.02035  0.38219  0.30415  1.0000
  C   C451      1.0  0.81824  0.32453  0.14823  1.0000
  C   C452      1.0  0.56654  0.26415  0.13848  1.0000
  C   C453      1.0  0.62608  0.56295  0.23997  1.0000
  H   H451      1.0  0.85762  0.56062  0.22415  1.0000
  N   N37       1.0  0.99004  0.27824  0.23430  1.0000
  C   C454      1.0  0.01530  0.48335  0.25501  1.0000
  N   N38       1.0  0.03252  0.49763  0.20002  1.0000
  N   N39       1.0  0.82659  0.27195  0.09916  1.0000
  S   S152      1.0  0.73087  0.25496  0.26805  1.0000
  C   C455      1.0  0.84297  0.09929  0.09518  1.0000
  Fe  Fe79      1.0  0.69316  0.22975  0.29476  1.0000
  H   H452      1.0  0.74261  0.10229  0.11167  1.0000
  S   S153      1.0  0.68457  0.17527  0.09557  1.0000
  C   C456      1.0  0.02905  0.53469  0.19129  1.0000
  H   H453      1.0  0.71504  0.54089  0.08124  1.0000
  C   C457      1.0  0.00968  0.29551  0.24192  1.0000
  C   C458      1.0  0.80613  0.30055  0.13222  1.0000
  H   H454      1.0  0.02911  0.47701  0.29728  1.0000
  C   C459      1.0  0.62461  0.22460  0.27337  1.0000
  H   H455      1.0  0.78034  0.30480  0.14662  1.0000
  H   H456      1.0  0.90404  0.47998  0.13766  1.0000
  Fe  Fe80      1.0  0.97734  0.17666  0.18757  1.0000
  S   S154      1.0  0.92703  0.22449  0.20643  1.0000
  H   H457      1.0  0.89621  0.41972  0.16061  1.0000
  C   C460      1.0  0.85143  0.31916  0.12984  1.0000
  H   H458      1.0  0.70742  0.58825  0.09091  1.0000
  S   S155      1.0  0.61251  0.11445  0.07313  1.0000
  H   H459      1.0  0.70523  0.57406  0.26836  1.0000
  H   H460      1.0  0.65800  0.50401  0.27734  1.0000
  H   H461      1.0  0.86142  0.33723  0.14201  1.0000
  S   S156      1.0  0.73179  0.16962  0.28776  1.0000
  H   H462      1.0  0.86096  0.40752  0.25565  1.0000
  H   H463      1.0  0.57639  0.14913  0.17892  1.0000
  H   H464      1.0  0.88206  0.54675  0.15386  1.0000
  Fe  Fe81      1.0  0.56361  0.48484  0.15537  1.0000
  H   H465      1.0  0.96869  0.26355  0.16919  1.0000
  H   H466      1.0  0.61229  0.21155  0.13587  1.0000
  N   N40       1.0  0.64304  0.40279  0.08409  1.0000
  H   H467      1.0  0.67060  0.18440  0.23332  1.0000
  H   H468      1.0  0.59533  0.35861  0.06706  1.0000
  C   C461      1.0  0.01616  0.31398  0.12986  1.0000
  H   H469      1.0  0.01400  0.55304  0.22509  1.0000
  C   C462      1.0  0.60224  0.16652  0.29030  1.0000
  S   S157      1.0  0.59451  0.49406  0.30320  1.0000
  C   C463      1.0  0.81307  0.24833  0.08005  1.0000
  H   H470      1.0  0.73960  0.36557  0.21273  1.0000
  S   S158      1.0  0.59078  0.12799  0.30568  1.0000
  S   S159      1.0  0.59605  0.51574  0.14932  1.0000
  C   C464      1.0  0.63372  0.33627  0.13294  1.0000
  C   C465      1.0  0.87732  0.16624  0.17486  1.0000
  C   C466      1.0  0.89622  0.20782  0.20842  1.0000
  C   C467      1.0  0.65194  0.59351  0.15481  1.0000
  Fe  Fe82      1.0  0.76187  0.58783  0.26390  1.0000
  S   S160      1.0  0.98617  0.11642  0.23047  1.0000
  C   C468      1.0  0.84853  0.46159  0.28314  1.0000
  N   N41       1.0  0.54491  0.29774  0.10469  1.0000
  C   C469      1.0  0.58059  0.20229  0.30707  1.0000
  H   H471      1.0  0.73368  0.54697  0.14360  1.0000
  H   H472      1.0  0.79352  0.24415  0.11529  1.0000
  C   C470      1.0  0.61412  0.36344  0.08542  1.0000
  H   H473      1.0  0.65066  0.13368  0.24685  1.0000
  H   H474      1.0  0.98897  0.50505  0.26206  1.0000
  C   C471      1.0  0.86497  0.22455  0.24120  1.0000
  H   H475      1.0  0.67437  0.32088  0.19090  1.0000
  H   H476      1.0  0.63071  0.30983  0.15081  1.0000
  C   C472      1.0  0.63433  0.16062  0.26243  1.0000
  H   H477      1.0  0.89813  0.28499  0.08270  1.0000
  C   C473      1.0  0.72656  0.36562  0.25869  1.0000
  H   H478      1.0  0.95560  0.25402  0.27924  1.0000
  S   S161      1.0  0.68154  0.43784  0.21107  1.0000
  C   C474      1.0  0.59552  0.23865  0.10924  1.0000
  C   C475      1.0  0.69725  0.39799  0.27081  1.0000
  C   C476      1.0  0.66250  0.37617  0.13053  1.0000
  C   C477      1.0  0.97698  0.25887  0.28969  1.0000
  C   C478      1.0  0.83998  0.21184  0.24128  1.0000
  C   C479      1.0  0.90241  0.17855  0.17551  1.0000
  C   C480      1.0  0.98366  0.27787  0.17552  1.0000
  C   C481      1.0  0.02274  0.31396  0.18996  1.0000
  H   H479      1.0  0.99129  0.29553  0.07593  1.0000
  H   H480      1.0  0.68226  0.38021  0.14716  1.0000
  C   C482      1.0  0.85332  0.49537  0.26901  1.0000
  H   H481      1.0  0.88196  0.14441  0.14775  1.0000
  C   C483      1.0  0.84614  0.18282  0.20780  1.0000
  C   C484      1.0  0.59179  0.23141  0.29851  1.0000
  S   S162      1.0  0.00080  0.16114  0.09393  1.0000
  N   N42       1.0  0.68133  0.56050  0.15840  1.0000
  C   C485      1.0  0.87905  0.53647  0.20488  1.0000
  H   H482      1.0  0.80200  0.34698  0.17478  1.0000
  H   H483      1.0  0.86015  0.24728  0.26648  1.0000
  H   H484      1.0  0.76026  0.30719  0.29515  1.0000
  C   C486      1.0  0.99649  0.29584  0.12248  1.0000
  C   C487      1.0  0.72892  0.10333  0.07409  1.0000
  H   H485      1.0  0.85047  0.10423  0.13577  1.0000
  H   H486      1.0  0.54902  0.37567  0.28136  1.0000
  C   C488      1.0  0.73814  0.33264  0.30514  1.0000
  C   C489      1.0  0.62388  0.59526  0.19544  1.0000
  H   H487      1.0  0.02672  0.32747  0.08904  1.0000
  C   C490      1.0  0.80987  0.12138  0.07762  1.0000
  H   H488      1.0  0.99718  0.23041  0.30766  1.0000
  Fe  Fe83      1.0  0.03552  0.10900  0.25745  1.0000
  H   H489      1.0  0.83317  0.21918  0.07532  1.0000
  H   H490      1.0  0.91243  0.12114  0.50302  1.0000
  C   C491      1.0  0.97315  0.51887  0.38776  1.0000
  C   C492      1.0  0.61838  0.20267  0.47481  1.0000
  C   C493      1.0  0.72820  0.53530  0.35106  1.0000
  S   S163      1.0  0.85706  0.37860  0.39683  1.0000
  C   C494      1.0  0.65443  0.13447  0.49175  1.0000
  C   C495      1.0  0.88900  0.58832  0.49493  1.0000
  C   C496      1.0  0.88478  0.13921  0.50392  1.0000
  C   C497      1.0  0.77898  0.57035  0.45471  1.0000
  H   H491      1.0  0.91792  0.33561  0.46276  1.0000
  H   H492      1.0  0.87952  0.16093  0.46000  1.0000
  H   H493      1.0  0.82788  0.56638  0.46477  1.0000
  H   H494      1.0  0.97956  0.49343  0.53049  1.0000
  H   H495      1.0  0.87697  0.15498  0.54396  1.0000
  C   C498      1.0  0.54875  0.35654  0.32696  1.0000
  C   C499      1.0  0.69241  0.36546  0.37711  1.0000
  H   H496      1.0  0.66817  0.17730  0.50939  1.0000
  C   C500      1.0  0.92823  0.25067  0.42954  1.0000
  H   H497      1.0  0.88242  0.56712  0.48113  1.0000
  H   H498      1.0  0.55756  0.50284  0.51447  1.0000
  N   N43       1.0  0.86691  0.11481  0.50993  1.0000
  C   C501      1.0  0.63577  0.32320  0.42459  1.0000
  N   N44       1.0  0.74443  0.56769  0.54986  1.0000
  S   S164      1.0  0.02165  0.24646  0.43945  1.0000
  C   C502      1.0  0.89960  0.26401  0.39596  1.0000
  C   C503      1.0  0.93423  0.27650  0.45477  1.0000
  H   H499      1.0  0.72974  0.57199  0.45950  1.0000
  Fe  Fe84      1.0  0.85805  0.45402  0.55147  1.0000
  C   C504      1.0  0.60431  0.33215  0.45724  1.0000
  C   C505      1.0  0.87753  0.30338  0.38629  1.0000
  H   H500      1.0  0.55546  0.20739  0.32717  1.0000
  C   C506      1.0  0.76690  0.40306  0.38981  1.0000
  C   C507      1.0  0.84768  0.11904  0.46335  1.0000
  C   C508      1.0  0.72254  0.51610  0.41054  1.0000
  N   N45       1.0  0.57849  0.34638  0.36066  1.0000
  S   S165      1.0  0.74435  0.10892  0.45814  1.0000
  C   C509      1.0  0.00388  0.47299  0.54794  1.0000
  S   S166      1.0  0.95736  0.20218  0.43732  1.0000
  H   H501      1.0  0.78641  0.40475  0.35429  1.0000
  C   C510      1.0  0.68015  0.39795  0.32999  1.0000
  C   C511      1.0  0.77482  0.37242  0.44046  1.0000
  H   H502      1.0  0.85569  0.31369  0.35950  1.0000
  C   C512      1.0  0.64880  0.17209  0.49376  1.0000
  H   H503      1.0  0.78292  0.57147  0.40444  1.0000
  C   C513      1.0  0.66804  0.56969  0.34083  1.0000
  H   H504      1.0  0.93137  0.11995  0.38298  1.0000
  H   H505      1.0  0.58181  0.15175  0.43585  1.0000
  C   C514      1.0  0.72093  0.33249  0.36424  1.0000
  H   H506      1.0  0.74366  0.49600  0.43814  1.0000
  H   H507      1.0  0.87959  0.59161  0.54411  1.0000
  C   C515      1.0  0.02670  0.38503  0.34777  1.0000
  H   H508      1.0  0.83275  0.45683  0.32416  1.0000
  Fe  Fe85      1.0  0.61559  0.53448  0.52647  1.0000
  N   N46       1.0  0.75054  0.37047  0.48619  1.0000
  H   H509      1.0  0.54283  0.27741  0.54615  1.0000
  C   C516      1.0  0.80426  0.56753  0.48873  1.0000
  H   H510      1.0  0.67909  0.36550  0.42279  1.0000
  C   C517      1.0  0.74903  0.57042  0.48620  1.0000
  C   C518      1.0  0.59394  0.19520  0.45483  1.0000
  S   S167      1.0  0.89838  0.47473  0.52059  1.0000
  C   C519      1.0  0.54754  0.48289  0.51108  1.0000
  H   H511      1.0  0.91703  0.57624  0.49226  1.0000
  H   H512      1.0  0.81559  0.09886  0.43204  1.0000
  C   C520      1.0  0.60065  0.15725  0.45255  1.0000
  C   C521      1.0  0.91247  0.31581  0.44456  1.0000
  H   H513      1.0  0.55620  0.48926  0.41154  1.0000
  C   C522      1.0  0.57581  0.34340  0.42438  1.0000
  C   C523      1.0  0.88413  0.32933  0.41023  1.0000
  H   H514      1.0  0.80059  0.35035  0.44298  1.0000
  C   C524      1.0  0.70924  0.42925  0.43249  1.0000
  H   H515      1.0  0.98370  0.37885  0.40027  1.0000
  C   C525      1.0  0.91867  0.57914  0.32518  1.0000
  C   C526      1.0  0.66210  0.55024  0.39937  1.0000
  H   H516      1.0  0.99439  0.49510  0.41074  1.0000
  S   S168      1.0  0.83800  0.47158  0.45663  1.0000
  H   H517      1.0  0.03112  0.50246  0.48694  1.0000
  S   S169      1.0  0.62473  0.47283  0.55466  1.0000
  Fe  Fe86      1.0  0.73663  0.24358  0.37137  1.0000
  C   C527      1.0  0.03290  0.47802  0.52358  1.0000
  C   C528      1.0  0.01343  0.38748  0.45856  1.0000
  S   S170      1.0  0.62042  0.55946  0.42585  1.0000
  S   S171      1.0  0.87696  0.54282  0.36199  1.0000
  N   N47       1.0  0.63077  0.12755  0.47001  1.0000
  H   H518      1.0  0.68345  0.45128  0.42992  1.0000
  S   S172      1.0  0.98528  0.38952  0.52540  1.0000
  H   H519      1.0  0.02706  0.09744  0.48561  1.0000
  S   S173      1.0  0.91592  0.42986  0.40106  1.0000
  S   S174      1.0  0.96424  0.58824  0.55449  1.0000
  S   S175      1.0  0.01360  0.55694  0.35788  1.0000
  H   H520      1.0  0.66263  0.31930  0.33387  1.0000
  S   S176      1.0  0.77846  0.18439  0.37229  1.0000
  H   H521      1.0  0.65824  0.31386  0.44940  1.0000
  H   H522      1.0  0.89499  0.24411  0.37598  1.0000
  Fe  Fe87      1.0  0.88105  0.48772  0.42444  1.0000
  H   H523      1.0  0.96747  0.27652  0.32732  1.0000
  H   H524      1.0  0.69880  0.39676  0.51887  1.0000
  C   C529      1.0  0.63825  0.32636  0.35967  1.0000
  H   H525      1.0  0.95555  0.26621  0.48261  1.0000
  C   C530      1.0  0.60916  0.33820  0.32829  1.0000
  H   H526      1.0  0.60193  0.33060  0.50757  1.0000
  C   C531      1.0  0.94299  0.51544  0.38806  1.0000
  H   H527      1.0  0.94118  0.48916  0.41182  1.0000
  H   H528      1.0  0.78588  0.32457  0.54726  1.0000
  Fe  Fe88      1.0  0.54498  0.13181  0.36761  1.0000
  S   S177      1.0  0.73287  0.29000  0.41979  1.0000
  C   C532      1.0  0.75882  0.33727  0.53746  1.0000
  H   H529      1.0  0.55141  0.35058  0.44987  1.0000
  C   C533      1.0  0.00563  0.38366  0.40201  1.0000
  C   C534      1.0  0.68934  0.52333  0.43454  1.0000
  Fe  Fe89      1.0  0.73799  0.16327  0.38943  1.0000
  H   H530      1.0  0.98452  0.12756  0.36375  1.0000
  C   C535      1.0  0.71808  0.39833  0.48268  1.0000
  Fe  Fe90      1.0  0.87451  0.41192  0.44255  1.0000
  H   H531      1.0  0.65754  0.42296  0.33960  1.0000
  H   H532      1.0  0.57003  0.21863  0.44045  1.0000
  C   C536      1.0  0.54677  0.47522  0.45248  1.0000
  S   S178      1.0  0.69683  0.22166  0.39789  1.0000
  H   H533      1.0  0.68494  0.50787  0.47978  1.0000
  H   H534      1.0  0.84617  0.13974  0.42066  1.0000
  Fe  Fe91      1.0  0.93127  0.41541  0.49973  1.0000
  H   H535      1.0  0.69106  0.58892  0.55909  1.0000
  H   H536      1.0  0.72731  0.45529  0.34647  1.0000
  Fe  Fe92      1.0  0.00893  0.19626  0.44925  1.0000
  H   H537      1.0  0.61374  0.23206  0.47550  1.0000
  S   S179      1.0  0.89224  0.39314  0.54019  1.0000
  S   S180      1.0  0.03437  0.16540  0.53862  1.0000
  H   H538      1.0  0.67802  0.11093  0.50706  1.0000
  C   C537      1.0  0.73383  0.43145  0.38564  1.0000
  H   H539      1.0  0.54508  0.55553  0.35049  1.0000
  C   C538      1.0  0.91555  0.54580  0.35756  1.0000
  C   C539      1.0  0.97596  0.55267  0.35707  1.0000
  H   H540      1.0  0.70257  0.12435  0.35761  1.0000
  H   H541      1.0  0.75330  0.31489  0.52475  1.0000
  S   S181      1.0  0.76866  0.53047  0.32229  1.0000
  C   C540      1.0  0.79926  0.56510  0.55359  1.0000
  H   H542      1.0  0.54802  0.32999  0.31938  1.0000
  C   C541      1.0  0.94882  0.58261  0.32510  1.0000
  H   H543      1.0  0.64710  0.59142  0.31458  1.0000
  C   C542      1.0  0.98526  0.09900  0.37857  1.0000
  H   H544      1.0  0.02514  0.59608  0.44983  1.0000
  C   C543      1.0  0.70096  0.56094  0.31563  1.0000
  H   H545      1.0  0.02826  0.39159  0.71094  1.0000
  C   C544      1.0  0.92505  0.40355  0.69604  1.0000
  C   C545      1.0  0.97148  0.54953  0.61623  1.0000
  C   C546      1.0  0.00773  0.50173  0.69518  1.0000
  H   H546      1.0  0.83945  0.27072  0.61790  1.0000
  C   C547      1.0  0.92050  0.42869  0.78930  1.0000
  C   C548      1.0  0.75868  0.47520  0.66834  1.0000
  S   S182      1.0  0.70576  0.42071  0.63458  1.0000
  C   C549      1.0  0.71529  0.34105  0.75154  1.0000
  C   C550      1.0  0.86784  0.29318  0.73187  1.0000
  C   C551      1.0  0.73513  0.35772  0.76439  1.0000
  C   C552      1.0  0.73259  0.46432  0.66753  1.0000
  S   S183      1.0  0.61107  0.48678  0.69930  1.0000
  H   H547      1.0  0.00741  0.20422  0.72799  1.0000
  C   C553      1.0  0.98173  0.49080  0.72079  1.0000
  C   C554      1.0  0.78971  0.45750  0.63559  1.0000
  H   H548      1.0  0.70853  0.47830  0.69245  1.0000
  H   H549      1.0  0.71414  0.28825  0.74275  1.0000
  H   H550      1.0  0.92108  0.55350  0.62217  1.0000
  C   C555      1.0  0.78221  0.29672  0.77795  1.0000
  N   N48       1.0  0.94900  0.22053  0.62956  1.0000
  H   H551      1.0  0.80805  0.27897  0.78958  1.0000
  Fe  Fe93      1.0  0.89890  0.13863  0.72730  1.0000
  C   C556      1.0  0.94581  0.28035  0.64621  1.0000
  H   H552      1.0  0.98363  0.43793  0.61371  1.0000
  C   C557      1.0  0.76948  0.41606  0.60532  1.0000
  S   S184      1.0  0.94255  0.12931  0.77998  1.0000
  H   H553      1.0  0.65378  0.50004  0.81030  1.0000
  C   C558      1.0  0.00634  0.44161  0.59529  1.0000
  C   C559      1.0  0.00273  0.53083  0.64255  1.0000
  H   H554      1.0  0.68902  0.35873  0.74162  1.0000
  H   H555      1.0  0.93025  0.50128  0.71425  1.0000
  H   H556      1.0  0.71433  0.53715  0.57991  1.0000
  C   C560      1.0  0.93943  0.41408  0.73652  1.0000
  C   C561      1.0  0.83950  0.42360  0.77797  1.0000
  H   H557      1.0  0.98205  0.27539  0.70667  1.0000
  Fe  Fe94      1.0  0.57989  0.49357  0.62274  1.0000
  C   C562      1.0  0.88747  0.43221  0.80124  1.0000
  H   H558      1.0  0.81437  0.13878  0.76775  1.0000
  H   H559      1.0  0.96519  0.41089  0.72739  1.0000
  H   H560      1.0  0.77391  0.39304  0.58122  1.0000
  C   C563      1.0  0.87270  0.22782  0.75954  1.0000
  H   H561      1.0  0.74385  0.34600  0.58147  1.0000
  C   C564      1.0  0.95056  0.50931  0.69410  1.0000
  C   C565      1.0  0.96600  0.57547  0.78340  1.0000
  Fe  Fe95      1.0  0.60204  0.54819  0.66076  1.0000
  C   C566      1.0  0.85977  0.23207  0.70296  1.0000
  S   S185      1.0  0.82147  0.47297  0.63278  1.0000
  C   C567      1.0  0.98668  0.21993  0.69759  1.0000
  C   C568      1.0  0.93433  0.25997  0.61847  1.0000
  S   S186      1.0  0.58555  0.59428  0.71932  1.0000
  H   H562      1.0  0.81908  0.41388  0.57918  1.0000
  H   H563      1.0  0.83278  0.40959  0.74700  1.0000
  H   H564      1.0  0.98631  0.16918  0.67760  1.0000
  C   C569      1.0  0.80277  0.11869  0.78051  1.0000
  S   S187      1.0  0.87568  0.32998  0.74810  1.0000
  C   C570      1.0  0.76334  0.27912  0.76434  1.0000
  H   H565      1.0  0.82121  0.45428  0.77121  1.0000
  H   H566      1.0  0.03147  0.48856  0.71661  1.0000
  H   H567      1.0  0.92408  0.18470  0.63743  1.0000
  H   H568      1.0  0.88084  0.39885  0.67856  1.0000
  H   H569      1.0  0.94111  0.58732  0.80982  1.0000
  Fe  Fe96      1.0  0.72849  0.58080  0.79823  1.0000
  H   H570      1.0  0.02275  0.53948  0.62344  1.0000
  C   C571      1.0  0.78872  0.35385  0.78854  1.0000
  S   S188      1.0  0.64860  0.53223  0.59576  1.0000
  H   H571      1.0  0.81894  0.56194  0.58105  1.0000
  H   H572      1.0  0.93425  0.31159  0.63722  1.0000
  H   H573      1.0  0.97697  0.54366  0.79884  1.0000
  C   C572      1.0  0.93677  0.19923  0.60086  1.0000
  H   H574      1.0  0.71094  0.56836  0.63177  1.0000
  H   H575      1.0  0.76591  0.56160  0.63435  1.0000
  H   H576      1.0  0.72413  0.38862  0.76319  1.0000
  C   C573      1.0  0.79510  0.42788  0.60418  1.0000
  H   H577      1.0  0.93946  0.39230  0.65461  1.0000
  H   H578      1.0  0.03272  0.54666  0.76061  1.0000
  H   H579      1.0  0.96170  0.58244  0.73274  1.0000
  S   S189      1.0  0.93193  0.10337  0.65562  1.0000
  C   C574      1.0  0.89195  0.40719  0.70988  1.0000
  C   C575      1.0  0.97222  0.26012  0.68585  1.0000
  C   C576      1.0  0.73801  0.43475  0.63597  1.0000
  C   C577      1.0  0.87593  0.25867  0.77455  1.0000
  C   C578      1.0  0.72953  0.30151  0.75149  1.0000
  C   C579      1.0  0.76908  0.56494  0.58365  1.0000
  C   C580      1.0  0.85384  0.29798  0.67595  1.0000
  N   N49       1.0  0.98853  0.59118  0.79516  1.0000
  H   H580      1.0  0.58672  0.34223  0.77819  1.0000
  H   H581      1.0  0.01629  0.11765  0.77528  1.0000
  H   H582      1.0  0.91360  0.27595  0.58809  1.0000
  S   S190      1.0  0.85716  0.19290  0.68350  1.0000
  C   C581      1.0  0.97471  0.20045  0.66886  1.0000
  H   H583      1.0  0.75457  0.49765  0.69367  1.0000
  S   S191      1.0  0.98783  0.45474  0.78687  1.0000
  C   C582      1.0  0.71362  0.56546  0.58175  1.0000
  H   H584      1.0  0.77481  0.24818  0.76544  1.0000
  S   S192      1.0  0.77182  0.52229  0.81143  1.0000
  N   N50       1.0  0.76806  0.33551  0.77783  1.0000
  N   N51       1.0  0.87388  0.42065  0.76264  1.0000
  C   C583      1.0  0.94535  0.53891  0.64208  1.0000
  H   H585      1.0  0.87923  0.20111  0.79279  1.0000
  Fe  Fe97      1.0  0.65509  0.47127  0.62813  1.0000
  H   H586      1.0  0.79927  0.36448  0.74294  1.0000
  C   C584      1.0  0.84962  0.26740  0.66163  1.0000
  S   S193      1.0  0.53944  0.47237  0.63801  1.0000
  S   S194      1.0  0.03458  0.23213  0.80963  1.0000
  H   H587      1.0  0.84695  0.32496  0.64326  1.0000
  H   H588      1.0  0.95813  0.17732  0.57705  1.0000
  H   H589      1.0  0.02435  0.36801  0.65244  1.0000
  S   S195      1.0  0.56815  0.55585  0.58821  1.0000
  H   H590      1.0  0.55298  0.21032  0.59630  1.0000
  C   C585      1.0  0.02248  0.57260  0.78100  1.0000
  H   H591      1.0  0.77352  0.37868  0.81282  1.0000
  H   H592      1.0  0.91839  0.21843  0.56516  1.0000
  H   H593      1.0  0.88384  0.25588  0.82000  1.0000
  H   H594      1.0  0.57693  0.54657  0.91149  1.0000
  Fe  Fe98      1.0  0.93193  0.31673  0.94283  1.0000
  H   H595      1.0  0.91327  0.12738  0.96100  1.0000
  H   H596      1.0  0.58556  0.28956  0.96100  1.0000
  H   H597      1.0  0.84058  0.58434  0.94701  1.0000
  H   H598      1.0  0.93137  0.43699  0.82119  1.0000
  Fe  Fe99      1.0  0.68222  0.28164  0.91427  1.0000
  Fe  Fe100     1.0  0.69843  0.21870  0.02949  1.0000
  C   C586      1.0  0.84210  0.44645  0.95615  1.0000
  C   C587      1.0  0.88818  0.18866  0.95732  1.0000
  C   C588      1.0  0.89080  0.15335  0.94867  1.0000
  S   S196      1.0  0.80102  0.18184  0.88393  1.0000
  H   H599      1.0  0.65812  0.16217  0.99629  1.0000
  C   C589      1.0  0.55807  0.47522  0.89198  1.0000
  S   S197      1.0  0.73794  0.50795  0.95509  1.0000
  Fe  Fe101     1.0  0.72137  0.28181  0.01540  1.0000
  C   C590      1.0  0.68143  0.13733  0.00877  1.0000
  C   C591      1.0  0.54677  0.37492  0.83991  1.0000
  Fe  Fe102     1.0  0.69705  0.56721  0.93128  1.0000
  Fe  Fe103     1.0  0.73347  0.50074  0.85909  1.0000
  H   H600      1.0  0.81980  0.45314  0.93303  1.0000
  H   H601      1.0  0.62456  0.22785  0.02193  1.0000
  Fe  Fe104     1.0  0.98382  0.26327  0.85782  1.0000
  H   H602      1.0  0.86720  0.12436  0.91504  1.0000
  H   H603      1.0  0.97335  0.12027  0.92041  1.0000
  S   S198      1.0  0.70569  0.21722  0.92695  1.0000
  H   H604      1.0  0.69140  0.35404  0.95636  1.0000
  S   S199      1.0  0.81868  0.52438  0.95199  1.0000
  S   S200      1.0  0.89030  0.30233  0.92830  1.0000
  S   S201      1.0  0.74867  0.21765  0.03561  1.0000
  C   C592      1.0  0.89976  0.42919  0.01607  1.0000
  C   C593      1.0  0.74353  0.41156  0.95373  1.0000
  S   S202      1.0  0.92714  0.35262  0.01297  1.0000
  H   H605      1.0  0.03257  0.19402  0.92996  1.0000
  H   H606      1.0  0.85681  0.24972  0.94794  1.0000
  H   H607      1.0  0.87550  0.24352  0.05611  1.0000
  H   H608      1.0  0.84863  0.58538  0.02467  1.0000
  C   C594      1.0  0.59801  0.35842  0.91692  1.0000
  C   C595      1.0  0.69346  0.10622  0.97696  1.0000
  C   C596      1.0  0.74479  0.38207  0.00443  1.0000
  H   H609      1.0  0.87282  0.44416  0.84167  1.0000
  H   H610      1.0  0.75861  0.42704  0.95244  1.0000
  Fe  Fe105     1.0  0.92983  0.24161  0.93969  1.0000
  H   H611      1.0  0.92222  0.42264  0.03856  1.0000
  C   C597      1.0  0.56423  0.38145  0.93408  1.0000
  H   H612      1.0  0.87955  0.49026  0.01450  1.0000
  H   H613      1.0  0.61782  0.35231  0.94631  1.0000
  C   C598      1.0  0.85898  0.22230  0.94154  1.0000
  C   C599      1.0  0.83495  0.18491  0.90962  1.0000
  H   H614      1.0  0.62936  0.58325  0.89919  1.0000
  C   C600      1.0  0.60238  0.24777  0.04508  1.0000
  H   H615      1.0  0.02381  0.30811  0.82375  1.0000
  C   C601      1.0  0.70555  0.39852  0.90443  1.0000
  C   C602      1.0  0.89563  0.39971  0.99808  1.0000
  C   C603      1.0  0.55186  0.30736  0.04198  1.0000
  H   H616      1.0  0.80151  0.26262  0.03449  1.0000
  H   H617      1.0  0.66333  0.43401  0.01185  1.0000
  H   H618      1.0  0.65051  0.50646  0.89019  1.0000
  H   H619      1.0  0.59130  0.42843  0.84389  1.0000
  C   C604      1.0  0.87569  0.46736  0.00245  1.0000
  S   S203      1.0  0.64801  0.31670  0.83653  1.0000
  C   C605      1.0  0.80018  0.11622  0.02419  1.0000
  S   S204      1.0  0.65563  0.59204  0.00363  1.0000
  H   H620      1.0  0.80902  0.24605  0.90903  1.0000
  H   H621      1.0  0.73443  0.10964  0.86316  1.0000
  H   H622      1.0  0.53772  0.46614  0.90106  1.0000
  S   S205      1.0  0.67024  0.28300  0.01696  1.0000
  S   S206      1.0  0.73249  0.59408  0.88993  1.0000
  C   C606      1.0  0.53863  0.38950  0.89559  1.0000
  Fe  Fe106     1.0  0.77316  0.53381  0.90655  1.0000
  H   H623      1.0  0.67925  0.10713  0.94035  1.0000
  S   S207      1.0  0.73159  0.28466  0.91166  1.0000
  C   C607      1.0  0.70638  0.36960  0.95534  1.0000
  C   C608      1.0  0.55422  0.50842  0.91136  1.0000
  H   H624      1.0  0.63748  0.44907  0.82450  1.0000
  H   H625      1.0  0.77481  0.13389  0.00906  1.0000
  S   S208      1.0  0.97034  0.25530  0.96132  1.0000
  H   H626      1.0  0.60468  0.41703  0.02286  1.0000
  C   C609      1.0  0.58051  0.28237  0.01107  1.0000
  H   H627      1.0  0.69067  0.40442  0.86565  1.0000
  C   C610      1.0  0.60611  0.34434  0.86054  1.0000
  S   S209      1.0  0.92136  0.19020  0.98873  1.0000
  C   C611      1.0  0.98760  0.10544  0.96317  1.0000
  C   C612      1.0  0.01057  0.15341  0.94280  1.0000
  C   C613      1.0  0.83196  0.22026  0.91934  1.0000
  C   C614      1.0  0.72434  0.41925  0.90329  1.0000
  C   C615      1.0  0.61416  0.46590  0.84905  1.0000
  H   H628      1.0  0.86328  0.38537  0.95520  1.0000
  N   N52       1.0  0.60946  0.49960  0.86515  1.0000
  N   N53       1.0  0.01550  0.11590  0.96235  1.0000
  S   S210      1.0  0.72459  0.45334  0.83703  1.0000
  H   H629      1.0  0.76064  0.37507  0.04232  1.0000
  H   H630      1.0  0.97018  0.11350  0.00501  1.0000
  S   S211      1.0  0.94644  0.24428  0.83851  1.0000
  C   C616      1.0  0.77252  0.12840  0.81748  1.0000
  C   C617      1.0  0.69893  0.13573  0.05774  1.0000
  H   H631      1.0  0.57462  0.17658  0.97881  1.0000
  Fe  Fe107     1.0  0.75412  0.22053  0.93190  1.0000
  H   H632      1.0  0.98635  0.17511  0.92717  1.0000
  H   H633      1.0  0.83682  0.40946  0.82702  1.0000
  S   S212      1.0  0.69024  0.55824  0.83871  1.0000
  C   C618      1.0  0.58823  0.45379  0.86058  1.0000
  C   C619      1.0  0.72688  0.36048  0.00425  1.0000
  H   H634      1.0  0.55787  0.39265  0.97729  1.0000
  C   C620      1.0  0.63593  0.51336  0.84884  1.0000
  C   C621      1.0  0.84707  0.47608  0.97192  1.0000
  C   C622      1.0  0.58030  0.52037  0.89726  1.0000
  C   C623      1.0  0.86671  0.40821  0.96844  1.0000
  S   S213      1.0  0.73186  0.32016  0.06192  1.0000
  C   C624      1.0  0.56393  0.18402  0.02437  1.0000
  C   C625      1.0  0.86465  0.15163  0.92305  1.0000
  C   C626      1.0  0.75789  0.10246  0.83424  1.0000
  H   H635      1.0  0.62353  0.46310  0.04948  1.0000
  C   C627      1.0  0.64818  0.43762  0.05710  1.0000
  C   C628      1.0  0.61953  0.39643  0.06071  1.0000
  C   C629      1.0  0.58050  0.35295  0.82190  1.0000
  Fe  Fe108     1.0  0.90960  0.30611  0.82763  1.0000
  H   H636      1.0  0.55095  0.11659  0.83814  1.0000
  S   S214      1.0  0.94810  0.32604  0.84017  1.0000
  H   H637      1.0  0.76050  0.15594  0.83335  1.0000
  H   H638      1.0  0.62474  0.54497  0.83141  1.0000
  H   H639      1.0  0.78249  0.59563  0.98611  1.0000
  H   H640      1.0  0.80981  0.33343  0.81833  1.0000
  Fe  Fe109     1.0  0.80410  0.90623  0.07707  1.0000
  H   H641      1.0  0.81133  0.69254  0.19592  1.0000
  H   H642      1.0  0.82872  0.82657  0.25040  1.0000
  C   C630      1.0  0.68884  0.93379  0.10656  1.0000
  H   H643      1.0  0.84620  0.04093  0.26081  1.0000
  H   H644      1.0  0.93962  0.95785  0.11872  1.0000
  H   H645      1.0  0.64998  0.61860  0.12000  1.0000
  H   H646      1.0  0.87184  0.08650  0.25342  1.0000
  H   H647      1.0  0.61539  0.98500  0.30720  1.0000
  H   H648      1.0  0.60132  0.86009  0.16642  1.0000
  C   C631      1.0  0.84423  0.84249  0.24942  1.0000
  S   S215      1.0  0.78571  0.96515  0.10037  1.0000
  H   H649      1.0  0.60685  0.68662  0.10087  1.0000
  H   H650      1.0  0.90906  0.62730  0.11280  1.0000
  C   C632      1.0  0.87322  0.03015  0.26341  1.0000
  C   C633      1.0  0.96199  0.86127  0.14458  1.0000
  C   C634      1.0  0.75580  0.80272  0.07586  1.0000
  C   C635      1.0  0.65380  0.78557  0.26718  1.0000
  H   H651      1.0  0.59342  0.05648  0.28449  1.0000
  H   H652      1.0  0.87777  0.89686  0.18082  1.0000
  C   C636      1.0  0.72412  0.91840  0.10313  1.0000
  H   H653      1.0  0.57584  0.81731  0.15290  1.0000
  C   C637      1.0  0.57899  0.72690  0.23243  1.0000
  H   H654      1.0  0.67502  0.96085  0.07766  1.0000
  C   C638      1.0  0.63774  0.69728  0.15400  1.0000
  H   H655      1.0  0.67768  0.86361  0.21657  1.0000
  C   C639      1.0  0.63820  0.71242  0.20549  1.0000
  H   H656      1.0  0.63782  0.78952  0.17721  1.0000
  H   H657      1.0  0.70156  0.97740  0.18079  1.0000
  S   S216      1.0  0.84202  0.63137  0.12367  1.0000
  H   H658      1.0  0.86517  0.82385  0.28034  1.0000
  C   C640      1.0  0.68472  0.05232  0.14773  1.0000
  C   C641      1.0  0.90031  0.04997  0.08023  1.0000
  H   H659      1.0  0.88299  0.97036  0.27288  1.0000
  C   C642      1.0  0.61260  0.86377  0.25605  1.0000
  N   N54       1.0  0.63045  0.84446  0.30816  1.0000
  C   C643      1.0  0.67792  0.99473  0.20379  1.0000
  Fe  Fe110     1.0  0.00717  0.61633  0.31095  1.0000
  H   H660      1.0  0.86666  0.88421  0.29407  1.0000
  H   H661      1.0  0.66966  0.94538  0.25426  1.0000
  C   C644      1.0  0.90527  0.93128  0.14918  1.0000
  H   H662      1.0  0.92045  0.09553  0.27234  1.0000
  Fe  Fe111     1.0  0.95549  0.69275  0.24732  1.0000
  C   C645      1.0  0.85866  0.65732  0.15208  1.0000
  H   H663      1.0  0.67151  0.82861  0.09242  1.0000
  S   S217      1.0  0.74499  0.69174  0.17511  1.0000
  C   C646      1.0  0.76959  0.76967  0.29961  1.0000
  H   H664      1.0  0.55543  0.71186  0.17062  1.0000
  H   H665      1.0  0.96910  0.99277  0.27306  1.0000
  C   C647      1.0  0.74262  0.88309  0.14013  1.0000
  H   H666      1.0  0.77724  0.88330  0.24851  1.0000
  H   H667      1.0  0.74391  0.94916  0.27088  1.0000
  H   H668      1.0  0.99273  0.83385  0.26126  1.0000
  Fe  Fe112     1.0  0.71951  0.65516  0.16668  1.0000
  C   C648      1.0  0.78993  0.89788  0.26303  1.0000
  H   H669      1.0  0.66950  0.75485  0.27266  1.0000
  C   C649      1.0  0.83775  0.68624  0.18640  1.0000
  H   H670      1.0  0.73694  0.93368  0.07101  1.0000
  C   C650      1.0  0.96567  0.89583  0.13011  1.0000
  S   S218      1.0  0.76754  0.60171  0.15939  1.0000
  H   H671      1.0  0.68255  0.05006  0.09918  1.0000
  C   C651      1.0  0.90231  0.89657  0.16799  1.0000
  C   C652      1.0  0.03538  0.77814  0.26895  1.0000
  C   C653      1.0  0.56670  0.81113  0.11591  1.0000
  H   H672      1.0  0.59603  0.89432  0.25160  1.0000
  H   H673      1.0  0.83478  0.73030  0.23309  1.0000
  C   C654      1.0  0.66003  0.97649  0.24529  1.0000
  C   C655      1.0  0.93054  0.86158  0.16565  1.0000
  C   C656      1.0  0.61534  0.84449  0.20779  1.0000
  C   C657      1.0  0.78676  0.95398  0.29581  1.0000
  Fe  Fe113     1.0  0.59989  0.99199  0.09672  1.0000
  C   C658      1.0  0.85097  0.70754  0.20769  1.0000
  N   N55       1.0  0.92197  0.04217  0.26177  1.0000
  H   H674      1.0  0.77918  0.78147  0.09628  1.0000
  C   C659      1.0  0.63560  0.05603  0.22002  1.0000
  C   C660      1.0  0.01619  0.97954  0.15998  1.0000
  H   H675      1.0  0.01660  0.74718  0.08126  1.0000
  S   S219      1.0  0.00642  0.05360  0.10948  1.0000
  S   S220      1.0  0.67528  0.67484  0.10910  1.0000
  S   S221      1.0  0.71214  0.63858  0.26983  1.0000
  H   H676      1.0  0.90074  0.04001  0.13155  1.0000
  N   N56       1.0  0.82400  0.87995  0.26916  1.0000
  C   C661      1.0  0.72521  0.80100  0.09865  1.0000
  C   C662      1.0  0.83968  0.89803  0.28963  1.0000
  C   C663      1.0  0.92844  0.97708  0.27409  1.0000
  S   S222      1.0  0.79066  0.61899  0.28025  1.0000
  S   S223      1.0  0.78675  0.86249  0.13293  1.0000
  H   H677      1.0  0.77220  0.98296  0.30582  1.0000
  S   S224      1.0  0.53950  0.60528  0.23004  1.0000
  C   C664      1.0  0.57839  0.71244  0.18017  1.0000
  H   H678      1.0  0.99008  0.89565  0.11462  1.0000
  H   H679      1.0  0.68738  0.08215  0.31358  1.0000
  S   S225      1.0  0.86846  0.97376  0.13482  1.0000
  H   H680      1.0  0.89760  0.60260  0.30102  1.0000
  C   C665      1.0  0.67188  0.91405  0.14693  1.0000
  C   C666      1.0  0.63598  0.80507  0.21364  1.0000
  H   H681      1.0  0.72462  0.77814  0.13639  1.0000
  H   H682      1.0  0.78464  0.77601  0.25890  1.0000
  C   C667      1.0  0.61716  0.03877  0.26214  1.0000
  C   C668      1.0  0.02725  0.94609  0.20577  1.0000
  C   C669      1.0  0.90621  0.67019  0.16260  1.0000
  C   C670      1.0  0.89286  0.64946  0.13977  1.0000
  H   H683      1.0  0.02302  0.76602  0.24744  1.0000
  H   H684      1.0  0.73997  0.83650  0.21054  1.0000
  C   C671      1.0  0.77087  0.93513  0.27590  1.0000
  H   H685      1.0  0.66129  0.71240  0.21540  1.0000
  C   C672      1.0  0.69044  0.87903  0.18480  1.0000
  Fe  Fe114     1.0  0.79280  0.63698  0.17584  1.0000
  H   H686      1.0  0.62565  0.08718  0.20942  1.0000
  H   H687      1.0  0.00570  0.97992  0.11845  1.0000
  C   C673      1.0  0.01889  0.01234  0.16785  1.0000
  H   H688      1.0  0.95076  0.60873  0.30083  1.0000
  C   C674      1.0  0.62952  0.99872  0.27485  1.0000
  H   H689      1.0  0.95452  0.78187  0.08321  1.0000
  Fe  Fe115     1.0  0.02970  0.66481  0.20251  1.0000
  Fe  Fe116     1.0  0.74102  0.67070  0.27860  1.0000
  C   C675      1.0  0.60881  0.72755  0.24432  1.0000
  S   S226      1.0  0.99135  0.72032  0.22954  1.0000
  C   C676      1.0  0.01803  0.81661  0.27677  1.0000
  C   C677      1.0  0.88523  0.69927  0.19671  1.0000
  H   H690      1.0  0.85473  0.84677  0.20046  1.0000
  H   H691      1.0  0.03379  0.03706  0.22941  1.0000
  H   H692      1.0  0.94453  0.94634  0.28017  1.0000
  S   S227      1.0  0.90104  0.72581  0.22601  1.0000
  C   C678      1.0  0.72574  0.86364  0.18150  1.0000
  H   H693      1.0  0.60067  0.62156  0.19288  1.0000
  S   S228      1.0  0.57040  0.04442  0.14165  1.0000
  C   C679      1.0  0.69520  0.82985  0.07397  1.0000
  S   S229      1.0  0.62771  0.93228  0.15068  1.0000
  H   H694      1.0  0.76044  0.72956  0.26137  1.0000
  C   C680      1.0  0.82136  0.93520  0.30336  1.0000
  C   C681      1.0  0.89378  0.99061  0.27043  1.0000
  S   S230      1.0  0.85830  0.89570  0.06622  1.0000
  C   C682      1.0  0.75554  0.74390  0.30071  1.0000
  C   C683      1.0  0.94218  0.00343  0.26977  1.0000
  H   H695      1.0  0.92003  0.83392  0.30560  1.0000
  C   C684      1.0  0.88785  0.05573  0.25909  1.0000
  N   N57       1.0  0.66576  0.03399  0.19219  1.0000
  S   S231      1.0  0.99272  0.63929  0.21179  1.0000
  H   H696      1.0  0.71166  0.03865  0.15833  1.0000
  H   H697      1.0  0.60955  0.73854  0.28444  1.0000
  H   H698      1.0  0.93245  0.66437  0.15225  1.0000
  C   C685      1.0  0.60756  0.69813  0.14058  1.0000
  H   H699      1.0  0.92772  0.83486  0.17753  1.0000
  H   H700      1.0  0.02497  0.92082  0.19980  1.0000
  C   C686      1.0  0.03339  0.83254  0.30509  1.0000
  C   C687      1.0  0.93716  0.93102  0.13273  1.0000
  S   S232      1.0  0.99549  0.81738  0.13341  1.0000
  H   H701      1.0  0.67476  0.08355  0.14949  1.0000
  C   C688      1.0  0.03214  0.01180  0.22205  1.0000
  S   S233      1.0  0.54306  0.74082  0.28485  1.0000
  Fe  Fe117     1.0  0.83955  0.95679  0.08092  1.0000
  C   C689      1.0  0.93719  0.06940  0.25179  1.0000
  H   H702      1.0  0.96136  0.05631  0.27497  1.0000
  H   H703      1.0  0.94232  0.07804  0.20088  1.0000
  H   H704      1.0  0.02001  0.86235  0.31127  1.0000
  C   C690      1.0  0.65067  0.80580  0.31436  1.0000
  H   H705      1.0  0.91464  0.06789  0.06507  1.0000
  S   S234      1.0  0.55393  0.09137  0.45960  1.0000
  C   C691      1.0  0.93814  0.82207  0.34096  1.0000
  C   C692      1.0  0.58393  0.63778  0.50502  1.0000
  H   H706      1.0  0.85940  0.86353  0.54041  1.0000
  S   S235      1.0  0.68841  0.93859  0.50710  1.0000
  Fe  Fe118     1.0  0.75147  0.85971  0.41428  1.0000
  N   N58       1.0  0.87412  0.62563  0.45339  1.0000
  C   C693      1.0  0.74331  0.78073  0.40268  1.0000
  H   H707      1.0  0.60447  0.66647  0.32958  1.0000
  H   H708      1.0  0.95825  0.76487  0.32098  1.0000
  H   H709      1.0  0.74514  0.69492  0.52288  1.0000
  H   H710      1.0  0.65275  0.85869  0.37179  1.0000
  H   H711      1.0  0.63342  0.08687  0.41788  1.0000
  S   S236      1.0  0.61908  0.72427  0.54104  1.0000
  H   H712      1.0  0.79769  0.69413  0.40907  1.0000
  C   C694      1.0  0.72884  0.75555  0.40356  1.0000
  H   H713      1.0  0.61321  0.89645  0.34535  1.0000
  S   S237      1.0  0.70123  0.90237  0.38022  1.0000
  S   S238      1.0  0.96754  0.66807  0.34760  1.0000
  C   C695      1.0  0.54149  0.98541  0.45735  1.0000
  Fe  Fe119     1.0  0.54349  0.76773  0.36474  1.0000
  Fe  Fe120     1.0  0.71264  0.94564  0.41076  1.0000
  H   H714      1.0  0.83407  0.94942  0.31901  1.0000
  H   H715      1.0  0.55109  0.66103  0.36388  1.0000
  C   C696      1.0  0.73537  0.73673  0.35302  1.0000
  S   S239      1.0  0.63756  0.87711  0.50221  1.0000
  C   C697      1.0  0.03191  0.60324  0.48907  1.0000
  H   H716      1.0  0.67288  0.62949  0.39795  1.0000
  H   H717      1.0  0.83396  0.72423  0.34490  1.0000
  C   C698      1.0  0.54022  0.94980  0.47867  1.0000
  H   H718      1.0  0.02190  0.70469  0.54181  1.0000
  Fe  Fe121     1.0  0.91877  0.92207  0.44011  1.0000
  Fe  Fe122     1.0  0.96283  0.91776  0.53733  1.0000
  C   C699      1.0  0.71345  0.03160  0.38019  1.0000
  S   S240      1.0  0.78322  0.81775  0.35143  1.0000
  H   H719      1.0  0.61977  0.07899  0.50009  1.0000
  C   C700      1.0  0.56831  0.65591  0.39829  1.0000
  N   N59       1.0  0.85223  0.82946  0.48558  1.0000
  C   C701      1.0  0.95515  0.09472  0.38966  1.0000
  S   S241      1.0  0.58432  0.78326  0.37940  1.0000
  C   C702      1.0  0.61387  0.64164  0.48401  1.0000
  C   C703      1.0  0.01618  0.06651  0.38180  1.0000
  C   C704      1.0  0.83344  0.06797  0.52284  1.0000
  C   C705      1.0  0.81765  0.79529  0.52298  1.0000
  H   H720      1.0  0.99491  0.66198  0.47380  1.0000
  H   H721      1.0  0.73926  0.79373  0.44292  1.0000
  C   C706      1.0  0.56090  0.64526  0.46180  1.0000
  C   C707      1.0  0.82914  0.82213  0.52902  1.0000
  C   C708      1.0  0.71242  0.09405  0.37698  1.0000
  Fe  Fe123     1.0  0.57530  0.76267  0.48155  1.0000
  Fe  Fe124     1.0  0.88612  0.95937  0.55505  1.0000
  H   H722      1.0  0.57372  0.01482  0.42826  1.0000
  S   S242      1.0  0.92130  0.89900  0.54329  1.0000
  H   H723      1.0  0.89583  0.69080  0.35169  1.0000
  H   H724      1.0  0.85199  0.88493  0.45886  1.0000
  C   C709      1.0  0.98470  0.76742  0.39278  1.0000
  H   H725      1.0  0.81996  0.75652  0.46528  1.0000
  C   C710      1.0  0.83061  0.09575  0.46917  1.0000
  C   C711      1.0  0.98683  0.02540  0.41357  1.0000
  C   C712      1.0  0.88001  0.67775  0.37923  1.0000
  Fe  Fe125     1.0  0.73981  0.89341  0.53215  1.0000
  H   H726      1.0  0.98754  0.99690  0.42609  1.0000
  C   C713      1.0  0.96012  0.78289  0.34914  1.0000
  H   H727      1.0  0.92135  0.62805  0.42257  1.0000
  C   C714      1.0  0.83986  0.64391  0.44985  1.0000
  S   S243      1.0  0.91823  0.05340  0.41090  1.0000
  S   S244      1.0  0.73113  0.84562  0.51179  1.0000
  C   C715      1.0  0.70320  0.07030  0.35276  1.0000
  C   C716      1.0  0.84517  0.69646  0.37509  1.0000
  H   H728      1.0  0.57884  0.62856  0.55426  1.0000
  H   H729      1.0  0.88233  0.81675  0.40114  1.0000
  C   C717      1.0  0.01709  0.02971  0.40154  1.0000
  Fe  Fe126     1.0  0.92406  0.99388  0.45218  1.0000
  H   H730      1.0  0.59075  0.01477  0.55952  1.0000
  H   H731      1.0  0.61338  0.85530  0.40039  1.0000
  C   C718      1.0  0.73303  0.07892  0.42744  1.0000
  H   H732      1.0  0.75864  0.02833  0.49522  1.0000
  S   S245      1.0  0.54276  0.89685  0.34992  1.0000
  S   S246      1.0  0.91052  0.89404  0.37006  1.0000
  C   C719      1.0  0.89420  0.64223  0.41912  1.0000
  C   C720      1.0  0.86402  0.81101  0.43521  1.0000
  H   H733      1.0  0.98090  0.70535  0.54464  1.0000
  Fe  Fe127     1.0  0.00622  0.69161  0.32757  1.0000
  H   H734      1.0  0.96502  0.84806  0.45223  1.0000
  S   S247      1.0  0.92761  0.97662  0.55514  1.0000
  H   H735      1.0  0.82373  0.63165  0.47869  1.0000
  C   C721      1.0  0.82941  0.77656  0.47154  1.0000
  C   C722      1.0  0.65164  0.65802  0.40166  1.0000
  N   N60       1.0  0.62034  0.65347  0.42200  1.0000
  H   H736      1.0  0.86186  0.77004  0.38696  1.0000
  H   H737      1.0  0.56872  0.88895  0.50884  1.0000
  H   H738      1.0  0.74100  0.98660  0.45391  1.0000
  C   C723      1.0  0.59853  0.65939  0.37905  1.0000
  C   C724      1.0  0.93968  0.84562  0.37827  1.0000
  S   S248      1.0  0.70024  0.00319  0.35014  1.0000
  S   S249      1.0  0.89218  0.69262  0.53107  1.0000
  H   H739      1.0  0.82046  0.04960  0.52775  1.0000
  C   C725      1.0  0.62743  0.86470  0.35874  1.0000
  H   H740      1.0  0.62213  0.80464  0.53614  1.0000
  N   N61       1.0  0.02882  0.04543  0.54616  1.0000
  H   H741      1.0  0.83165  0.94707  0.53075  1.0000
  C   C726      1.0  0.95595  0.05794  0.40570  1.0000
  C   C727      1.0  0.57264  0.98743  0.44594  1.0000
  H   H742      1.0  0.65727  0.67151  0.43526  1.0000
  S   S250      1.0  0.87980  0.98096  0.45261  1.0000
  N   N62       1.0  0.02266  0.64954  0.55312  1.0000
  C   C728      1.0  0.85287  0.78425  0.42742  1.0000
  C   C729      1.0  0.86425  0.85761  0.49197  1.0000
  C   C730      1.0  0.96371  0.83002  0.42317  1.0000
  S   S251      1.0  0.01492  0.71962  0.39720  1.0000
  H   H743      1.0  0.66401  0.79027  0.35650  1.0000
  H   H744      1.0  0.02434  0.93124  0.49799  1.0000
  C   C731      1.0  0.76390  0.78762  0.35103  1.0000
  C   C732      1.0  0.82490  0.67948  0.41058  1.0000
  S   S252      1.0  0.76488  0.90369  0.43715  1.0000
  C   C733      1.0  0.99549  0.05581  0.53999  1.0000
  C   C734      1.0  0.98631  0.79088  0.43030  1.0000
  Fe  Fe128     1.0  0.68176  0.89126  0.47903  1.0000
  H   H745      1.0  0.89206  0.84603  0.48212  1.0000
  H   H746      1.0  0.62647  0.95548  0.44934  1.0000
  C   C735      1.0  0.01466  0.64041  0.50320  1.0000
  C   C736      1.0  0.60095  0.91846  0.48149  1.0000
  C   C737      1.0  0.60246  0.95384  0.45778  1.0000
  C   C738      1.0  0.74319  0.04010  0.45539  1.0000
  S   S253      1.0  0.71869  0.70376  0.35670  1.0000
  C   C739      1.0  0.73330  0.01643  0.43190  1.0000
  H   H747      1.0  0.03417  0.81421  0.54520  1.0000
  H   H748      1.0  0.79603  0.91371  0.52856  1.0000
  H   H749      1.0  0.64962  0.67733  0.35550  1.0000
  H   H750      1.0  0.71323  0.74997  0.44406  1.0000
  H   H751      1.0  0.67912  0.79838  0.54553  1.0000
  H   H752      1.0  0.53780  0.64192  0.47741  1.0000
  H   H753      1.0  0.00501  0.77877  0.46471  1.0000
  S   S254      1.0  0.96318  0.93626  0.43252  1.0000
  H   H754      1.0  0.63200  0.63496  0.51734  1.0000
  H   H755      1.0  0.98053  0.08300  0.51154  1.0000
  H   H756      1.0  0.66349  0.06731  0.47636  1.0000
  Fe  Fe129     1.0  0.54248  0.84008  0.39511  1.0000
  C   C740      1.0  0.56992  0.91634  0.49127  1.0000
  C   C741      1.0  0.63717  0.08819  0.46614  1.0000
  S   S255      1.0  0.80087  0.70336  0.55486  1.0000
  S   S256      1.0  0.53676  0.74350  0.46623  1.0000
  S   S257      1.0  0.53730  0.82118  0.49863  1.0000
  H   H757      1.0  0.79962  0.78911  0.55769  1.0000
  C   C742      1.0  0.87009  0.08734  0.56239  1.0000
  H   H758      1.0  0.95439  0.03865  0.56216  1.0000
  S   S258      1.0  0.68617  0.80752  0.77795  1.0000
  N   N63       1.0  0.85853  0.85081  0.72210  1.0000
  C   C743      1.0  0.73143  0.66091  0.60363  1.0000
  C   C744      1.0  0.78727  0.65527  0.65628  1.0000
  H   H759      1.0  0.88585  0.08339  0.59871  1.0000
  C   C745      1.0  0.61714  0.67326  0.77756  1.0000
  H   H760      1.0  0.60732  0.83280  0.59831  1.0000
  H   H761      1.0  0.89062  0.84974  0.63807  1.0000
  H   H762      1.0  0.59570  0.97240  0.79510  1.0000
  S   S259      1.0  0.75710  0.88569  0.62645  1.0000
  Fe  Fe130     1.0  0.63163  0.82423  0.80919  1.0000
  C   C746      1.0  0.60977  0.69042  0.59757  1.0000
  C   C747      1.0  0.67275  0.89956  0.66563  1.0000
  H   H763      1.0  0.54440  0.97515  0.75048  1.0000
  C   C748      1.0  0.73905  0.64042  0.66434  1.0000
  C   C749      1.0  0.56688  0.88594  0.71810  1.0000
  H   H764      1.0  0.91079  0.88845  0.76508  1.0000
  C   C750      1.0  0.77838  0.91396  0.62544  1.0000
  H   H765      1.0  0.56685  0.98689  0.58047  1.0000
  C   C751      1.0  0.92738  0.75063  0.69639  1.0000
  H   H766      1.0  0.92157  0.93649  0.68208  1.0000
  N   N64       1.0  0.64947  0.77915  0.61855  1.0000
  H   H767      1.0  0.77341  0.62079  0.73692  1.0000
  H   H768      1.0  0.00705  0.95258  0.76686  1.0000
  C   C752      1.0  0.61788  0.92569  0.62501  1.0000
  H   H769      1.0  0.59373  0.69486  0.75495  1.0000
  C   C753      1.0  0.99945  0.90154  0.77256  1.0000
  H   H770      1.0  0.76419  0.91994  0.72212  1.0000
  C   C754      1.0  0.63592  0.65535  0.62105  1.0000
  Fe  Fe131     1.0  0.92327  0.63817  0.59250  1.0000
  H   H771      1.0  0.64958  0.86487  0.64833  1.0000
  S   S260      1.0  0.02508  0.08434  0.66749  1.0000
  S   S261      1.0  0.00493  0.88327  0.60218  1.0000
  S   S262      1.0  0.59433  0.83730  0.73962  1.0000
  H   H772      1.0  0.64887  0.59823  0.67535  1.0000
  C   C755      1.0  0.64916  0.75688  0.67610  1.0000
  C   C756      1.0  0.75157  0.67860  0.56939  1.0000
  C   C757      1.0  0.96032  0.77988  0.62527  1.0000
  C   C758      1.0  0.81807  0.08283  0.76098  1.0000
  C   C759      1.0  0.66879  0.93699  0.66358  1.0000
  S   S263      1.0  0.00423  0.73635  0.78996  1.0000
  H   H773      1.0  0.63880  0.67199  0.74327  1.0000
  C   C760      1.0  0.81848  0.82340  0.73802  1.0000
  H   H774      1.0  0.68867  0.94155  0.67878  1.0000
  H   H775      1.0  0.96529  0.79398  0.57901  1.0000
  C   C761      1.0  0.84589  0.82887  0.70397  1.0000
  Fe  Fe132     1.0  0.88721  0.66805  0.71167  1.0000
  H   H776      1.0  0.73192  0.72049  0.70440  1.0000
  Fe  Fe133     1.0  0.92559  0.05433  0.72049  1.0000
  H   H777      1.0  0.59885  0.79136  0.60369  1.0000
  C   C762      1.0  0.80434  0.84007  0.79134  1.0000
  C   C763      1.0  0.64702  0.89379  0.64678  1.0000
  S   S264      1.0  0.97124  0.03764  0.77008  1.0000
  H   H778      1.0  0.64663  0.91203  0.78648  1.0000
  C   C764      1.0  0.54458  0.95312  0.72845  1.0000
  C   C765      1.0  0.93421  0.76815  0.63636  1.0000
  H   H779      1.0  0.59824  0.92086  0.60973  1.0000
  C   C766      1.0  0.56611  0.91423  0.74799  1.0000
  C   C767      1.0  0.67881  0.78089  0.59123  1.0000
  H   H780      1.0  0.53875  0.08620  0.76338  1.0000
  Fe  Fe134     1.0  0.84859  0.69007  0.59617  1.0000
  C   C768      1.0  0.61786  0.80320  0.58771  1.0000
  C   C769      1.0  0.70877  0.73714  0.68028  1.0000
  H   H781      1.0  0.82770  0.99640  0.80058  1.0000
  H   H782      1.0  0.70954  0.66384  0.58327  1.0000
  C   C770      1.0  0.76745  0.63676  0.69013  1.0000
  S   S265      1.0  0.91799  0.01075  0.68457  1.0000
  C   C771      1.0  0.99947  0.99622  0.60615  1.0000
  H   H783      1.0  0.56930  0.01201  0.63679  1.0000
  S   S266      1.0  0.85248  0.72484  0.65976  1.0000
  C   C772      1.0  0.81991  0.01965  0.75890  1.0000
  C   C773      1.0  0.90480  0.98210  0.80604  1.0000
  C   C774      1.0  0.58390  0.99563  0.59876  1.0000
  H   H784      1.0  0.85673  0.81580  0.66263  1.0000
  H   H785      1.0  0.73215  0.76118  0.59973  1.0000
  C   C775      1.0  0.88687  0.85694  0.68555  1.0000
  H   H786      1.0  0.00230  0.69026  0.61543  1.0000
  H   H787      1.0  0.88215  0.88774  0.67901  1.0000
  H   H788      1.0  0.54691  0.87491  0.64506  1.0000
  C   C776      1.0  0.97544  0.75217  0.73263  1.0000
  C   C777      1.0  0.94781  0.74298  0.74475  1.0000
  H   H789      1.0  0.85548  0.88372  0.78979  1.0000
  C   C778      1.0  0.57629  0.69693  0.61583  1.0000
  H   H790      1.0  0.55597  0.72417  0.59858  1.0000
  C   C779      1.0  0.63906  0.96825  0.64239  1.0000
  H   H791      1.0  0.98815  0.97664  0.62829  1.0000
  H   H792      1.0  0.00767  0.89892  0.72397  1.0000
  H   H793      1.0  0.61663  0.64455  0.78737  1.0000
  H   H794      1.0  0.84280  0.01621  0.72707  1.0000
  N   N65       1.0  0.80359  0.05747  0.77808  1.0000
  C   C780      1.0  0.67884  0.73526  0.70749  1.0000
  S   S267      1.0  0.91150  0.77275  0.57476  1.0000
  C   C781      1.0  0.81772  0.95278  0.62759  1.0000
  H   H795      1.0  0.90672  0.74224  0.70545  1.0000
  H   H796      1.0  0.00154  0.78029  0.66468  1.0000
  C   C782      1.0  0.62859  0.62575  0.65894  1.0000
  S   S268      1.0  0.88985  0.08990  0.78876  1.0000
  Fe  Fe135     1.0  0.97461  0.09031  0.71212  1.0000
  H   H797      1.0  0.69569  0.87519  0.68222  1.0000
  S   S269      1.0  0.71197  0.62083  0.70719  1.0000
  H   H798      1.0  0.67879  0.71725  0.75273  1.0000
  C   C783      1.0  0.91498  0.94185  0.72961  1.0000
  C   C784      1.0  0.99882  0.93183  0.79647  1.0000
  S   S270      1.0  0.84472  0.97355  0.63102  1.0000
  H   H799      1.0  0.84163  0.07532  0.73239  1.0000
  H   H800      1.0  0.63604  0.99725  0.64144  1.0000
  C   C785      1.0  0.90857  0.91478  0.77639  1.0000
  S   S271      1.0  0.93402  0.66783  0.65635  1.0000
  H   H801      1.0  0.94301  0.72847  0.79068  1.0000
  N   N66       1.0  0.61431  0.96232  0.62255  1.0000
  H   H802      1.0  0.54319  0.67287  0.66868  1.0000
  H   H803      1.0  0.80802  0.65419  0.67786  1.0000
  S   S272      1.0  0.87941  0.63319  0.65309  1.0000
  C   C786      1.0  0.54624  0.89661  0.66867  1.0000
  C   C787      1.0  0.84535  0.86649  0.77520  1.0000
  C   C788      1.0  0.59506  0.63192  0.67588  1.0000
  C   C789      1.0  0.56902  0.66790  0.65570  1.0000
  H   H804      1.0  0.79882  0.95478  0.72392  1.0000
  C   C790      1.0  0.91260  0.97578  0.74422  1.0000
  H   H805      1.0  0.98890  0.85166  0.79247  1.0000
  Fe  Fe136     1.0  0.89874  0.72241  0.59994  1.0000
  H   H806      1.0  0.80778  0.80704  0.72246  1.0000
  H   H807      1.0  0.80235  0.01566  0.73328  1.0000
  H   H808      1.0  0.62577  0.75615  0.69821  1.0000
  C   C791      1.0  0.79816  0.94592  0.68118  1.0000
  C   C792      1.0  0.98112  0.77162  0.67345  1.0000
  C   C793      1.0  0.77875  0.92608  0.68028  1.0000
  C   C794      1.0  0.77900  0.67664  0.59614  1.0000
  C   C795      1.0  0.70884  0.76010  0.62177  1.0000
  H   H809      1.0  0.58234  0.90629  0.78546  1.0000
  H   H810      1.0  0.66184  0.65040  0.60760  1.0000
  H   H811      1.0  0.91052  0.83859  0.70984  1.0000
  H   H812      1.0  0.85675  0.04122  0.61066  1.0000
  C   C796      1.0  0.64744  0.93289  0.80996  1.0000
  C   C797      1.0  0.00608  0.68935  0.56451  1.0000
  H   H813      1.0  0.81967  0.83679  0.56884  1.0000
  C   C798      1.0  0.79661  0.92256  0.57110  1.0000
  C   C799      1.0  0.98886  0.87498  0.81115  1.0000
  C   C800      1.0  0.98049  0.03106  0.56890  1.0000
  C   C801      1.0  0.81681  0.94137  0.57240  1.0000
  C   C802      1.0  0.85349  0.06352  0.56961  1.0000
  C   C803      1.0  0.03309  0.98655  0.61410  1.0000
  C   C804      1.0  0.81800  0.86150  0.81049  1.0000
  C   C805      1.0  0.77385  0.06693  0.81397  1.0000
  H   H814      1.0  0.94866  0.64020  0.82798  1.0000
  C   C806      1.0  0.00435  0.75782  0.03741  1.0000
  H   H815      1.0  0.76486  0.04788  0.05327  1.0000
  C   C807      1.0  0.61880  0.99316  0.84838  1.0000
  Fe  Fe137     1.0  0.84986  0.92065  0.96554  1.0000
  N   N67       1.0  0.97555  0.91009  0.89560  1.0000
  C   C808      1.0  0.54028  0.89638  0.97331  1.0000
  C   C809      1.0  0.89880  0.92212  0.83736  1.0000
  Fe  Fe138     1.0  0.68601  0.83898  0.85139  1.0000
  H   H816      1.0  0.64190  0.89111  0.03668  1.0000
  H   H817      1.0  0.02246  0.76059  0.88270  1.0000
  H   H818      1.0  0.78602  0.62593  0.83409  1.0000
  C   C810      1.0  0.95303  0.79067  0.98278  1.0000
  S   S273      1.0  0.62406  0.02115  0.01903  1.0000
  C   C811      1.0  0.82841  0.63962  0.82762  1.0000
  C   C812      1.0  0.57665  0.62077  0.90231  1.0000
  Fe  Fe139     1.0  0.59221  0.07413  0.06012  1.0000
  C   C813      1.0  0.75607  0.83271  0.02801  1.0000
  H   H819      1.0  0.77962  0.83484  0.01112  1.0000
  N   N68       1.0  0.69564  0.85984  0.02852  1.0000
  C   C814      1.0  0.02044  0.95084  0.99541  1.0000
  H   H820      1.0  0.53967  0.87167  0.00596  1.0000
  H   H821      1.0  0.92570  0.80592  0.98316  1.0000
  H   H822      1.0  0.54130  0.98613  0.85965  1.0000
  S   S274      1.0  0.73796  0.03525  0.95285  1.0000
  H   H823      1.0  0.94868  0.94575  0.96399  1.0000
  C   C815      1.0  0.74572  0.65139  0.00183  1.0000
  C   C816      1.0  0.62670  0.69678  0.95110  1.0000
  Fe  Fe140     1.0  0.57929  0.03678  0.96595  1.0000
  S   S275      1.0  0.54954  0.09261  0.99999  1.0000
  H   H824      1.0  0.96010  0.79382  0.88250  1.0000
  C   C817      1.0  0.80041  0.66878  0.99414  1.0000
  H   H825      1.0  0.64937  0.00734  0.89629  1.0000
  S   S276      1.0  0.88824  0.88945  0.89406  1.0000
  S   S277      1.0  0.94153  0.05046  0.93634  1.0000
  C   C818      1.0  0.77860  0.62401  0.99122  1.0000
  H   H826      1.0  0.87452  0.04598  0.98126  1.0000
  C   C819      1.0  0.56321  0.94332  0.93974  1.0000
  S   S278      1.0  0.72729  0.69584  0.84688  1.0000
  H   H827      1.0  0.72590  0.88471  0.96805  1.0000
  C   C820      1.0  0.82346  0.08870  0.98966  1.0000
  H   H828      1.0  0.71483  0.70945  0.01690  1.0000
  C   C821      1.0  0.59481  0.70951  0.92965  1.0000
  S   S279      1.0  0.83440  0.98129  0.97863  1.0000
  S   S280      1.0  0.62438  0.80818  0.04751  1.0000
  C   C822      1.0  0.81501  0.70530  0.83563  1.0000
  H   H829      1.0  0.94479  0.90139  0.97769  1.0000
  C   C823      1.0  0.78052  0.71408  0.84069  1.0000
  H   H830      1.0  0.57240  0.72388  0.95858  1.0000
  C   C824      1.0  0.96273  0.91473  0.96037  1.0000
  C   C825      1.0  0.64874  0.98650  0.87247  1.0000
  C   C826      1.0  0.60888  0.60267  0.92491  1.0000
  C   C827      1.0  0.58669  0.80261  0.06064  1.0000
  H   H831      1.0  0.80707  0.87484  0.85163  1.0000
  C   C828      1.0  0.74033  0.68806  0.00861  1.0000
  C   C829      1.0  0.58737  0.63462  0.01467  1.0000
  H   H832      1.0  0.68017  0.66786  0.93018  1.0000
  C   C830      1.0  0.66399  0.89050  0.00426  1.0000
  C   C831      1.0  0.00911  0.01635  0.90315  1.0000
  Fe  Fe141     1.0  0.69609  0.75719  0.85634  1.0000
  S   S281      1.0  0.64179  0.77162  0.88237  1.0000
  H   H833      1.0  0.96825  0.98038  0.02565  1.0000
  C   C832      1.0  0.72339  0.07382  0.99319  1.0000
  Fe  Fe142     1.0  0.93627  0.07692  0.83496  1.0000
  H   H834      1.0  0.82176  0.67559  0.99210  1.0000
  C   C833      1.0  0.57454  0.79413  0.01354  1.0000
  H   H835      1.0  0.81625  0.08500  0.94755  1.0000
  S   S282      1.0  0.88155  0.65802  0.81579  1.0000
  H   H836      1.0  0.59151  0.64031  0.05785  1.0000
  C   C834      1.0  0.74140  0.07253  0.04126  1.0000
  S   S283      1.0  0.70081  0.78709  0.92742  1.0000
  C   C835      1.0  0.59205  0.70200  0.87191  1.0000
  H   H837      1.0  0.82315  0.72751  0.83523  1.0000
  H   H838      1.0  0.76236  0.04683  0.82737  1.0000
  C   C836      1.0  0.61454  0.61032  0.98003  1.0000
  N   N69       1.0  0.80542  0.63295  0.98705  1.0000
  S   S284      1.0  0.79684  0.92644  0.97468  1.0000
  C   C837      1.0  0.67691  0.92521  0.83668  1.0000
  C   C838      1.0  0.55506  0.65319  0.99175  1.0000
  C   C839      1.0  0.54204  0.79558  0.02071  1.0000
  C   C840      1.0  0.89767  0.95534  0.85254  1.0000
  H   H839      1.0  0.76396  0.72526  0.01026  1.0000
  C   C841      1.0  0.97231  0.78427  0.92632  1.0000
  C   C842      1.0  0.97560  0.62474  0.81849  1.0000
  S   S285      1.0  0.63048  0.85930  0.87758  1.0000
  H   H840      1.0  0.70084  0.94716  0.88607  1.0000
  H   H841      1.0  0.66420  0.91918  0.99895  1.0000
  C   C843      1.0  0.72558  0.86112  0.00454  1.0000
  H   H842      1.0  0.89206  0.96007  0.90024  1.0000
  Fe  Fe143     1.0  0.78212  0.98491  0.99661  1.0000
  C   C844      1.0  0.61858  0.96712  0.81476  1.0000
  C   C845      1.0  0.00754  0.76538  0.92666  1.0000
  H   H843      1.0  0.62936  0.70186  0.99612  1.0000
  C   C846      1.0  0.76782  0.69691  0.00486  1.0000
  H   H844      1.0  0.57271  0.61573  0.85832  1.0000
  C   C847      1.0  0.83977  0.60323  0.97860  1.0000
  N   N70       1.0  0.02308  0.75282  0.98168  1.0000
  Fe  Fe144     1.0  0.64541  0.80519  0.94835  1.0000
  C   C848      1.0  0.03171  0.61977  0.81960  1.0000
  C   C849      1.0  0.79403  0.64818  0.83401  1.0000
  H   H845      1.0  0.58949  0.78802  0.97060  1.0000
  C   C850      1.0  0.98851  0.98197  0.99255  1.0000
  C   C851      1.0  0.65169  0.67092  0.85635  1.0000
  H   H846      1.0  0.98612  0.95946  0.87654  1.0000
  H   H847      1.0  0.98405  0.90113  0.99144  1.0000
  C   C852      1.0  0.67799  0.95267  0.86596  1.0000
  S   S286      1.0  0.55710  0.00376  0.04079  1.0000
  H   H848      1.0  0.99660  0.07401  0.96636  1.0000
  C   C853      1.0  0.85632  0.06679  0.00899  1.0000
  H   H849      1.0  0.02465  0.92554  0.03090  1.0000
  H   H850      1.0  0.67412  0.65581  0.82797  1.0000
  H   H851      1.0  0.72455  0.64423  0.00465  1.0000
  C   C854      1.0  0.65531  0.67760  0.91409  1.0000
  H   H852      1.0  0.76205  0.74301  0.84468  1.0000
  H   H853      1.0  0.58062  0.95493  0.94458  1.0000
  H   H854      1.0  0.96777  0.85972  0.90226  1.0000
  H   H855      1.0  0.56714  0.71053  0.85680  1.0000
  S   S287      1.0  0.58076  0.03133  0.86599  1.0000
  H   H856      1.0  0.66074  0.88622  0.95797  1.0000
  C   C855      1.0  0.98259  0.01432  0.94544  1.0000
  C   C856      1.0  0.97702  0.87965  0.87305  1.0000
  H   H857      1.0  0.00500  0.04180  0.86783  1.0000
  C   C857      1.0  0.96911  0.77722  0.03879  1.0000
  S   S288      1.0  0.71032  0.87927  0.84109  1.0000
  H   H858      1.0  0.85748  0.61624  0.95686  1.0000
  N   N71       1.0  0.62034  0.68306  0.83602  1.0000
  C   C858      1.0  0.77011  0.68544  0.83994  1.0000
  C   C859      1.0  0.98687  0.93559  0.85858  1.0000
  C   C860      1.0  0.54993  0.64673  0.93494  1.0000
  C   C861      1.0  0.83888  0.66803  0.82924  1.0000
  H   H859      1.0  0.57931  0.89743  0.01951  1.0000
  H   H860      1.0  0.98673  0.66605  0.84980  1.0000
  C   C862      1.0  0.54138  0.96058  0.89135  1.0000
  C   C863      1.0  0.99698  0.63949  0.83114  1.0000
  H   H861      1.0  0.84683  0.61100  0.82131  1.0000
  C   C864      1.0  0.56251  0.91117  0.98150  1.0000
  H   H862      1.0  0.78256  0.83680  0.81721  1.0000
  H   H863      1.0  0.90373  0.00780  0.81796  1.0000
  N   N72       1.0  0.86559  0.07213  0.06141  1.0000
  H   H864      1.0  0.91336  0.02377  0.05852  1.0000
