data_image0
_chemical_formula_structural       CH4C2H2CFeCSHFeS2FeS2FeS2FeHFeCS3H2FeS2HSCFeSHFeS2FeS2FeHFeS3C6H6C8H4C6H5C6H4C6H3CHCHFeHC2FeHSC2HSHCHCHC2H2SHCNC2HC2H2CSNCHCH4FeCH2CH4C2SH2NHC2S2HCHS2C2H3CSNC2HC4HCN2FeH2CHCH3SC2NHSCHFeH4C2SCHCFeC5NHC4SC3NHS2FeS2FeSFeSFeS3FeS2FeS2FeSFeHS2FeS2CFeS2FeS2FeS2FeSFeS3HC6H5CH2C6H4C5H2C7H4C6H4C2H2C7H4CH12C2H2CN3CH2C3NCHC2H3CHCHSH2C4H2CHNC6H7SNSH2C2HSH3C2H3C3H2CH2CH3CH2C2SH2FeH2CFeCH2FeCHFeS2FeS2FeS2FeSFeS3FeS2HC2HFeSFeS2FeSFeS3FeS2FeSCFeSFeS3C6H4C2H4C7H3FeCH3NH2C4H3C9H4C6H4C3NHNC6H5CHC3H3CHCH3CSC4HSNCHCH6NH2SH3CHC3NC6H7CHC2H6SHC2SNC5HSH4NH2CH4C3HCHC2FeC2H2CH3CH2C3H5C2HSC4SHSFeS2FeS2FeSFeCS2FeSHFeS2FeSFeSFeS2Fe2HFeHS2FeS2FeS2FeSFeS3C7H4NC2FeCH2C7H4C6H4C7H4CHNC6H2SC2H3C2SH3CH6CHSCHNC2HCH2CSCNH4CH2C3HCH3C4H4NC6H6CHCHCHCHSC2HSH2C2HSCHFeH7CHCNCSCHFeSFeS2FeS2FeSFeS3FeS2C3SFeS2HFeS2FeS2FeSFeS3C6HCHNHSHC6H4FeH2SC6H6CHCH2C7H4C6H4C6H4C6H3C7H9CHCNC6HCH4C2SHC2H2C4HSNC5H3NHNC6H8C2HCSCHCSCHNC6H8NC7H2FeHNHCH3CHSH2FeH2CH3CHCSHFeCH2FeNH5CHCNCHFeH3C2H5SCS3H3SHC2H2C2H2CHC4H4CH2S2HCH6FeS2H5NSFeS2H4CHFeS2C2HCHNC6H5CHC2H2C4HC2HSC2HCNCHCSC3HC3HC2H2CHCHCFeH2CHFeH2CH3FeC2HCH2S2HC2SHCH4CNHC2SHC2SC3H2SH3FeS2Fe2S2FeS2FeS2FeSFeS3C6H4C6H4CNC6H3C6H4CH2SNC6H4SH2NC6H8C6HNHCSH2C5HCHCH4CH2FeH2CHFeSCSHSC3H2C2HCH3SH2CHC2H2CHNSHCH3S3FeH2C2NCH2C4HSFeCH3CHC2NFeHSHC2H2CHSC3HCH2NC2H3C4H3CHFeHC4H5C2SCHC2FeH3C4HNCH2CH2SHNH2C2HFeS3FeSFeSHSC5H2CHC2SCH2NHFeSFeCH3C2HCH3FeS2FeS2FeSFeS3FeS2FeS2FeSFeS3FeH3SFeS2FeS2H5C7H5C8FeSH2C6H4C6H4C6H4C6H4C6HCH2CSC2HSCHC2H2C2H2CH5SH3CHCH2CH3C4H2C4NCHCHCFe2C3HCNCHCNC5H6NH4N2CH2C2HNHCH3CSC4HNC2H2CH2SHCH2C3H3CH2CSHC3H2NFeS2H2CH3C3HCHFeS3CHCHC4H3C4HCFeH2CHCH3CH2C6H5CNCH2NHC2HCHSHCH3CSNHSC3H4SHCHCSHCHNFeH2CH5C2HCS2HCFeS2FeS2FeSFeS3FeSHFeS2NFeS2FeS2Fe2CFeHS2HFeS2FeS2FeSFeS3CHC6H3CHC4H2C6H4C6H2C4HCH2C6H4C3HNFeC6H4C6H4C6H2CHC7H2C7H3C2SHC2H6NC6H8C3HCH3CH5CH2SCH3SH5CNC6H6C2HSHCH3C3NHCH2C5HCH2NCH2NCH2SCNCSH2CHSCH2FeH2CFeCH2C2S2H3NHCH2C4NCH3C2H3NHC5SH2CH3SCSHCH2C2H2CSHCHSHCH3CH5SHFeCH3SHFeHSHCS2FeS2FeS2FeSFeS3CSFeSHFeS3CFeS2FeS2FeHFeS3C6H4NSHSC6H4C6H4C6H4C3H7C2HC2NC2HC2HC3NC2H5NFeH2SH2C3H4CH2FeH5FeC2HC2HSC3NHC2H2CH3C2FeCHCNC5H3CFeC2Fe2C2H2CHCHCHFeH2SN2H2SC2S2HCHFeSFeS2FeSFeS3FeS2FeS2Fe2S3FeS2FeHSHSHFeS2FeS2FeSFeS3C6H4C2SH2C6H6C6H2CHC6H4C6H4C4H2C6H5C3HSH2C3H2NHCH2CHC2NC6H10NC6H8FeNC2HCHC7HC2HCH2CH3C4H3SC2HC2HN2HSH2CFeH4C2H2NCH4C2H2CHNH2CHCHS2HSCH3FeC3FeS2HCFeSCFeS2FeS2FeSFeS4H3FeSFeS2FeSFeHS2FeS2FeSFeSFeS3C6H4C6H3SCH2CH2S2CHCH3C6H4CHC3HC7H6C4H3C6H4CH4NC5H5CHC2HC2H3NCHC2HC2NC2H3NC6H11C2H3CHS2C2H2CH2C4SNCSC2H2NHC4NHCSCH2C4H8NHCHC2H2CFeHSHCHS2FeS2FeS2FeSFeS2FeSFeS2CFeS2FeCSFe3CS2FeS2FeS2FeHFeHS2C6H4C2SC3NC5HCH4C6H4C6H4C8H7C2NC6H7CHCH2CHFeHNCH4FeCHCSH3SNC6HNH5CHCHC2H2CSHNCSHCH2CHCH2C2H3C2H3CSHCHC2SH5CHC2H2C5
_chemical_formula_sum              "C1296 H1296 Fe216 S432 N108"
_cell_length_a       56.2999
_cell_length_b       55.7229
_cell_length_c       94.7032
_cell_angle_alpha    90.0646
_cell_angle_beta     90.4444
_cell_angle_gamma    112.962

_space_group_name_H-M_alt    "P 1"
_space_group_IT_number       1

loop_
  _space_group_symop_operation_xyz
  'x, y, z'

loop_
  _atom_site_type_symbol
  _atom_site_label
  _atom_site_symmetry_multiplicity
  _atom_site_fract_x
  _atom_site_fract_y
  _atom_site_fract_z
  _atom_site_occupancy
  C   C1        1.0  0.22008  0.08400  0.00827  1.0000
  H   H1        1.0  0.29103  0.40296  0.06176  1.0000
  H   H2        1.0  0.02036  0.24156  0.06533  1.0000
  H   H3        1.0  0.40491  0.39985  0.22388  1.0000
  H   H4        1.0  0.26483  0.46709  0.09943  1.0000
  C   C2        1.0  0.22502  0.34959  0.04661  1.0000
  C   C3        1.0  0.42100  0.45386  0.09784  1.0000
  H   H5        1.0  0.07621  0.35977  0.03573  1.0000
  H   H6        1.0  0.31470  0.37672  0.20322  1.0000
  C   C4        1.0  0.11872  0.22180  0.00644  1.0000
  Fe  Fe1       1.0  0.24440  0.26138  0.01401  1.0000
  C   C5        1.0  0.33362  0.35219  0.22521  1.0000
  S   S1        1.0  0.25039  0.28314  0.03528  1.0000
  H   H7        1.0  0.09456  0.35736  0.23731  1.0000
  Fe  Fe2       1.0  0.00860  0.22466  0.00362  1.0000
  S   S2        1.0  0.20846  0.22379  0.01320  1.0000
  S   S3        1.0  0.26830  0.24430  0.00140  1.0000
  Fe  Fe3       1.0  0.32815  0.40612  0.08414  1.0000
  S   S4        1.0  0.33463  0.44630  0.07635  1.0000
  S   S5        1.0  0.33588  0.38002  0.06763  1.0000
  Fe  Fe4       1.0  0.31070  0.41736  0.11350  1.0000
  S   S6        1.0  0.31427  0.45738  0.10714  1.0000
  S   S7        1.0  0.29255  0.40177  0.13472  1.0000
  Fe  Fe5       1.0  0.29637  0.43865  0.08653  1.0000
  H   H8        1.0  0.05059  0.47302  0.16776  1.0000
  Fe  Fe6       1.0  0.35233  0.46125  0.09766  1.0000
  C   C6        1.0  0.06599  0.46560  0.05997  1.0000
  S   S8        1.0  0.28959  0.39823  0.09357  1.0000
  S   S9        1.0  0.34912  0.42143  0.10482  1.0000
  S   S10       1.0  0.29930  0.40556  0.22590  1.0000
  H   H9        1.0  0.28630  0.42199  0.04746  1.0000
  H   H10       1.0  0.04168  0.40462  0.04686  1.0000
  Fe  Fe7       1.0  0.33596  0.43214  0.21548  1.0000
  S   S11       1.0  0.35215  0.42886  0.19392  1.0000
  S   S12       1.0  0.33073  0.46874  0.22120  1.0000
  H   H11       1.0  0.20719  0.09416  0.02791  1.0000
  S   S13       1.0  0.05740  0.44466  0.23304  1.0000
  C   C7        1.0  0.21766  0.42724  0.13919  1.0000
  Fe  Fe8       1.0  0.08391  0.43728  0.21747  1.0000
  S   S14       1.0  0.08697  0.45323  0.19506  1.0000
  H   H12       1.0  0.00239  0.24441  0.04994  1.0000
  Fe  Fe9       1.0  0.09002  0.40983  0.08316  1.0000
  S   S15       1.0  0.11593  0.45258  0.08095  1.0000
  S   S16       1.0  0.08307  0.38603  0.06249  1.0000
  Fe  Fe10      1.0  0.08585  0.41595  0.11538  1.0000
  S   S17       1.0  0.11083  0.45843  0.11519  1.0000
  S   S18       1.0  0.06917  0.39516  0.13588  1.0000
  Fe  Fe11      1.0  0.08883  0.46049  0.09579  1.0000
  H   H13       1.0  0.10672  0.30659  0.03131  1.0000
  Fe  Fe12      1.0  0.13583  0.44692  0.10055  1.0000
  S   S19       1.0  0.17806  0.46462  0.10648  1.0000
  S   S20       1.0  0.06149  0.41821  0.09677  1.0000
  S   S21       1.0  0.11226  0.40399  0.10191  1.0000
  C   C8        1.0  0.08579  0.43591  0.17922  1.0000
  C   C9        1.0  0.07306  0.40879  0.17827  1.0000
  C   C10       1.0  0.06908  0.39634  0.16497  1.0000
  C   C11       1.0  0.07801  0.41081  0.15256  1.0000
  C   C12       1.0  0.09188  0.43773  0.15365  1.0000
  C   C13       1.0  0.09557  0.45020  0.16689  1.0000
  H   H14       1.0  0.06535  0.39756  0.18769  1.0000
  H   H15       1.0  0.05840  0.37547  0.16425  1.0000
  H   H16       1.0  0.09890  0.44917  0.14427  1.0000
  H   H17       1.0  0.10551  0.47116  0.16751  1.0000
  H   H18       1.0  0.41047  0.45770  0.06272  1.0000
  H   H19       1.0  0.08651  0.20475  0.02058  1.0000
  C   C14       1.0  0.03849  0.32839  0.03553  1.0000
  C   C15       1.0  0.38502  0.38600  0.22424  1.0000
  C   C16       1.0  0.23925  0.44621  0.08256  1.0000
  C   C17       1.0  0.21404  0.43783  0.07708  1.0000
  C   C18       1.0  0.19501  0.44341  0.08428  1.0000
  C   C19       1.0  0.20134  0.45793  0.09680  1.0000
  C   C20       1.0  0.22660  0.46652  0.10219  1.0000
  C   C21       1.0  0.24543  0.46043  0.09518  1.0000
  H   H20       1.0  0.15726  0.42087  0.13010  1.0000
  H   H21       1.0  0.17555  0.43669  0.08009  1.0000
  H   H22       1.0  0.99577  0.31518  0.06240  1.0000
  H   H23       1.0  0.03213  0.42691  0.17233  1.0000
  C   C22       1.0  0.30935  0.41104  0.15107  1.0000
  C   C23       1.0  0.33629  0.42269  0.15174  1.0000
  C   C24       1.0  0.34904  0.42834  0.16495  1.0000
  C   C25       1.0  0.33505  0.42304  0.17760  1.0000
  C   C26       1.0  0.30808  0.41194  0.17693  1.0000
  C   C27       1.0  0.29533  0.40573  0.16372  1.0000
  H   H24       1.0  0.34732  0.42686  0.14210  1.0000
  H   H25       1.0  0.36990  0.43687  0.16535  1.0000
  H   H26       1.0  0.29704  0.40768  0.18657  1.0000
  H   H27       1.0  0.27449  0.39663  0.16332  1.0000
  H   H28       1.0  0.37578  0.39539  0.20349  1.0000
  C   C28       1.0  0.27490  0.30980  0.04408  1.0000
  C   C29       1.0  0.26877  0.31900  0.05683  1.0000
  C   C30       1.0  0.28699  0.34067  0.06401  1.0000
  C   C31       1.0  0.31189  0.35318  0.05867  1.0000
  C   C32       1.0  0.31814  0.34392  0.04596  1.0000
  C   C33       1.0  0.29971  0.32255  0.03862  1.0000
  H   H29       1.0  0.24968  0.30931  0.06118  1.0000
  H   H30       1.0  0.28188  0.34732  0.07382  1.0000
  H   H31       1.0  0.33736  0.35332  0.04174  1.0000
  H   H32       1.0  0.30478  0.31574  0.02884  1.0000
  C   C34       1.0  0.01568  0.31554  0.04299  1.0000
  C   C35       1.0  0.01336  0.32485  0.05654  1.0000
  C   C36       1.0  0.03362  0.34639  0.06267  1.0000
  C   C37       1.0  0.05650  0.35909  0.05526  1.0000
  C   C38       1.0  0.05867  0.35009  0.04161  1.0000
  C   C39       1.0  0.02298  0.42300  0.16165  1.0000
  H   H33       1.0  0.04415  0.40986  0.06562  1.0000
  H   H34       1.0  0.03153  0.35302  0.07315  1.0000
  H   H35       1.0  0.17637  0.40684  0.11174  1.0000
  C   C40       1.0  0.18560  0.44177  0.23412  1.0000
  H   H36       1.0  0.00277  0.42139  0.16248  1.0000
  C   C41       1.0  0.08277  0.30634  0.04904  1.0000
  H   H37       1.0  0.02475  0.42237  0.05495  1.0000
  Fe  Fe13      1.0  0.19816  0.24127  0.99388  1.0000
  H   H38       1.0  0.18154  0.45067  0.13648  1.0000
  C   C42       1.0  0.07153  0.27222  0.03150  1.0000
  C   C43       1.0  0.34982  0.35391  0.23677  1.0000
  Fe  Fe14      1.0  0.23160  0.20816  0.99908  1.0000
  H   H39       1.0  0.38385  0.37232  0.07938  1.0000
  S   S22       1.0  0.26176  0.01989  0.99860  1.0000
  C   C44       1.0  0.22846  0.13606  0.00015  1.0000
  C   C45       1.0  0.04831  0.25902  0.03852  1.0000
  H   H40       1.0  0.21326  0.31838  0.03120  1.0000
  S   S23       1.0  0.04335  0.21399  0.00911  1.0000
  H   H41       1.0  0.09584  0.32508  0.05317  1.0000
  C   C46       1.0  0.32570  0.36428  0.20131  1.0000
  H   H42       1.0  0.14795  0.18654  0.99703  1.0000
  C   C47       1.0  0.19337  0.41037  0.11824  1.0000
  H   H43       1.0  0.08656  0.42556  0.04188  1.0000
  C   C48       1.0  0.23578  0.40968  0.12084  1.0000
  C   C49       1.0  0.36840  0.38342  0.21275  1.0000
  H   H44       1.0  0.30874  0.40591  0.04592  1.0000
  H   H45       1.0  0.05453  0.30106  0.06512  1.0000
  S   S24       1.0  0.26183  0.45577  0.22988  1.0000
  H   H46       1.0  0.33652  0.37093  0.19131  1.0000
  C   C50       1.0  0.32695  0.99839  0.06034  1.0000
  N   N1        1.0  0.39899  0.41121  0.08772  1.0000
  C   C51       1.0  0.08878  0.29608  0.03677  1.0000
  C   C52       1.0  0.39917  0.42207  0.07474  1.0000
  H   H47       1.0  0.13165  0.21597  0.01273  1.0000
  C   C53       1.0  0.42171  0.46502  0.08460  1.0000
  C   C54       1.0  0.24537  0.37212  0.05137  1.0000
  H   H48       1.0  0.25493  0.33557  0.01867  1.0000
  H   H49       1.0  0.31195  0.34380  0.19969  1.0000
  C   C55       1.0  0.17511  0.42910  0.13668  1.0000
  S   S25       1.0  0.07031  0.49013  0.09378  1.0000
  N   N2        1.0  0.04225  0.26954  0.05033  1.0000
  C   C56       1.0  0.04999  0.46870  0.15655  1.0000
  H   H50       1.0  0.02693  0.41832  0.13381  1.0000
  C   C57       1.0  0.38602  0.38293  0.08958  1.0000
  H   H51       1.0  0.12543  0.46630  0.03972  1.0000
  H   H52       1.0  0.40841  0.41827  0.10963  1.0000
  H   H53       1.0  0.21474  0.13955  0.02089  1.0000
  H   H54       1.0  0.04060  0.32158  0.02510  1.0000
  Fe  Fe15      1.0  0.35284  0.46884  0.24093  1.0000
  C   C58       1.0  0.37564  0.37103  0.23630  1.0000
  H   H55       1.0  0.21971  0.47155  0.22545  1.0000
  H   H56       1.0  0.31334  0.33958  0.22592  1.0000
  C   C59       1.0  0.21337  0.40419  0.11283  1.0000
  H   H57       1.0  0.25545  0.42562  0.14038  1.0000
  H   H58       1.0  0.39707  0.37557  0.09693  1.0000
  H   H59       1.0  0.17002  0.42199  0.14764  1.0000
  H   H60       1.0  0.36633  0.37811  0.09382  1.0000
  C   C60       1.0  0.21879  0.12682  0.01354  1.0000
  C   C61       1.0  0.22862  0.44037  0.23428  1.0000
  S   S26       1.0  0.07754  0.39800  0.22669  1.0000
  H   H61       1.0  0.25158  0.40528  0.11673  1.0000
  H   H62       1.0  0.08275  0.32304  0.24156  1.0000
  N   N3        1.0  0.03722  0.44372  0.15173  1.0000
  H   H63       1.0  0.24273  0.38229  0.06064  1.0000
  C   C62       1.0  0.21205  0.45298  0.23079  1.0000
  C   C63       1.0  0.10863  0.46642  0.04521  1.0000
  S   S27       1.0  0.01206  0.26551  0.99878  1.0000
  S   S28       1.0  0.23323  0.27903  0.99493  1.0000
  H   H64       1.0  0.43037  0.48604  0.08345  1.0000
  C   C64       1.0  0.23797  0.42122  0.13412  1.0000
  H   H65       1.0  0.07600  0.26395  0.02199  1.0000
  S   S29       1.0  0.26265  0.43868  0.07349  1.0000
  S   S30       1.0  0.21416  0.05148  0.01394  1.0000
  C   C65       1.0  0.07572  0.22293  0.00295  1.0000
  C   C66       1.0  0.04287  0.41890  0.05534  1.0000
  H   H66       1.0  0.01095  0.26904  0.06309  1.0000
  H   H67       1.0  0.20920  0.42689  0.06730  1.0000
  H   H68       1.0  0.03516  0.24036  0.03438  1.0000
  C   C67       1.0  0.09304  0.21552  0.01090  1.0000
  S   S31       1.0  0.38933  0.49517  0.10478  1.0000
  N   N4        1.0  0.26859  0.38098  0.04462  1.0000
  C   C68       1.0  0.08655  0.44343  0.04646  1.0000
  C   C69       1.0  0.27194  0.36856  0.03279  1.0000
  H   H69       1.0  0.20690  0.34211  0.05223  1.0000
  C   C70       1.0  0.22845  0.33644  0.03474  1.0000
  C   C71       1.0  0.21459  0.10100  0.01752  1.0000
  C   C72       1.0  0.28974  0.40417  0.05009  1.0000
  C   C73       1.0  0.25191  0.34616  0.02765  1.0000
  H   H70       1.0  0.29042  0.37536  0.02753  1.0000
  C   C74       1.0  0.03672  0.43817  0.13763  1.0000
  N   N5        1.0  0.34311  0.36644  0.21328  1.0000
  N   N6        1.0  0.19569  0.42172  0.13128  1.0000
  Fe  Fe16      1.0  0.22186  0.01765  0.00368  1.0000
  H   H71       1.0  0.39013  0.40986  0.06570  1.0000
  H   H72       1.0  0.04911  0.45342  0.11679  1.0000
  C   C75       1.0  0.04943  0.45786  0.12795  1.0000
  H   H73       1.0  0.17315  0.45171  0.23134  1.0000
  C   C76       1.0  0.40951  0.42674  0.09922  1.0000
  H   H74       1.0  0.21185  0.39598  0.10231  1.0000
  H   H75       1.0  0.15513  0.15996  0.01487  1.0000
  H   H76       1.0  0.21965  0.43653  0.14945  1.0000
  S   S32       1.0  0.36104  0.43411  0.23455  1.0000
  C   C77       1.0  0.41060  0.44911  0.07298  1.0000
  C   C78       1.0  0.05931  0.29266  0.05576  1.0000
  N   N7        1.0  0.06551  0.44331  0.05365  1.0000
  H   H77       1.0  0.16282  0.13267  0.00996  1.0000
  S   S33       1.0  0.11980  0.45828  0.23040  1.0000
  C   C79       1.0  0.01789  0.25537  0.05760  1.0000
  H   H78       1.0  0.02296  0.40393  0.15814  1.0000
  Fe  Fe17      1.0  0.29527  0.44256  0.23286  1.0000
  H   H79       1.0  0.18808  0.16472  0.01118  1.0000
  H   H80       1.0  0.31542  0.00869  0.05637  1.0000
  H   H81       1.0  0.42855  0.46628  0.10702  1.0000
  H   H82       1.0  0.23157  0.47771  0.11189  1.0000
  C   C80       1.0  0.16763  0.15372  0.00801  1.0000
  C   C81       1.0  0.22975  0.09327  0.99489  1.0000
  S   S34       1.0  0.23341  0.16820  0.99421  1.0000
  C   C82       1.0  0.06283  0.48330  0.13275  1.0000
  H   H83       1.0  0.04974  0.46538  0.06614  1.0000
  C   C83       1.0  0.06316  0.48881  0.14715  1.0000
  Fe  Fe18      1.0  0.11204  0.41982  0.24060  1.0000
  C   C84       1.0  0.21842  0.41632  0.24117  1.0000
  C   C85       1.0  0.17537  0.41775  0.24102  1.0000
  C   C86       1.0  0.12743  0.23534  0.99381  1.0000
  C   C87       1.0  0.08771  0.48894  0.05889  1.0000
  C   C88       1.0  0.10915  0.48931  0.05148  1.0000
  N   N8        1.0  0.16422  0.15834  0.99304  1.0000
  H   H84       1.0  0.31367  0.99669  0.08176  1.0000
  C   C89       1.0  0.01944  0.31730  0.43720  1.0000
  C   C90       1.0  0.14510  0.19789  0.46783  1.0000
  C   C91       1.0  0.00407  0.24674  0.49083  1.0000
  C   C92       1.0  0.32113  0.01500  0.42750  1.0000
  S   S35       1.0  0.31985  0.37699  0.26051  1.0000
  C   C93       1.0  0.48707  0.35814  0.37667  1.0000
  C   C94       1.0  0.24351  0.24977  0.48490  1.0000
  C   C95       1.0  0.35550  0.00538  0.29261  1.0000
  N   N9        1.0  0.07982  0.34803  0.25798  1.0000
  H   H85       1.0  0.47006  0.16966  0.28941  1.0000
  S   S36       1.0  0.01465  0.37652  0.25022  1.0000
  S   S37       1.0  0.08798  0.42623  0.25804  1.0000
  Fe  Fe19      1.0  0.39071  0.33407  0.34687  1.0000
  S   S38       1.0  0.39061  0.30997  0.32766  1.0000
  S   S39       1.0  0.35111  0.32696  0.35660  1.0000
  Fe  Fe20      1.0  0.44971  0.37010  0.34325  1.0000
  S   S40       1.0  0.45255  0.34701  0.32434  1.0000
  Fe  Fe21      1.0  0.41443  0.34837  0.31739  1.0000
  S   S41       1.0  0.41226  0.36587  0.29578  1.0000
  Fe  Fe22      1.0  0.42832  0.31052  0.33634  1.0000
  S   S42       1.0  0.44036  0.27606  0.34105  1.0000
  S   S43       1.0  0.41249  0.37244  0.33598  1.0000
  S   S44       1.0  0.42761  0.33364  0.35596  1.0000
  Fe  Fe23      1.0  0.40829  0.11854  0.32818  1.0000
  S   S45       1.0  0.42783  0.10933  0.34704  1.0000
  S   S46       1.0  0.40755  0.15739  0.32011  1.0000
  Fe  Fe24      1.0  0.38527  0.06001  0.31838  1.0000
  S   S47       1.0  0.40260  0.04714  0.33694  1.0000
  S   S48       1.0  0.35963  0.03618  0.30015  1.0000
  Fe  Fe25      1.0  0.38994  0.07423  0.34993  1.0000
  S   S49       1.0  0.36956  0.06864  0.37142  1.0000
  Fe  Fe26      1.0  0.43897  0.08298  0.33260  1.0000
  H   H86       1.0  0.13107  0.19506  0.45901  1.0000
  S   S50       1.0  0.37050  0.08485  0.33163  1.0000
  S   S51       1.0  0.42157  0.09445  0.31351  1.0000
  Fe  Fe27      1.0  0.21993  0.02831  0.43299  1.0000
  S   S52       1.0  0.22886  0.06985  0.43988  1.0000
  S   S53       1.0  0.25338  0.01597  0.43535  1.0000
  C   C96       1.0  0.09375  0.36376  0.26876  1.0000
  Fe  Fe28      1.0  0.00909  0.21131  0.43533  1.0000
  S   S54       1.0  0.04237  0.19783  0.43776  1.0000
  S   S55       1.0  0.47807  0.08101  0.32683  1.0000
  Fe  Fe29      1.0  0.24956  0.24628  0.41931  1.0000
  S   S56       1.0  0.21420  0.22783  0.40556  1.0000
  S   S57       1.0  0.29159  0.26774  0.41209  1.0000
  Fe  Fe30      1.0  0.21998  0.21918  0.44621  1.0000
  S   S58       1.0  0.18313  0.19852  0.43406  1.0000
  S   S59       1.0  0.21496  0.20574  0.46906  1.0000
  Fe  Fe31      1.0  0.20799  0.19116  0.41771  1.0000
  S   S60       1.0  0.19780  0.15232  0.40673  1.0000
  Fe  Fe32      1.0  0.19206  0.23673  0.42331  1.0000
  S   S61       1.0  0.16151  0.25416  0.42102  1.0000
  S   S62       1.0  0.24418  0.20878  0.43053  1.0000
  S   S63       1.0  0.22807  0.25824  0.43635  1.0000
  H   H87       1.0  0.26992  0.20399  0.37902  1.0000
  C   C97       1.0  0.07521  0.21381  0.43262  1.0000
  C   C98       1.0  0.08545  0.23958  0.42781  1.0000
  C   C99       1.0  0.11180  0.25156  0.42421  1.0000
  C   C100      1.0  0.12820  0.23794  0.42526  1.0000
  C   C101      1.0  0.11785  0.21210  0.42994  1.0000
  C   C102      1.0  0.09162  0.20022  0.43368  1.0000
  H   H88       1.0  0.07313  0.25032  0.42693  1.0000
  H   H89       1.0  0.11954  0.27152  0.42057  1.0000
  H   H90       1.0  0.12998  0.20113  0.43055  1.0000
  H   H91       1.0  0.08388  0.18023  0.43726  1.0000
  H   H92       1.0  0.23965  0.01588  0.47609  1.0000
  C   C103      1.0  0.99852  0.37229  0.26678  1.0000
  H   H93       1.0  0.30549  0.08801  0.34107  1.0000
  H   H94       1.0  0.25303  0.25859  0.47522  1.0000
  C   C104      1.0  0.21820  0.09144  0.43076  1.0000
  C   C105      1.0  0.20658  0.08556  0.41739  1.0000
  C   C106      1.0  0.19971  0.10409  0.41021  1.0000
  C   C107      1.0  0.20426  0.12843  0.41640  1.0000
  C   C108      1.0  0.21542  0.13401  0.42988  1.0000
  C   C109      1.0  0.22251  0.11567  0.43697  1.0000
  H   H95       1.0  0.20318  0.06692  0.41252  1.0000
  H   H96       1.0  0.19104  0.09963  0.39979  1.0000
  H   H97       1.0  0.21876  0.15254  0.43482  1.0000
  H   H98       1.0  0.23139  0.12029  0.44733  1.0000
  C   C110      1.0  0.33913  0.04655  0.37785  1.0000
  C   C111      1.0  0.32777  0.05418  0.38930  1.0000
  C   C112      1.0  0.30418  0.03706  0.39510  1.0000
  C   C113      1.0  0.29173  0.01182  0.38964  1.0000
  C   C114      1.0  0.32664  0.02134  0.37238  1.0000
  H   H99       1.0  0.33733  0.07354  0.39372  1.0000
  H   H100      1.0  0.29577  0.04332  0.40387  1.0000
  C   C115      1.0  0.04036  0.34206  0.26985  1.0000
  C   C116      1.0  0.33460  0.30877  0.37166  1.0000
  C   C117      1.0  0.30796  0.30275  0.37311  1.0000
  C   C118      1.0  0.29429  0.28955  0.38514  1.0000
  C   C119      1.0  0.30721  0.28265  0.39609  1.0000
  C   C120      1.0  0.33378  0.28846  0.39459  1.0000
  C   C121      1.0  0.34733  0.30118  0.38244  1.0000
  H   H101      1.0  0.29783  0.30856  0.36492  1.0000
  H   H102      1.0  0.27394  0.28544  0.38611  1.0000
  H   H103      1.0  0.34408  0.28339  0.40299  1.0000
  H   H104      1.0  0.36778  0.30573  0.38159  1.0000
  C   C122      1.0  0.42894  0.24256  0.33561  1.0000
  C   C123      1.0  0.43527  0.22480  0.34387  1.0000
  C   C124      1.0  0.42797  0.19848  0.33965  1.0000
  C   C125      1.0  0.41483  0.18962  0.32685  1.0000
  C   C126      1.0  0.40852  0.20736  0.31859  1.0000
  C   C127      1.0  0.41524  0.23351  0.32297  1.0000
  H   H105      1.0  0.44579  0.23143  0.35368  1.0000
  H   H106      1.0  0.43281  0.18515  0.34622  1.0000
  H   H107      1.0  0.39840  0.20088  0.30865  1.0000
  H   H108      1.0  0.41032  0.24681  0.31641  1.0000
  C   C128      1.0  0.48998  0.33309  0.35584  1.0000
  C   C129      1.0  0.01041  0.38675  0.27880  1.0000
  H   H109      1.0  0.33402  0.03038  0.42086  1.0000
  H   H110      1.0  0.02958  0.40183  0.27803  1.0000
  C   C130      1.0  0.48231  0.18652  0.33166  1.0000
  C   C131      1.0  0.34558  0.37469  0.27066  1.0000
  C   C132      1.0  0.37058  0.39390  0.27018  1.0000
  C   C133      1.0  0.39064  0.39099  0.27806  1.0000
  C   C134      1.0  0.38587  0.36925  0.28683  1.0000
  C   C135      1.0  0.36076  0.35023  0.28750  1.0000
  C   C136      1.0  0.34085  0.35276  0.27927  1.0000
  H   H111      1.0  0.37458  0.41086  0.26358  1.0000
  H   H112      1.0  0.41003  0.40571  0.27737  1.0000
  H   H113      1.0  0.35687  0.33319  0.29401  1.0000
  H   H114      1.0  0.32164  0.33763  0.27962  1.0000
  C   C137      1.0  0.31754  0.01984  0.44167  1.0000
  H   H115      1.0  0.48148  0.20298  0.33744  1.0000
  H   H116      1.0  0.38788  0.41320  0.32885  1.0000
  H   H117      1.0  0.22429  0.16595  0.49061  1.0000
  H   H118      1.0  0.31476  0.02024  0.46957  1.0000
  H   H119      1.0  0.35965  0.36884  0.33605  1.0000
  H   H120      1.0  0.00223  0.18317  0.47949  1.0000
  H   H121      1.0  0.00732  0.39234  0.30119  1.0000
  H   H122      1.0  0.25298  0.15870  0.49060  1.0000
  H   H123      1.0  0.23961  0.19390  0.38843  1.0000
  H   H124      1.0  0.26583  0.22337  0.39334  1.0000
  H   H125      1.0  0.32778  0.03927  0.44594  1.0000
  H   H126      1.0  0.02831  0.31249  0.44674  1.0000
  C   C138      1.0  0.22410  0.22469  0.48460  1.0000
  C   C139      1.0  0.18456  0.26800  0.46017  1.0000
  H   H127      1.0  0.09235  0.38172  0.28880  1.0000
  H   H128      1.0  0.34218  0.34265  0.24623  1.0000
  C   C140      1.0  0.19193  0.40511  0.24452  1.0000
  N   N10       1.0  0.16111  0.22561  0.46996  1.0000
  N   N11       1.0  0.35469  0.38803  0.31740  1.0000
  N   N12       1.0  0.30564  0.02420  0.32506  1.0000
  C   C141      1.0  0.30896  0.04499  0.31647  1.0000
  H   H129      1.0  0.11308  0.34523  0.24857  1.0000
  H   H130      1.0  0.31265  0.04406  0.30529  1.0000
  C   C142      1.0  0.30716  0.00042  0.31926  1.0000
  C   C143      1.0  0.99771  0.38129  0.29195  1.0000
  C   C144      1.0  0.45979  0.15356  0.29680  1.0000
  N   N13       1.0  0.30098  0.00050  0.44995  1.0000
  C   C145      1.0  0.05344  0.33774  0.25825  1.0000
  H   H131      1.0  0.13386  0.18912  0.47742  1.0000
  C   C146      1.0  0.16816  0.24180  0.45856  1.0000
  C   C147      1.0  0.29671  0.00634  0.46459  1.0000
  H   H132      1.0  0.46229  0.19268  0.31352  1.0000
  H   H133      1.0  0.47505  0.36957  0.37456  1.0000
  H   H134      1.0  0.04230  0.32635  0.24942  1.0000
  C   C148      1.0  0.19424  0.27749  0.47355  1.0000
  H   H135      1.0  0.47435  0.33882  0.38089  1.0000
  C   C149      1.0  0.38115  0.40775  0.31779  1.0000
  H   H136      1.0  0.11465  0.37264  0.26837  1.0000
  S   S64       1.0  0.31723  0.44571  0.25321  1.0000
  H   H137      1.0  0.32642  0.00020  0.32175  1.0000
  H   H138      1.0  0.19002  0.28058  0.45097  1.0000
  C   C150      1.0  0.33847  0.38789  0.30654  1.0000
  C   C151      1.0  0.31351  0.36854  0.30568  1.0000
  C   C152      1.0  0.32207  0.34930  0.32692  1.0000
  C   C153      1.0  0.30534  0.34909  0.31592  1.0000
  H   H139      1.0  0.34497  0.40237  0.29823  1.0000
  H   H140      1.0  0.30096  0.36827  0.29685  1.0000
  C   C154      1.0  0.05437  0.35784  0.28094  1.0000
  H   H141      1.0  0.28621  0.33372  0.31528  1.0000
  N   N14       1.0  0.27023  0.18833  0.39938  1.0000
  C   C155      1.0  0.29046  0.20110  0.40833  1.0000
  C   C156      1.0  0.25904  0.16169  0.39925  1.0000
  C   C157      1.0  0.29899  0.18720  0.41802  1.0000
  C   C158      1.0  0.26723  0.14716  0.40871  1.0000
  C   C159      1.0  0.28709  0.16004  0.41828  1.0000
  C   C160      1.0  0.26101  0.20311  0.38952  1.0000
  H   H142      1.0  0.29982  0.22219  0.40819  1.0000
  H   H143      1.0  0.24305  0.15152  0.39213  1.0000
  H   H144      1.0  0.31452  0.19751  0.42536  1.0000
  H   H145      1.0  0.25766  0.12606  0.40891  1.0000
  H   H146      1.0  0.29306  0.14894  0.42591  1.0000
  H   H147      1.0  0.29998  0.00954  0.34608  1.0000
  H   H148      1.0  0.39430  0.39992  0.31260  1.0000
  S   S65       1.0  0.48239  0.40740  0.35233  1.0000
  N   N15       1.0  0.47179  0.15947  0.31087  1.0000
  S   S66       1.0  0.01068  0.25120  0.44096  1.0000
  H   H149      1.0  0.33321  0.01000  0.27497  1.0000
  H   H150      1.0  0.15766  0.18729  0.46522  1.0000
  C   C161      1.0  0.30220  0.02586  0.33925  1.0000
  C   C162      1.0  0.30849  0.06808  0.32204  1.0000
  H   H151      1.0  0.31177  0.08472  0.31525  1.0000
  S   S67       1.0  0.14215  0.40289  0.24551  1.0000
  H   H152      1.0  0.30482  0.99940  0.30757  1.0000
  H   H153      1.0  0.47319  0.31665  0.35942  1.0000
  H   H154      1.0  0.38268  0.42581  0.31221  1.0000
  C   C163      1.0  0.30188  0.04873  0.34521  1.0000
  C   C164      1.0  0.30504  0.06994  0.33653  1.0000
  H   H155      1.0  0.16134  0.23441  0.44810  1.0000
  H   H156      1.0  0.33549  0.01489  0.36388  1.0000
  H   H157      1.0  0.02881  0.33867  0.43549  1.0000
  C   C165      1.0  0.09312  0.34308  0.24576  1.0000
  C   C166      1.0  0.08125  0.36893  0.28039  1.0000
  C   C167      1.0  0.34681  0.36901  0.32748  1.0000
  H   H158      1.0  0.25441  0.19037  0.48549  1.0000
  H   H159      1.0  0.48330  0.12715  0.31106  1.0000
  C   C168      1.0  0.30314  0.00413  0.37824  1.0000
  H   H160      1.0  0.31614  0.33417  0.33492  1.0000
  H   H161      1.0  0.02366  0.30716  0.42801  1.0000
  C   C169      1.0  0.48309  0.14403  0.31671  1.0000
  H   H162      1.0  0.01942  0.33394  0.26998  1.0000
  H   H163      1.0  0.04432  0.36185  0.28980  1.0000
  H   H164      1.0  0.01435  0.24704  0.48118  1.0000
  C   C170      1.0  0.17030  0.23479  0.48315  1.0000
  H   H165      1.0  0.29976  0.05015  0.35654  1.0000
  H   H166      1.0  0.38817  0.37304  0.24539  1.0000
  C   C171      1.0  0.99237  0.18264  0.48938  1.0000
  C   C172      1.0  0.47155  0.18064  0.31809  1.0000
  S   S68       1.0  0.20577  0.00712  0.41239  1.0000
  H   H167      1.0  0.23090  0.40639  0.24393  1.0000
  H   H168      1.0  0.18426  0.38653  0.24986  1.0000
  Fe  Fe33      1.0  0.09293  0.46312  0.24642  1.0000
  H   H169      1.0  0.43924  0.15115  0.29742  1.0000
  H   H170      1.0  0.28186  0.01486  0.46484  1.0000
  C   C173      1.0  0.23925  0.00442  0.48538  1.0000
  Fe  Fe34      1.0  0.05392  0.40720  0.24358  1.0000
  C   C174      1.0  0.18704  0.26084  0.48515  1.0000
  H   H171      1.0  0.20756  0.29760  0.47489  1.0000
  H   H172      1.0  0.45998  0.13513  0.29241  1.0000
  Fe  Fe35      1.0  0.32415  0.41071  0.24559  1.0000
  C   C175      1.0  0.34093  0.99718  0.28006  1.0000
  H   H173      1.0  0.16533  0.22181  0.49215  1.0000
  Fe  Fe36      1.0  0.19439  0.01977  0.56706  1.0000
  S   S69       1.0  0.17707  0.04994  0.57105  1.0000
  S   S70       1.0  0.23663  0.02797  0.56753  1.0000
  Fe  Fe37      1.0  0.22310  0.20488  0.56851  1.0000
  S   S71       1.0  0.25300  0.24616  0.56715  1.0000
  S   S72       1.0  0.23855  0.17295  0.57173  1.0000
  Fe  Fe38      1.0  0.17928  0.22207  0.56097  1.0000
  S   S73       1.0  0.20592  0.26402  0.55896  1.0000
  S   S74       1.0  0.13861  0.21234  0.55306  1.0000
  Fe  Fe39      1.0  0.23157  0.24862  0.54732  1.0000
  S   S75       1.0  0.25082  0.26755  0.52687  1.0000
  Fe  Fe40      1.0  0.22469  0.25810  0.57902  1.0000
  S   S76       1.0  0.22850  0.28557  0.59787  1.0000
  S   S77       1.0  0.20381  0.20700  0.54806  1.0000
  S   S78       1.0  0.19601  0.21640  0.58173  1.0000
  Fe  Fe41      1.0  0.01452  0.21421  0.58084  1.0000
  S   S79       1.0  0.02377  0.25550  0.57444  1.0000
  S   S80       1.0  0.04481  0.20382  0.59191  1.0000
  H   H174      1.0  0.20707  0.11693  0.59843  1.0000
  C   C176      1.0  0.24155  0.09662  0.60166  1.0000
  C   C177      1.0  0.99603  0.38504  0.72636  1.0000
  H   H175      1.0  0.01100  0.39868  0.73296  1.0000
  Fe  Fe42      1.0  0.35886  0.45994  0.66082  1.0000
  S   S81       1.0  0.33110  0.45038  0.67917  1.0000
  Fe  Fe43      1.0  0.32282  0.40892  0.64454  1.0000
  S   S82       1.0  0.29426  0.39659  0.66210  1.0000
  S   S83       1.0  0.32031  0.38600  0.62401  1.0000
  Fe  Fe44      1.0  0.29868  0.43859  0.66275  1.0000
  S   S84       1.0  0.26368  0.44950  0.65838  1.0000
  Fe  Fe45      1.0  0.32892  0.40917  0.67689  1.0000
  S   S85       1.0  0.33262  0.38024  0.69312  1.0000
  S   S86       1.0  0.32685  0.45082  0.64453  1.0000
  S   S87       1.0  0.35713  0.41883  0.65909  1.0000
  Fe  Fe46      1.0  0.06681  0.39873  0.65356  1.0000
  S   S88       1.0  0.07898  0.38808  0.67460  1.0000
  S   S89       1.0  0.06327  0.37339  0.63376  1.0000
  Fe  Fe47      1.0  0.07506  0.45449  0.66407  1.0000
  S   S90       1.0  0.08858  0.44671  0.68530  1.0000
  C   C178      1.0  0.39718  0.44285  0.62461  1.0000
  Fe  Fe48      1.0  0.11167  0.42761  0.67377  1.0000
  S   S91       1.0  0.15076  0.42908  0.68225  1.0000
  Fe  Fe49      1.0  0.05484  0.40784  0.68447  1.0000
  S   S92       1.0  0.03332  0.39953  0.70571  1.0000
  S   S93       1.0  0.10038  0.43795  0.65243  1.0000
  S   S94       1.0  0.04048  0.41597  0.66345  1.0000
  C   C179      1.0  0.23268  0.44426  0.66548  1.0000
  C   C180      1.0  0.21499  0.45039  0.65711  1.0000
  C   C181      1.0  0.18997  0.44604  0.66203  1.0000
  C   C182      1.0  0.18236  0.43584  0.67552  1.0000
  C   C183      1.0  0.20019  0.43009  0.68397  1.0000
  C   C184      1.0  0.22505  0.43401  0.67896  1.0000
  H   H176      1.0  0.22065  0.45850  0.64671  1.0000
  H   H177      1.0  0.17666  0.45074  0.65541  1.0000
  H   H178      1.0  0.19467  0.42235  0.69446  1.0000
  H   H179      1.0  0.23840  0.42942  0.68561  1.0000
  C   C185      1.0  0.38033  0.03448  0.72303  1.0000
  C   C186      1.0  0.38208  0.02771  0.70884  1.0000
  H   H180      1.0  0.43272  0.38463  0.71783  1.0000
  H   H181      1.0  0.24697  0.03664  0.49986  1.0000
  H   H182      1.0  0.39731  0.04085  0.70233  1.0000
  H   H183      1.0  0.26270  0.20344  0.54691  1.0000
  C   C187      1.0  0.38645  0.38761  0.73149  1.0000
  C   C188      1.0  0.38268  0.40965  0.72644  1.0000
  C   C189      1.0  0.36623  0.40781  0.71479  1.0000
  C   C190      1.0  0.35318  0.38380  0.70807  1.0000
  C   C191      1.0  0.35672  0.36171  0.71324  1.0000
  C   C192      1.0  0.37336  0.36360  0.72480  1.0000
  C   C193      1.0  0.25943  0.19742  0.53591  1.0000
  H   H184      1.0  0.36353  0.42492  0.71106  1.0000
  H   H185      1.0  0.34659  0.34299  0.70820  1.0000
  H   H186      1.0  0.37596  0.34644  0.72856  1.0000
  Fe  Fe50      1.0  0.22802  0.00275  0.54784  1.0000
  C   C194      1.0  0.12019  0.26922  0.58731  1.0000
  H   H187      1.0  0.33724  0.41997  0.59794  1.0000
  H   H188      1.0  0.11788  0.27391  0.54674  1.0000
  H   H189      1.0  0.07954  0.27038  0.56080  1.0000
  N   N16       1.0  0.14131  0.27154  0.57948  1.0000
  H   H190      1.0  0.39260  0.42831  0.73156  1.0000
  H   H191      1.0  0.15690  0.27386  0.55883  1.0000
  C   C195      1.0  0.03027  0.31180  0.60683  1.0000
  C   C196      1.0  0.04821  0.33299  0.61450  1.0000
  C   C197      1.0  0.04051  0.34399  0.62611  1.0000
  C   C198      1.0  0.01468  0.33285  0.63027  1.0000
  H   H192      1.0  0.03644  0.30417  0.59769  1.0000
  H   H193      1.0  0.06810  0.34137  0.61116  1.0000
  H   H194      1.0  0.99996  0.17770  0.61113  1.0000
  C   C199      1.0  0.14063  0.27330  0.56509  1.0000
  C   C200      1.0  0.09780  0.26915  0.58074  1.0000
  C   C201      1.0  0.20500  0.05676  0.60355  1.0000
  C   C202      1.0  0.29460  0.35781  0.61708  1.0000
  C   C203      1.0  0.27054  0.34678  0.62362  1.0000
  C   C204      1.0  0.25070  0.32472  0.61759  1.0000
  C   C205      1.0  0.25456  0.31324  0.60501  1.0000
  C   C206      1.0  0.27864  0.32426  0.59848  1.0000
  C   C207      1.0  0.29844  0.34641  0.60446  1.0000
  H   H195      1.0  0.26723  0.35519  0.63332  1.0000
  H   H196      1.0  0.23223  0.31638  0.62278  1.0000
  H   H197      1.0  0.28199  0.31575  0.58881  1.0000
  H   H198      1.0  0.31692  0.35466  0.59928  1.0000
  C   C208      1.0  0.11238  0.20809  0.56414  1.0000
  C   C209      1.0  0.11393  0.20570  0.57879  1.0000
  C   C210      1.0  0.09280  0.20364  0.58726  1.0000
  C   C211      1.0  0.07032  0.20439  0.58113  1.0000
  C   C212      1.0  0.06872  0.20642  0.56649  1.0000
  C   C213      1.0  0.08959  0.20800  0.55802  1.0000
  H   H199      1.0  0.13132  0.20535  0.58355  1.0000
  H   H200      1.0  0.09406  0.20192  0.59860  1.0000
  H   H201      1.0  0.05155  0.20710  0.56165  1.0000
  H   H202      1.0  0.08833  0.20980  0.54669  1.0000
  C   C214      1.0  0.23932  0.25157  0.51056  1.0000
  C   C215      1.0  0.21928  0.22693  0.51006  1.0000
  C   C216      1.0  0.44528  0.40509  0.71516  1.0000
  N   N17       1.0  0.21543  0.08339  0.60278  1.0000
  H   H203      1.0  0.20975  0.21792  0.51962  1.0000
  N   N18       1.0  0.25035  0.18220  0.50773  1.0000
  C   C217      1.0  0.19428  0.08402  0.56903  1.0000
  C   C218      1.0  0.22123  0.09513  0.56854  1.0000
  C   C219      1.0  0.23445  0.12244  0.56902  1.0000
  C   C220      1.0  0.22089  0.13893  0.56970  1.0000
  C   C221      1.0  0.19392  0.12787  0.56953  1.0000
  C   C222      1.0  0.18071  0.10053  0.56931  1.0000
  H   H204      1.0  0.23193  0.08269  0.56831  1.0000
  H   H205      1.0  0.25532  0.13082  0.56906  1.0000
  H   H206      1.0  0.18324  0.14032  0.57005  1.0000
  H   H207      1.0  0.15985  0.09212  0.56968  1.0000
  H   H208      1.0  0.24980  0.11773  0.60093  1.0000
  C   C223      1.0  0.36461  0.00392  0.70302  1.0000
  H   H209      1.0  0.12027  0.26668  0.59865  1.0000
  C   C224      1.0  0.09705  0.27126  0.56607  1.0000
  C   C225      1.0  0.00420  0.30151  0.61054  1.0000
  C   C226      1.0  0.22081  0.04268  0.60316  1.0000
  H   H210      1.0  0.08079  0.26642  0.58694  1.0000
  H   H211      1.0  0.05553  0.44984  0.71722  1.0000
  H   H212      1.0  0.21247  0.02157  0.60367  1.0000
  C   C227      1.0  0.16441  0.27075  0.58636  1.0000
  H   H213      1.0  0.19496  0.26780  0.49557  1.0000
  C   C228      1.0  0.27118  0.21520  0.52522  1.0000
  H   H214      1.0  0.23373  0.15811  0.54067  1.0000
  H   H215      1.0  0.46313  0.40549  0.71010  1.0000
  H   H216      1.0  0.35988  0.48574  0.61482  1.0000
  C   C229      1.0  0.06280  0.46874  0.71212  1.0000
  S   S95       1.0  0.40454  0.06374  0.73005  1.0000
  C   C230      1.0  0.00560  0.18575  0.50222  1.0000
  C   C231      1.0  0.37572  0.43353  0.61557  1.0000
  C   C232      1.0  0.99664  0.31193  0.62244  1.0000
  C   C233      1.0  0.40543  0.46817  0.62994  1.0000
  H   H217      1.0  0.03674  0.25198  0.50439  1.0000
  S   S96       1.0  0.01997  0.25080  0.53297  1.0000
  N   N19       1.0  0.04820  0.47469  0.70218  1.0000
  C   C234      1.0  0.08768  0.48656  0.71552  1.0000
  H   H218      1.0  0.42173  0.47556  0.63720  1.0000
  C   C235      1.0  0.42009  0.00535  0.72881  1.0000
  H   H219      1.0  0.45030  0.41577  0.72540  1.0000
  H   H220      1.0  0.01128  0.15298  0.58435  1.0000
  H   H221      1.0  0.17961  0.08684  0.59876  1.0000
  H   H222      1.0  0.02548  0.44294  0.68927  1.0000
  H   H223      1.0  0.40962  0.38035  0.69562  1.0000
  H   H224      1.0  0.19691  0.19406  0.49707  1.0000
  N   N20       1.0  0.01338  0.38277  0.61149  1.0000
  H   H225      1.0  0.28326  0.23528  0.52786  1.0000
  H   H226      1.0  0.26677  0.28218  0.49816  1.0000
  S   S97       1.0  0.99548  0.19730  0.56035  1.0000
  H   H227      1.0  0.39671  0.44692  0.68069  1.0000
  H   H228      1.0  0.16576  0.25174  0.58422  1.0000
  H   H229      1.0  0.43525  0.02476  0.72925  1.0000
  C   C236      1.0  0.24275  0.00159  0.51107  1.0000
  H   H230      1.0  0.19562  0.10124  0.61517  1.0000
  C   C237      1.0  0.37060  0.47376  0.61729  1.0000
  C   C238      1.0  0.36027  0.01738  0.73122  1.0000
  C   C239      1.0  0.24324  0.01613  0.49887  1.0000
  N   N21       1.0  0.19817  0.38130  0.65598  1.0000
  C   C240      1.0  0.18392  0.37294  0.66797  1.0000
  C   C241      1.0  0.18785  0.38859  0.64443  1.0000
  C   C242      1.0  0.15891  0.37245  0.66875  1.0000
  C   C243      1.0  0.16285  0.38824  0.64484  1.0000
  C   C244      1.0  0.14840  0.38026  0.65712  1.0000
  C   C245      1.0  0.22435  0.38168  0.65543  1.0000
  H   H231      1.0  0.19221  0.36748  0.67718  1.0000
  H   H232      1.0  0.19921  0.39539  0.63497  1.0000
  H   H233      1.0  0.15497  0.39479  0.63585  1.0000
  H   H234      1.0  0.12937  0.38084  0.65779  1.0000
  H   H235      1.0  0.23469  0.38866  0.66564  1.0000
  H   H236      1.0  0.22365  0.36190  0.65306  1.0000
  H   H237      1.0  0.23617  0.39546  0.64729  1.0000
  C   C246      1.0  0.11857  0.27330  0.55818  1.0000
  H   H238      1.0  0.40697  0.43031  0.62768  1.0000
  C   C247      1.0  0.33946  0.43868  0.60312  1.0000
  C   C248      1.0  0.25123  0.26308  0.49789  1.0000
  H   H239      1.0  0.00861  0.41297  0.62341  1.0000
  H   H240      1.0  0.42647  0.99906  0.70706  1.0000
  H   H241      1.0  0.18426  0.04622  0.60415  1.0000
  H   H242      1.0  0.16440  0.27341  0.59799  1.0000
  H   H243      1.0  0.02583  0.18876  0.50240  1.0000
  H   H244      1.0  0.00840  0.34086  0.63921  1.0000
  S   S98       1.0  0.40122  0.49045  0.66280  1.0000
  H   H245      1.0  0.05208  0.39575  0.60409  1.0000
  C   C249      1.0  0.24741  0.05595  0.60188  1.0000
  C   C250      1.0  0.23875  0.16463  0.51815  1.0000
  S   S99       1.0  0.06345  0.48942  0.65997  1.0000
  N   N22       1.0  0.43179  0.41656  0.70574  1.0000
  C   C251      1.0  0.41446  0.40119  0.69598  1.0000
  C   C252      1.0  0.43732  0.44275  0.70640  1.0000
  C   C253      1.0  0.40174  0.41188  0.68674  1.0000
  C   C254      1.0  0.42492  0.45407  0.69732  1.0000
  C   C255      1.0  0.40694  0.43847  0.68750  1.0000
  H   H246      1.0  0.41719  0.22328  0.73574  1.0000
  S   S100      1.0  0.25068  0.01766  0.52766  1.0000
  H   H247      1.0  0.45103  0.45493  0.71414  1.0000
  H   H248      1.0  0.36913  0.41362  0.61170  1.0000
  H   H249      1.0  0.42885  0.47473  0.69799  1.0000
  H   H250      1.0  0.47780  0.27201  0.73318  1.0000
  N   N23       1.0  0.36273  0.44897  0.61201  1.0000
  H   H251      1.0  0.22590  0.14483  0.51550  1.0000
  H   H252      1.0  0.27528  0.22138  0.50288  1.0000
  C   C256      1.0  0.21201  0.21343  0.49721  1.0000
  H   H253      1.0  0.18212  0.28656  0.58233  1.0000
  H   H254      1.0  0.09940  0.48144  0.72314  1.0000
  H   H255      1.0  0.14813  0.36715  0.67850  1.0000
  H   H256      1.0  0.38709  0.39937  0.67950  1.0000
  C   C257      1.0  0.02296  0.45509  0.69799  1.0000
  C   C258      1.0  0.25791  0.08310  0.60106  1.0000
  C   C259      1.0  0.24311  0.17196  0.53239  1.0000
  H   H257      1.0  0.00343  0.18923  0.52474  1.0000
  C   C260      1.0  0.26651  0.20720  0.51110  1.0000
  H   H258      1.0  0.36648  0.99900  0.69215  1.0000
  C   C261      1.0  0.19862  0.09783  0.60391  1.0000
  C   C262      1.0  0.00354  0.24871  0.51667  1.0000
  Fe  Fe51      1.0  0.00150  0.23817  0.55447  1.0000
  C   C263      1.0  0.39212  0.48377  0.62626  1.0000
  C   C264      1.0  0.01672  0.24955  0.50400  1.0000
  H   H259      1.0  0.27855  0.09357  0.59988  1.0000
  H   H260      1.0  0.25977  0.04509  0.60137  1.0000
  C   C265      1.0  0.02599  0.36507  0.59107  1.0000
  H   H261      1.0  0.00973  0.46430  0.69434  1.0000
  H   H262      1.0  0.01356  0.44196  0.70693  1.0000
  H   H263      1.0  0.48617  0.31911  0.73450  1.0000
  C   C266      1.0  0.02001  0.40060  0.62365  1.0000
  H   H264      1.0  0.34003  0.45275  0.59471  1.0000
  H   H265      1.0  0.32212  0.43465  0.60976  1.0000
  C   C267      1.0  0.03210  0.38279  0.60234  1.0000
  C   C268      1.0  0.00064  0.34716  0.58927  1.0000
  C   C269      1.0  0.00156  0.38146  0.71219  1.0000
  H   H266      1.0  0.04102  0.36444  0.58417  1.0000
  H   H267      1.0  0.01811  0.15748  0.60968  1.0000
  H   H268      1.0  0.04085  0.41361  0.62390  1.0000
  H   H269      1.0  0.99585  0.33238  0.58104  1.0000
  H   H270      1.0  0.01607  0.38922  0.63361  1.0000
  C   C270      1.0  0.99280  0.18591  0.51482  1.0000
  C   C271      1.0  0.99838  0.15718  0.61105  1.0000
  H   H271      1.0  0.35845  0.02229  0.74210  1.0000
  S   S101      1.0  0.18637  0.99686  0.54680  1.0000
  C   C272      1.0  0.48823  0.28359  0.74216  1.0000
  C   C273      1.0  0.24537  0.17389  0.49291  1.0000
  C   C274      1.0  0.38906  0.22117  0.79697  1.0000
  C   C275      1.0  0.35290  0.35597  0.87006  1.0000
  S   S102      1.0  0.21856  0.22315  0.97972  1.0000
  H   H272      1.0  0.47514  0.09384  0.80633  1.0000
  S   S103      1.0  0.27532  0.26943  0.96087  1.0000
  Fe  Fe52      1.0  0.40717  0.34123  0.91781  1.0000
  S   S104      1.0  0.43603  0.32276  0.92058  1.0000
  S   S105      1.0  0.38532  0.34513  0.93737  1.0000
  Fe  Fe53      1.0  0.42100  0.35265  0.88635  1.0000
  S   S106      1.0  0.45002  0.33447  0.88708  1.0000
  S   S107      1.0  0.41650  0.37220  0.86609  1.0000
  Fe  Fe54      1.0  0.42039  0.30331  0.89987  1.0000
  S   S108      1.0  0.40659  0.26085  0.89388  1.0000
  Fe  Fe55      1.0  0.46302  0.35623  0.90759  1.0000
  C   C276      1.0  0.34514  0.35109  0.89548  1.0000
  S   S109      1.0  0.39005  0.31996  0.89768  1.0000
  S   S110      1.0  0.43540  0.37623  0.90632  1.0000
  Fe  Fe56      1.0  0.43209  0.31230  0.75800  1.0000
  S   S111      1.0  0.39846  0.32155  0.76500  1.0000
  H   H273      1.0  0.37153  0.20377  0.76327  1.0000
  Fe  Fe57      1.0  0.47155  0.36338  0.77021  1.0000
  S   S112      1.0  0.44092  0.37580  0.77856  1.0000
  S   S113      1.0  0.48465  0.09508  0.88993  1.0000
  Fe  Fe58      1.0  0.42075  0.33419  0.78550  1.0000
  S   S114      1.0  0.40331  0.31545  0.80634  1.0000
  Fe  Fe59      1.0  0.42141  0.36234  0.75727  1.0000
  S   S115      1.0  0.45292  0.32270  0.77868  1.0000
  Fe  Fe60      1.0  0.40998  0.08333  0.78429  1.0000
  S   S116      1.0  0.44688  0.11774  0.78710  1.0000
  S   S117      1.0  0.39098  0.06136  0.80404  1.0000
  Fe  Fe61      1.0  0.41580  0.08331  0.75197  1.0000
  Fe  Fe62      1.0  0.46346  0.09868  0.77144  1.0000
  H   H274      1.0  0.11654  0.25329  0.97613  1.0000
  Fe  Fe63      1.0  0.43404  0.13524  0.76860  1.0000
  H   H275      1.0  0.39025  0.40093  0.87856  1.0000
  S   S118      1.0  0.42707  0.06279  0.76956  1.0000
  S   S119      1.0  0.39536  0.10133  0.76662  1.0000
  Fe  Fe64      1.0  0.44941  0.10087  0.89847  1.0000
  S   S120      1.0  0.41015  0.07279  0.89115  1.0000
  S   S121      1.0  0.45388  0.11867  0.75296  1.0000
  Fe  Fe65      1.0  0.42672  0.13799  0.91133  1.0000
  S   S122      1.0  0.38626  0.11329  0.90456  1.0000
  S   S123      1.0  0.43639  0.17508  0.92403  1.0000
  Fe  Fe66      1.0  0.39534  0.07965  0.91240  1.0000
  S   S124      1.0  0.37240  0.04915  0.92882  1.0000
  Fe  Fe67      1.0  0.40442  0.10867  0.88402  1.0000
  S   S125      1.0  0.39357  0.11923  0.86243  1.0000
  S   S126      1.0  0.43544  0.10489  0.92019  1.0000
  S   S127      1.0  0.44411  0.13631  0.89043  1.0000
  C   C277      1.0  0.46251  0.07777  0.81316  1.0000
  C   C278      1.0  0.39309  0.07801  0.82024  1.0000
  C   C279      1.0  0.39632  0.10419  0.82059  1.0000
  C   C280      1.0  0.39631  0.11646  0.83360  1.0000
  C   C281      1.0  0.39392  0.10296  0.84639  1.0000
  C   C282      1.0  0.39151  0.07701  0.84607  1.0000
  C   C283      1.0  0.39076  0.06450  0.83302  1.0000
  H   H276      1.0  0.39797  0.11472  0.81081  1.0000
  H   H277      1.0  0.39807  0.13649  0.83376  1.0000
  H   H278      1.0  0.38946  0.06636  0.85584  1.0000
  H   H279      1.0  0.38808  0.04420  0.83283  1.0000
  N   N24       1.0  0.35892  0.36596  0.88455  1.0000
  C   C284      1.0  0.43958  0.24886  0.76809  1.0000
  C   C285      1.0  0.44326  0.22735  0.77395  1.0000
  Fe  Fe68      1.0  0.25460  0.25948  0.98225  1.0000
  C   C286      1.0  0.45634  0.12074  0.84209  1.0000
  H   H280      1.0  0.38389  0.06734  0.96077  1.0000
  H   H281      1.0  0.44401  0.26642  0.77426  1.0000
  C   C287      1.0  0.45921  0.07250  0.83892  1.0000
  C   C288      1.0  0.41360  0.23708  0.90319  1.0000
  C   C289      1.0  0.42782  0.24276  0.91582  1.0000
  C   C290      1.0  0.43417  0.22337  0.92241  1.0000
  C   C291      1.0  0.42665  0.19849  0.91628  1.0000
  C   C292      1.0  0.41208  0.19279  0.90381  1.0000
  C   C293      1.0  0.40544  0.21198  0.89735  1.0000
  H   H282      1.0  0.43424  0.26209  0.92037  1.0000
  H   H283      1.0  0.44544  0.22782  0.93208  1.0000
  H   H284      1.0  0.40622  0.17370  0.89899  1.0000
  H   H285      1.0  0.39445  0.20750  0.88758  1.0000
  C   C294      1.0  0.41466  0.35647  0.84958  1.0000
  C   C295      1.0  0.41943  0.37118  0.83710  1.0000
  C   C296      1.0  0.41694  0.35904  0.82378  1.0000
  C   C297      1.0  0.40898  0.33196  0.82283  1.0000
  C   C298      1.0  0.40417  0.31727  0.83533  1.0000
  C   C299      1.0  0.40729  0.32947  0.84865  1.0000
  H   H286      1.0  0.42505  0.39207  0.83772  1.0000
  H   H287      1.0  0.42049  0.37054  0.81425  1.0000
  H   H288      1.0  0.39788  0.29631  0.83471  1.0000
  H   H289      1.0  0.40344  0.31789  0.85816  1.0000
  C   C300      1.0  0.17090  0.15090  0.96866  1.0000
  C   C301      1.0  0.30604  0.29087  0.95468  1.0000
  C   C302      1.0  0.31279  0.28816  0.94065  1.0000
  C   C303      1.0  0.33707  0.30425  0.93524  1.0000
  C   C304      1.0  0.35478  0.32366  0.94376  1.0000
  C   C305      1.0  0.34801  0.32645  0.95776  1.0000
  C   C306      1.0  0.32391  0.30998  0.96326  1.0000
  H   H290      1.0  0.29912  0.27340  0.93393  1.0000
  H   H291      1.0  0.34198  0.30176  0.92447  1.0000
  H   H292      1.0  0.36152  0.34144  0.96444  1.0000
  H   H293      1.0  0.31902  0.31234  0.97406  1.0000
  C   C307      1.0  0.37629  0.21552  0.77282  1.0000
  H   H294      1.0  0.39395  0.21367  0.80665  1.0000
  N   N25       1.0  0.38272  0.20614  0.78499  1.0000
  C   C308      1.0  0.29206  0.02611  0.94933  1.0000
  C   C309      1.0  0.31075  0.01824  0.95518  1.0000
  C   C310      1.0  0.33498  0.02515  0.94862  1.0000
  C   C311      1.0  0.34115  0.04050  0.93631  1.0000
  C   C312      1.0  0.32257  0.04865  0.93056  1.0000
  C   C313      1.0  0.29814  0.04126  0.93695  1.0000
  H   H295      1.0  0.45811  0.12241  0.81945  1.0000
  H   H296      1.0  0.32690  0.06034  0.92108  1.0000
  S   S128      1.0  0.40879  0.39158  0.74563  1.0000
  C   C314      1.0  0.43022  0.24758  0.75427  1.0000
  C   C315      1.0  0.31878  0.23781  0.96382  1.0000
  H   H297      1.0  0.44313  0.06892  0.80812  1.0000
  H   H298      1.0  0.39641  0.29447  0.94584  1.0000
  H   H299      1.0  0.37244  0.24852  0.76258  1.0000
  C   C316      1.0  0.36043  0.26829  0.95480  1.0000
  C   C317      1.0  0.45577  0.10587  0.85401  1.0000
  S   S129      1.0  0.45363  0.35220  0.74866  1.0000
  H   H300      1.0  0.31575  0.21698  0.93823  1.0000
  H   H301      1.0  0.40523  0.09885  0.96772  1.0000
  H   H302      1.0  0.34832  0.23164  0.91915  1.0000
  C   C318      1.0  0.46322  0.25002  0.88213  1.0000
  H   H303      1.0  0.32016  0.25382  0.97124  1.0000
  H   H304      1.0  0.15906  0.17303  0.95351  1.0000
  H   H305      1.0  0.46215  0.21165  0.88658  1.0000
  H   H306      1.0  0.32147  0.22198  0.96986  1.0000
  H   H307      1.0  0.36380  0.27904  0.96468  1.0000
  H   H308      1.0  0.45051  0.22856  0.78466  1.0000
  C   C319      1.0  0.45712  0.08157  0.85246  1.0000
  H   H309      1.0  0.17827  0.14145  0.96081  1.0000
  S   S130      1.0  0.26059  0.01679  0.95664  1.0000
  C   C320      1.0  0.38184  0.17949  0.78543  1.0000
  H   H310      1.0  0.38408  0.17241  0.77473  1.0000
  N   N26       1.0  0.46038  0.08749  0.82729  1.0000
  C   C321      1.0  0.15150  0.18110  0.97486  1.0000
  C   C322      1.0  0.16022  0.16862  0.96458  1.0000
  H   H311      1.0  0.40930  0.08822  0.95011  1.0000
  C   C323      1.0  0.47247  0.27600  0.88665  1.0000
  H   H312      1.0  0.33181  0.34843  0.86796  1.0000
  H   H313      1.0  0.36260  0.37134  0.86212  1.0000
  C   C324      1.0  0.43738  0.20418  0.76617  1.0000
  S   S131      1.0  0.44163  0.17761  0.77450  1.0000
  C   C325      1.0  0.37889  0.38934  0.88717  1.0000
  N   N27       1.0  0.33792  0.24709  0.95255  1.0000
  H   H314      1.0  0.32967  0.33231  0.89343  1.0000
  H   H315      1.0  0.30639  0.00643  0.96462  1.0000
  H   H316      1.0  0.45975  0.05338  0.83777  1.0000
  H   H317      1.0  0.18138  0.13240  0.98611  1.0000
  C   C326      1.0  0.33356  0.23382  0.93998  1.0000
  H   H318      1.0  0.34907  0.01854  0.95313  1.0000
  H   H319      1.0  0.28382  0.04733  0.93224  1.0000
  C   C327      1.0  0.38955  0.24648  0.79689  1.0000
  C   C328      1.0  0.37666  0.24077  0.77237  1.0000
  C   C329      1.0  0.38331  0.25627  0.78450  1.0000
  H   H320      1.0  0.39480  0.25860  0.80634  1.0000
  C   C330      1.0  0.37903  0.27705  0.94419  1.0000
  H   H321      1.0  0.38373  0.27590  0.78432  1.0000
  H   H322      1.0  0.33311  0.13154  0.93714  1.0000
  H   H323      1.0  0.00538  0.35341  0.93073  1.0000
  C   C331      1.0  0.08460  0.23692  0.99048  1.0000
  C   C332      1.0  0.38556  0.39831  0.90103  1.0000
  C   C333      1.0  0.35113  0.35961  0.90945  1.0000
  C   C334      1.0  0.37159  0.38327  0.91223  1.0000
  H   H324      1.0  0.40188  0.41647  0.90307  1.0000
  H   H325      1.0  0.34041  0.34773  0.91814  1.0000
  H   H326      1.0  0.37693  0.38961  0.92307  1.0000
  H   H327      1.0  0.35995  0.34012  0.86836  1.0000
  N   N28       1.0  0.37797  0.10020  0.95249  1.0000
  C   C335      1.0  0.38772  0.12101  0.94357  1.0000
  C   C336      1.0  0.35271  0.09123  0.95654  1.0000
  C   C337      1.0  0.37180  0.13269  0.93797  1.0000
  C   C338      1.0  0.33618  0.10232  0.95108  1.0000
  C   C339      1.0  0.34580  0.12305  0.94165  1.0000
  C   C340      1.0  0.39498  0.08818  0.95815  1.0000
  H   H328      1.0  0.40788  0.12853  0.94060  1.0000
  H   H329      1.0  0.34494  0.07483  0.96368  1.0000
  H   H330      1.0  0.37963  0.14888  0.93068  1.0000
  H   H331      1.0  0.31593  0.09442  0.95393  1.0000
  H   H332      1.0  0.07166  0.24278  0.98420  1.0000
  H   H333      1.0  0.47112  0.06293  0.81348  1.0000
  C   C341      1.0  0.45847  0.11111  0.82871  1.0000
  H   H334      1.0  0.36326  0.16604  0.78992  1.0000
  C   C342      1.0  0.37462  0.26378  0.93131  1.0000
  H   H335      1.0  0.39804  0.17862  0.79193  1.0000
  C   C343      1.0  0.42787  0.20281  0.75238  1.0000
  H   H336      1.0  0.38872  0.27044  0.92293  1.0000
  C   C344      1.0  0.46996  0.23207  0.88967  1.0000
  H   H337      1.0  0.40781  0.00705  0.75014  1.0000
  S   S132      1.0  0.15919  0.24265  0.98709  1.0000
  C   C345      1.0  0.15397  0.17598  0.98914  1.0000
  C   C346      1.0  0.35181  0.24198  0.92917  1.0000
  H   H338      1.0  0.29881  0.23045  0.95941  1.0000
  S   S133      1.0  0.20394  0.99882  0.98305  1.0000
  H   H339      1.0  0.44997  0.24363  0.87322  1.0000
  H   H340      1.0  0.46634  0.28956  0.88101  1.0000
  C   C347      1.0  0.11014  0.24284  0.98591  1.0000
  C   C348      1.0  0.17262  0.14586  0.98301  1.0000
  H   H341      1.0  0.45625  0.06983  0.86174  1.0000
  S   S134      1.0  0.42582  0.27444  0.74636  1.0000
  C   C349      1.0  0.42445  0.22448  0.74644  1.0000
  H   H342      1.0  0.45417  0.13916  0.84320  1.0000
  Fe  Fe69      1.0  0.24381  0.99994  0.97828  1.0000
  H   H343      1.0  0.49129  0.25098  0.75305  1.0000
  H   H344      1.0  0.14349  0.19521  0.97182  1.0000
  H   H345      1.0  0.45365  0.11286  0.86443  1.0000
  H   H346      1.0  0.24123  0.12582  0.98049  1.0000
  H   H347      1.0  0.49018  0.22614  0.90785  1.0000
  H   H348      1.0  0.42322  0.18509  0.74627  1.0000
  H   H349      1.0  0.48323  0.31331  0.91066  1.0000
  C   C350      1.0  0.23380  0.11903  0.99087  1.0000
  H   H350      1.0  0.23406  0.08055  0.98762  1.0000
  C   C351      1.0  0.48572  0.24024  0.90162  1.0000
  N   N29       1.0  0.48834  0.28399  0.89824  1.0000
  C   C352      1.0  0.02245  0.67729  0.12062  1.0000
  S   S135      1.0  0.01711  0.74854  0.03551  1.0000
  C   C353      1.0  0.10122  0.74368  0.04606  1.0000
  H   H351      1.0  0.17867  0.71490  0.20901  1.0000
  Fe  Fe70      1.0  0.24895  0.97933  0.00781  1.0000
  S   S136      1.0  0.27569  0.96311  0.01917  1.0000
  Fe  Fe71      1.0  0.08455  0.66179  0.11791  1.0000
  S   S137      1.0  0.12652  0.66986  0.11544  1.0000
  S   S138      1.0  0.06390  0.64665  0.13863  1.0000
  Fe  Fe72      1.0  0.07734  0.66927  0.08594  1.0000
  S   S139      1.0  0.11902  0.67760  0.08145  1.0000
  S   S140      1.0  0.04922  0.66462  0.06756  1.0000
  Fe  Fe73      1.0  0.11411  0.64403  0.09615  1.0000
  S   S141      1.0  0.13123  0.61381  0.09177  1.0000
  Fe  Fe74      1.0  0.12728  0.70230  0.10109  1.0000
  S   S142      1.0  0.15487  0.74436  0.10428  1.0000
  S   S143      1.0  0.07204  0.63411  0.09935  1.0000
  S   S144      1.0  0.08563  0.69588  0.10480  1.0000
  Fe  Fe75      1.0  0.08494  0.67665  0.21920  1.0000
  S   S145      1.0  0.11748  0.66330  0.21829  1.0000
  S   S146      1.0  0.08216  0.69933  0.19975  1.0000
  C   C354      1.0  0.31053  0.51615  0.23714  1.0000
  C   C355      1.0  0.36852  0.95404  0.07526  1.0000
  C   C356      1.0  0.40917  0.52398  0.22704  1.0000
  S   S147      1.0  0.23605  0.82674  0.24185  1.0000
  Fe  Fe76      1.0  0.31660  0.89319  0.22072  1.0000
  S   S148      1.0  0.32584  0.91519  0.19991  1.0000
  S   S149      1.0  0.30394  0.84977  0.22187  1.0000
  H   H352      1.0  0.47833  0.62080  0.19045  1.0000
  Fe  Fe77      1.0  0.29182  0.84554  0.08962  1.0000
  S   S150      1.0  0.27347  0.86667  0.10278  1.0000
  S   S151      1.0  0.26660  0.80685  0.07944  1.0000
  Fe  Fe78      1.0  0.34597  0.88826  0.09424  1.0000
  S   S152      1.0  0.33021  0.91187  0.10792  1.0000
  S   S153      1.0  0.38920  0.90872  0.09007  1.0000
  Fe  Fe79      1.0  0.30620  0.87351  0.11802  1.0000
  S   S154      1.0  0.29388  0.85804  0.14019  1.0000
  Fe  Fe80      1.0  0.29899  0.90240  0.09124  1.0000
  S   S155      1.0  0.28055  0.92971  0.08323  1.0000
  S   S156      1.0  0.32372  0.85048  0.10528  1.0000
  S   S157      1.0  0.31577  0.88101  0.07707  1.0000
  C   C357      1.0  0.45342  0.56622  0.08462  1.0000
  C   C358      1.0  0.43352  0.54871  0.07614  1.0000
  C   C359      1.0  0.41335  0.52723  0.08212  1.0000
  C   C360      1.0  0.41309  0.52282  0.09667  1.0000
  C   C361      1.0  0.43294  0.54039  0.10514  1.0000
  C   C362      1.0  0.45291  0.56205  0.09919  1.0000
  H   H353      1.0  0.43368  0.55181  0.06486  1.0000
  C   C363      1.0  0.09930  0.69966  0.04559  1.0000
  H   H354      1.0  0.22145  0.90095  0.07653  1.0000
  N   N30       1.0  0.01511  0.65196  0.11353  1.0000
  H   H355      1.0  0.07886  0.67648  0.02780  1.0000
  S   S158      1.0  0.05668  0.63922  0.22851  1.0000
  H   H356      1.0  0.29130  0.50748  0.21685  1.0000
  C   C364      1.0  0.45139  0.87393  0.08874  1.0000
  C   C365      1.0  0.42506  0.85743  0.08926  1.0000
  C   C366      1.0  0.40580  0.86770  0.08979  1.0000
  C   C367      1.0  0.41266  0.89468  0.08961  1.0000
  C   C368      1.0  0.43898  0.91120  0.08902  1.0000
  C   C369      1.0  0.45827  0.90093  0.08866  1.0000
  H   H357      1.0  0.41954  0.83653  0.08928  1.0000
  H   H358      1.0  0.38566  0.85474  0.09017  1.0000
  H   H359      1.0  0.44450  0.93209  0.08881  1.0000
  H   H360      1.0  0.47842  0.91385  0.08823  1.0000
  Fe  Fe81      1.0  0.12817  0.68128  0.23984  1.0000
  H   H361      1.0  0.11379  0.74622  0.21833  1.0000
  H   H362      1.0  0.99931  0.58849  0.12155  1.0000
  S   S159      1.0  0.15810  0.92127  0.99331  1.0000
  C   C370      1.0  0.31722  0.89908  0.18334  1.0000
  C   C371      1.0  0.30174  0.87248  0.18239  1.0000
  C   C372      1.0  0.29500  0.86029  0.16909  1.0000
  C   C373      1.0  0.30372  0.87447  0.15659  1.0000
  C   C374      1.0  0.31949  0.90101  0.15750  1.0000
  C   C375      1.0  0.32613  0.91325  0.17084  1.0000
  H   H363      1.0  0.29454  0.86138  0.19189  1.0000
  H   H364      1.0  0.28275  0.83977  0.16849  1.0000
  H   H365      1.0  0.32627  0.91217  0.14797  1.0000
  H   H366      1.0  0.33807  0.93386  0.17147  1.0000
  H   H367      1.0  0.02133  0.66217  0.04178  1.0000
  H   H368      1.0  0.24146  0.89073  0.02959  1.0000
  C   C376      1.0  0.13312  0.51697  0.20957  1.0000
  H   H369      1.0  0.24490  0.84806  0.07485  1.0000
  C   C377      1.0  0.08155  0.76034  0.02735  1.0000
  H   H370      1.0  0.26483  0.83807  0.05379  1.0000
  H   H371      1.0  0.12870  0.87338  0.00860  1.0000
  C   C378      1.0  0.08517  0.51945  0.23401  1.0000
  C   C379      1.0  0.18454  0.76142  0.09584  1.0000
  C   C380      1.0  0.19792  0.78772  0.09940  1.0000
  C   C381      1.0  0.22279  0.80173  0.09429  1.0000
  C   C382      1.0  0.23456  0.78982  0.08532  1.0000
  C   C383      1.0  0.22076  0.76372  0.08125  1.0000
  C   C384      1.0  0.19586  0.74944  0.08658  1.0000
  H   H372      1.0  0.18924  0.79721  0.10646  1.0000
  H   H373      1.0  0.23280  0.82165  0.09748  1.0000
  H   H374      1.0  0.22963  0.75430  0.07426  1.0000
  H   H375      1.0  0.18572  0.72911  0.08378  1.0000
  C   C385      1.0  0.07198  0.66190  0.15547  1.0000
  C   C386      1.0  0.06541  0.64626  0.16762  1.0000
  C   C387      1.0  0.06942  0.65752  0.18121  1.0000
  C   C388      1.0  0.07927  0.68462  0.18281  1.0000
  C   C389      1.0  0.08596  0.70033  0.17068  1.0000
  C   C390      1.0  0.08265  0.68904  0.15706  1.0000
  H   H376      1.0  0.05700  0.62526  0.16651  1.0000
  H   H377      1.0  0.06412  0.64518  0.19044  1.0000
  H   H378      1.0  0.09348  0.72130  0.17179  1.0000
  H   H379      1.0  0.08756  0.70133  0.14781  1.0000
  C   C391      1.0  0.11401  0.57949  0.09295  1.0000
  C   C392      1.0  0.08716  0.56821  0.09433  1.0000
  C   C393      1.0  0.07412  0.54086  0.09469  1.0000
  C   C394      1.0  0.08776  0.52447  0.09386  1.0000
  C   C395      1.0  0.11462  0.53569  0.09266  1.0000
  C   C396      1.0  0.12762  0.56304  0.09211  1.0000
  H   H380      1.0  0.07642  0.58057  0.09493  1.0000
  H   H381      1.0  0.05334  0.53240  0.09556  1.0000
  H   H382      1.0  0.12541  0.52336  0.09200  1.0000
  H   H383      1.0  0.14839  0.57155  0.09104  1.0000
  C   C397      1.0  0.27546  0.95283  0.03692  1.0000
  C   C398      1.0  0.29067  0.93882  0.04061  1.0000
  C   C399      1.0  0.29193  0.93103  0.05467  1.0000
  C   C400      1.0  0.27831  0.93759  0.06525  1.0000
  C   C401      1.0  0.26302  0.95150  0.06156  1.0000
  C   C402      1.0  0.26141  0.95890  0.04746  1.0000
  H   H384      1.0  0.30164  0.93407  0.03254  1.0000
  H   H385      1.0  0.30379  0.92038  0.05733  1.0000
  H   H386      1.0  0.25250  0.95680  0.06968  1.0000
  C   C403      1.0  0.30933  0.51798  0.22244  1.0000
  C   C404      1.0  0.02533  0.72467  0.04436  1.0000
  C   C405      1.0  0.01923  0.69971  0.03878  1.0000
  C   C406      1.0  0.02634  0.68150  0.04615  1.0000
  C   C407      1.0  0.04012  0.68817  0.05901  1.0000
  C   C408      1.0  0.04631  0.71316  0.06458  1.0000
  C   C409      1.0  0.03876  0.73121  0.05734  1.0000
  H   H387      1.0  0.43296  0.53712  0.11640  1.0000
  H   H388      1.0  0.03766  0.67975  0.12873  1.0000
  H   H389      1.0  0.05680  0.71857  0.07448  1.0000
  H   H390      1.0  0.04346  0.75043  0.06179  1.0000
  H   H391      1.0  0.41622  0.59030  0.08109  1.0000
  H   H392      1.0  0.10706  0.76234  0.05141  1.0000
  H   H393      1.0  0.46801  0.57537  0.10586  1.0000
  H   H394      1.0  0.39823  0.51392  0.07546  1.0000
  H   H395      1.0  0.46708  0.64099  0.06333  1.0000
  C   C410      1.0  0.32604  0.99176  0.07459  1.0000
  H   H396      1.0  0.23168  0.87975  0.08653  1.0000
  C   C411      1.0  0.47770  0.86766  0.12809  1.0000
  N   N31       1.0  0.44199  0.63033  0.08092  1.0000
  C   C412      1.0  0.45395  0.65254  0.08871  1.0000
  C   C413      1.0  0.42580  0.60791  0.08726  1.0000
  C   C414      1.0  0.45036  0.65252  0.10331  1.0000
  C   C415      1.0  0.42208  0.60705  0.10187  1.0000
  C   C416      1.0  0.43451  0.62954  0.10993  1.0000
  C   C417      1.0  0.44617  0.63094  0.06564  1.0000
  H   H397      1.0  0.46665  0.67037  0.08369  1.0000
  C   C418      1.0  0.12942  0.55743  0.20359  1.0000
  H   H398      1.0  0.46029  0.67015  0.10945  1.0000
  H   H399      1.0  0.40994  0.58893  0.10687  1.0000
  H   H400      1.0  0.43198  0.62914  0.12128  1.0000
  H   H401      1.0  0.00621  0.62485  0.08090  1.0000
  C   C419      1.0  0.11812  0.87310  0.99898  1.0000
  C   C420      1.0  0.00283  0.60562  0.11512  1.0000
  S   S160      1.0  0.47474  0.85978  0.08862  1.0000
  H   H402      1.0  0.07301  0.49863  0.12530  1.0000
  C   C421      1.0  0.35529  0.54278  0.23708  1.0000
  C   C422      1.0  0.12644  0.76095  0.21083  1.0000
  H   H403      1.0  0.22174  0.90014  0.05097  1.0000
  H   H404      1.0  0.26340  0.85963  0.03091  1.0000
  C   C423      1.0  0.12511  0.53166  0.20021  1.0000
  C   C424      1.0  0.33174  0.53219  0.21501  1.0000
  C   C425      1.0  0.44764  0.56443  0.22610  1.0000
  C   C426      1.0  0.35564  0.97632  0.05627  1.0000
  H   H405      1.0  0.06459  0.75254  0.02009  1.0000
  S   S161      1.0  0.21052  0.97852  0.01471  1.0000
  N   N32       1.0  0.15194  0.75966  0.21032  1.0000
  C   C427      1.0  0.17385  0.78203  0.21050  1.0000
  C   C428      1.0  0.15353  0.73585  0.20935  1.0000
  C   C429      1.0  0.19820  0.78082  0.21004  1.0000
  C   C430      1.0  0.17754  0.73391  0.20902  1.0000
  C   C431      1.0  0.20000  0.75657  0.20941  1.0000
  H   H406      1.0  0.17272  0.80095  0.21142  1.0000
  H   H407      1.0  0.13614  0.71819  0.20911  1.0000
  H   H408      1.0  0.21556  0.79854  0.21087  1.0000
  N   N33       1.0  0.35467  0.96994  0.07027  1.0000
  H   H409      1.0  0.21875  0.75532  0.20974  1.0000
  N   N34       1.0  0.21974  0.77150  0.12959  1.0000
  C   C432      1.0  0.21820  0.75075  0.12134  1.0000
  C   C433      1.0  0.24190  0.79361  0.12998  1.0000
  C   C434      1.0  0.23929  0.75172  0.11329  1.0000
  C   C435      1.0  0.26333  0.79519  0.12207  1.0000
  C   C436      1.0  0.26194  0.77417  0.11363  1.0000
  C   C437      1.0  0.19689  0.77045  0.13732  1.0000
  H   H410      1.0  0.20025  0.73367  0.12055  1.0000
  H   H411      1.0  0.24314  0.81038  0.13627  1.0000
  H   H412      1.0  0.23772  0.73556  0.10642  1.0000
  H   H413      1.0  0.28074  0.81281  0.12233  1.0000
  H   H414      1.0  0.27813  0.77560  0.10703  1.0000
  H   H415      1.0  0.20210  0.78482  0.14613  1.0000
  H   H416      1.0  0.18344  0.77458  0.12999  1.0000
  H   H417      1.0  0.18652  0.75077  0.14189  1.0000
  C   C438      1.0  0.35491  0.54471  0.22237  1.0000
  C   C439      1.0  0.09460  0.85156  0.99608  1.0000
  H   H418      1.0  0.08813  0.50647  0.06413  1.0000
  C   C440      1.0  0.41544  0.84643  0.23648  1.0000
  S   S162      1.0  0.08442  0.58767  0.22042  1.0000
  C   C441      1.0  0.08103  0.53862  0.22600  1.0000
  H   H419      1.0  0.36672  0.96987  0.04898  1.0000
  C   C442      1.0  0.08566  0.69549  0.03284  1.0000
  S   S163      1.0  0.09666  0.69647  0.24051  1.0000
  C   C443      1.0  0.10724  0.72392  0.05225  1.0000
  H   H420      1.0  0.20048  0.86667  0.07776  1.0000
  N   N35       1.0  0.38768  0.88618  0.20418  1.0000
  C   C444      1.0  0.39264  0.91198  0.20641  1.0000
  C   C445      1.0  0.40706  0.87725  0.20529  1.0000
  C   C446      1.0  0.41742  0.92942  0.21029  1.0000
  C   C447      1.0  0.43215  0.89425  0.20892  1.0000
  C   C448      1.0  0.43726  0.92043  0.21158  1.0000
  C   C449      1.0  0.36171  0.86798  0.20012  1.0000
  H   H421      1.0  0.37735  0.91917  0.20537  1.0000
  H   H422      1.0  0.40304  0.85675  0.20370  1.0000
  H   H423      1.0  0.42109  0.94971  0.21238  1.0000
  H   H424      1.0  0.44740  0.88703  0.21012  1.0000
  H   H425      1.0  0.45648  0.93354  0.21488  1.0000
  H   H426      1.0  0.35605  0.84972  0.20637  1.0000
  H   H427      1.0  0.34709  0.87631  0.20217  1.0000
  H   H428      1.0  0.36097  0.86338  0.18867  1.0000
  N   N36       1.0  0.23253  0.87498  0.06421  1.0000
  C   C450      1.0  0.24411  0.85751  0.06496  1.0000
  C   C451      1.0  0.23093  0.88628  0.05161  1.0000
  C   C452      1.0  0.25537  0.85171  0.05302  1.0000
  C   C453      1.0  0.24199  0.88095  0.03944  1.0000
  C   C454      1.0  0.25443  0.86367  0.04021  1.0000
  C   C455      1.0  0.22079  0.88074  0.07685  1.0000
  C   C456      1.0  0.16134  0.56450  0.23911  1.0000
  H   H429      1.0  0.45699  0.92542  0.12314  1.0000
  H   H430      1.0  0.08035  0.50024  0.22958  1.0000
  Fe  Fe82      1.0  0.19520  0.95975  0.99357  1.0000
  H   H431      1.0  0.43525  0.64117  0.06027  1.0000
  N   N37       1.0  0.14872  0.55324  0.22569  1.0000
  H   H432      1.0  0.24975  0.96980  0.04478  1.0000
  C   C457      1.0  0.02782  0.56823  0.24123  1.0000
  H   H433      1.0  0.07279  0.53393  0.21549  1.0000
  H   H434      1.0  0.11744  0.72714  0.06230  1.0000
  H   H435      1.0  0.01826  0.66754  0.09268  1.0000
  C   C458      1.0  0.14496  0.52812  0.22235  1.0000
  H   H436      1.0  0.09837  0.77371  0.02136  1.0000
  S   S164      1.0  0.47773  0.59351  0.07657  1.0000
  H   H437      1.0  0.12756  0.78034  0.21442  1.0000
  H   H438      1.0  0.02029  0.53157  0.23081  1.0000
  Fe  Fe83      1.0  0.27929  0.85211  0.24000  1.0000
  H   H439      1.0  0.12277  0.56894  0.19656  1.0000
  H   H440      1.0  0.40881  0.82619  0.23330  1.0000
  C   C459      1.0  0.42905  0.54270  0.21931  1.0000
  H   H441      1.0  0.35869  0.93365  0.07145  1.0000
  H   H442      1.0  0.48400  0.85162  0.12891  1.0000
  H   H443      1.0  0.18259  0.57146  0.23806  1.0000
  C   C460      1.0  0.45244  0.86301  0.12399  1.0000
  H   H444      1.0  0.25180  0.78217  0.24204  1.0000
  C   C461      1.0  0.01366  0.65021  0.09911  1.0000
  S   S165      1.0  0.47217  0.58744  0.21592  1.0000
  H   H445      1.0  0.11531  0.52288  0.19045  1.0000
  Fe  Fe84      1.0  0.00274  0.74839  0.01281  1.0000
  C   C462      1.0  0.08817  0.56395  0.23134  1.0000
  H   H446      1.0  0.44019  0.61095  0.06116  1.0000
  H   H447      1.0  0.43009  0.54025  0.20803  1.0000
  Fe  Fe85      1.0  0.09056  0.62744  0.22908  1.0000
  N   N38       1.0  0.48756  0.91365  0.12900  1.0000
  H   H448      1.0  0.34194  0.99502  0.03992  1.0000
  H   H449      1.0  0.02204  0.57677  0.23222  1.0000
  H   H450      1.0  0.33124  0.53297  0.20358  1.0000
  H   H451      1.0  0.08740  0.83559  0.00347  1.0000
  H   H452      1.0  0.11714  0.75659  0.20021  1.0000
  C   C463      1.0  0.00927  0.63000  0.12153  1.0000
  H   H453      1.0  0.12632  0.50718  0.05088  1.0000
  C   C464      1.0  0.02677  0.54284  0.24046  1.0000
  N   N39       1.0  0.08748  0.73929  0.03367  1.0000
  C   C465      1.0  0.07999  0.71568  0.02695  1.0000
  H   H454      1.0  0.00879  0.69433  0.02886  1.0000
  Fe  Fe86      1.0  0.33597  0.85875  0.23794  1.0000
  H   H455      1.0  0.10301  0.68386  0.05051  1.0000
  H   H456      1.0  0.33816  0.97122  0.09035  1.0000
  H   H457      1.0  0.06890  0.71211  0.01719  1.0000
  C   C466      1.0  0.39739  0.85761  0.23900  1.0000
  C   C467      1.0  0.34185  0.99068  0.05110  1.0000
  H   H458      1.0  0.03254  0.84665  0.00355  1.0000
  H   H459      1.0  0.07621  0.77149  0.03562  1.0000
  H   H460      1.0  0.36957  0.95355  0.08699  1.0000
  H   H461      1.0  0.38870  0.96186  0.07140  1.0000
  H   H462      1.0  0.03048  0.69376  0.11311  1.0000
  S   S166      1.0  0.99537  0.78405  0.00625  1.0000
  C   C468      1.0  0.44481  0.88389  0.12257  1.0000
  S   S167      1.0  0.35020  0.90194  0.23567  1.0000
  S   S168      1.0  0.02887  0.75040  0.99461  1.0000
  S   S169      1.0  0.36404  0.83858  0.23706  1.0000
  H   H463      1.0  0.01044  0.63140  0.13298  1.0000
  H   H464      1.0  0.39496  0.50731  0.22170  1.0000
  H   H465      1.0  0.99711  0.58500  0.09529  1.0000
  S   S170      1.0  0.29027  0.89571  0.23806  1.0000
  H   H466      1.0  0.42538  0.88053  0.11904  1.0000
  C   C469      1.0  0.02526  0.86059  0.99859  1.0000
  C   C470      1.0  0.33995  0.97727  0.07939  1.0000
  H   H467      1.0  0.37264  0.55530  0.21673  1.0000
  H   H468      1.0  0.02298  0.87368  0.00684  1.0000
  C   C471      1.0  0.14155  0.56806  0.21640  1.0000
  C   C472      1.0  0.46283  0.90928  0.12491  1.0000
  H   H469      1.0  0.43905  0.84336  0.12146  1.0000
  H   H470      1.0  0.07368  0.50851  0.15099  1.0000
  C   C473      1.0  0.00680  0.62606  0.09235  1.0000
  H   H471      1.0  0.45592  0.85273  0.23589  1.0000
  C   C474      1.0  0.40775  0.52692  0.24163  1.0000
  C   C475      1.0  0.44615  0.56743  0.24069  1.0000
  C   C476      1.0  0.44210  0.86138  0.23799  1.0000
  C   C477      1.0  0.00165  0.60369  0.10043  1.0000
  H   H472      1.0  0.15062  0.51638  0.22973  1.0000
  H   H473      1.0  0.00542  0.67856  0.12587  1.0000
  H   H474      1.0  0.14421  0.58790  0.21907  1.0000
  H   H475      1.0  0.12977  0.49690  0.20702  1.0000
  C   C478      1.0  0.45075  0.88751  0.24220  1.0000
  H   H476      1.0  0.15629  0.58105  0.24247  1.0000
  H   H477      1.0  0.31908  0.52994  0.26483  1.0000
  S   S171      1.0  0.10407  0.64358  0.25065  1.0000
  S   S172      1.0  0.04906  0.64872  0.27091  1.0000
  H   H478      1.0  0.31189  0.80679  0.28445  1.0000
  C   C479      1.0  0.16206  0.92683  0.48296  1.0000
  H   H479      1.0  0.36783  0.95086  0.29822  1.0000
  H   H480      1.0  0.27329  0.96124  0.45074  1.0000
  H   H481      1.0  0.29189  0.98276  0.32372  1.0000
  H   H482      1.0  0.18208  0.79592  0.24476  1.0000
  H   H483      1.0  0.08087  0.82550  0.39366  1.0000
  H   H484      1.0  0.15484  0.54972  0.24768  1.0000
  Fe  Fe87      1.0  0.32308  0.90068  0.25323  1.0000
  S   S173      1.0  0.33988  0.92380  0.27366  1.0000
  S   S174      1.0  0.31028  0.85718  0.25625  1.0000
  H   H485      1.0  0.03500  0.51291  0.25132  1.0000
  H   H486      1.0  0.02619  0.77749  0.47353  1.0000
  H   H487      1.0  0.35324  0.53738  0.26420  1.0000
  H   H488      1.0  0.38536  0.85508  0.26750  1.0000
  H   H489      1.0  0.06766  0.90273  0.39066  1.0000
  N   N40       1.0  0.04572  0.57269  0.26467  1.0000
  S   S175      1.0  0.23238  0.96313  0.46715  1.0000
  Fe  Fe88      1.0  0.18158  0.97267  0.42585  1.0000
  S   S176      1.0  0.13836  0.94886  0.42214  1.0000
  S   S177      1.0  0.21268  0.95700  0.42736  1.0000
  H   H490      1.0  0.40718  0.89914  0.27719  1.0000
  H   H491      1.0  0.06322  0.85681  0.39172  1.0000
  H   H492      1.0  0.15005  0.92760  0.39165  1.0000
  H   H493      1.0  0.34545  0.88866  0.29382  1.0000
  C   C480      1.0  0.09614  0.52539  0.24749  1.0000
  H   H494      1.0  0.34990  0.81197  0.26957  1.0000
  Fe  Fe89      1.0  0.02589  0.80241  0.42609  1.0000
  S   S178      1.0  0.06935  0.82698  0.42424  1.0000
  S   S179      1.0  0.01355  0.75853  0.42807  1.0000
  C   C481      1.0  0.32779  0.82563  0.28364  1.0000
  C   C482      1.0  0.32668  0.84736  0.29050  1.0000
  H   H495      1.0  0.39258  0.89245  0.24540  1.0000
  C   C483      1.0  0.19172  0.78252  0.24431  1.0000
  H   H496      1.0  0.27855  0.95200  0.42566  1.0000
  N   N41       1.0  0.36777  0.87429  0.28077  1.0000
  C   C484      1.0  0.11955  0.91524  0.42533  1.0000
  C   C485      1.0  0.13071  0.89688  0.42664  1.0000
  C   C486      1.0  0.11495  0.87000  0.42699  1.0000
  C   C487      1.0  0.08786  0.86108  0.42619  1.0000
  C   C488      1.0  0.07666  0.87949  0.42558  1.0000
  C   C489      1.0  0.09244  0.90637  0.42508  1.0000
  H   H497      1.0  0.15150  0.90333  0.42683  1.0000
  H   H498      1.0  0.12386  0.85598  0.42758  1.0000
  H   H499      1.0  0.05590  0.87303  0.42497  1.0000
  H   H500      1.0  0.08357  0.92038  0.42409  1.0000
  H   H501      1.0  0.42515  0.55117  0.25969  1.0000
  C   C490      1.0  0.10270  0.55058  0.25301  1.0000
  H   H502      1.0  0.10451  0.58946  0.24907  1.0000
  C   C491      1.0  0.34689  0.87171  0.28887  1.0000
  C   C492      1.0  0.10131  0.83925  0.39245  1.0000
  H   H503      1.0  0.28970  0.98842  0.47117  1.0000
  H   H504      1.0  0.33093  0.50441  0.26191  1.0000
  C   C493      1.0  0.10919  0.91816  0.39053  1.0000
  C   C494      1.0  0.34588  0.95561  0.28044  1.0000
  C   C495      1.0  0.16661  0.95069  0.47652  1.0000
  C   C496      1.0  0.36034  0.96375  0.29304  1.0000
  H   H505      1.0  0.38927  0.91370  0.28726  1.0000
  C   C497      1.0  0.00663  0.67367  0.31117  1.0000
  C   C498      1.0  0.38798  0.90017  0.27837  1.0000
  H   H506      1.0  0.06460  0.57946  0.28495  1.0000
  S   S180      1.0  0.10280  0.50201  0.25734  1.0000
  C   C499      1.0  0.04454  0.54769  0.26406  1.0000
  C   C500      1.0  0.08233  0.87220  0.39111  1.0000
  H   H507      1.0  0.11180  0.83654  0.40192  1.0000
  C   C501      1.0  0.01609  0.63359  0.27612  1.0000
  N   N42       1.0  0.10382  0.86642  0.39164  1.0000
  C   C502      1.0  0.03504  0.53239  0.25196  1.0000
  H   H508      1.0  0.30989  0.84557  0.29665  1.0000
  C   C503      1.0  0.36905  0.85306  0.27408  1.0000
  S   S181      1.0  0.00108  0.80581  0.44391  1.0000
  C   C504      1.0  0.08469  0.89814  0.39051  1.0000
  C   C505      1.0  0.36524  0.98849  0.29906  1.0000
  C   C506      1.0  0.34909  0.82848  0.27535  1.0000
  H   H509      1.0  0.02302  0.68122  0.30414  1.0000
  C   C507      1.0  0.40617  0.88368  0.24325  1.0000
  C   C508      1.0  0.01540  0.77066  0.48314  1.0000
  C   C509      1.0  0.23547  0.97818  0.48394  1.0000
  H   H510      1.0  0.48583  0.74579  0.25200  1.0000
  C   C510      1.0  0.33414  0.52499  0.25958  1.0000
  C   C511      1.0  0.33629  0.97257  0.27395  1.0000
  H   H511      1.0  0.14494  0.88140  0.39233  1.0000
  H   H512      1.0  0.02623  0.62836  0.29758  1.0000
  C   C512      1.0  0.29005  0.97091  0.43020  1.0000
  H   H513      1.0  0.38338  0.90867  0.26863  1.0000
  C   C513      1.0  0.17693  0.75542  0.24450  1.0000
  H   H514      1.0  0.05158  0.53961  0.27278  1.0000
  C   C514      1.0  0.13098  0.91207  0.39099  1.0000
  Fe  Fe90      1.0  0.23805  0.99304  0.41541  1.0000
  H   H515      1.0  0.11127  0.55527  0.26345  1.0000
  H   H516      1.0  0.30963  0.98640  0.41076  1.0000
  C   C515      1.0  0.01053  0.62592  0.29030  1.0000
  H   H517      1.0  0.02981  0.67068  0.32887  1.0000
  Fe  Fe91      1.0  0.07121  0.65731  0.24984  1.0000
  H   H518      1.0  0.32507  0.96665  0.26430  1.0000
  H   H519      1.0  0.99936  0.63616  0.25597  1.0000
  C   C516      1.0  0.17370  0.97323  0.48475  1.0000
  H   H520      1.0  0.29394  0.98455  0.37406  1.0000
  H   H521      1.0  0.16492  0.95170  0.46513  1.0000
  H   H522      1.0  0.99322  0.67440  0.28463  1.0000
  Fe  Fe92      1.0  0.22528  0.98169  0.44705  1.0000
  C   C517      1.0  0.05581  0.58877  0.27731  1.0000
  C   C518      1.0  0.28709  0.97634  0.44435  1.0000
  H   H523      1.0  0.11138  0.93840  0.39086  1.0000
  C   C519      1.0  0.12792  0.88594  0.39152  1.0000
  H   H524      1.0  0.07096  0.60790  0.27434  1.0000
  H   H525      1.0  0.04003  0.59249  0.28262  1.0000
  S   S182      1.0  0.19307  0.99555  0.44612  1.0000
  S   S183      1.0  0.26280  0.98868  0.39711  1.0000
  H   H526      1.0  0.10917  0.83384  0.38281  1.0000
  C   C520      1.0  0.99552  0.63028  0.26688  1.0000
  C   C521      1.0  0.18913  0.73785  0.24394  1.0000
  S   S184      1.0  0.99579  0.79832  0.40940  1.0000
  H   H527      1.0  0.46035  0.58412  0.24601  1.0000
  C   C522      1.0  0.01060  0.66771  0.32513  1.0000
  H   H528      1.0  0.99223  0.65313  0.34509  1.0000
  H   H529      1.0  0.15676  0.90929  0.47659  1.0000
  H   H530      1.0  0.43922  0.91865  0.24824  1.0000
  H   H531      1.0  0.15614  0.74814  0.24516  1.0000
  C   C523      1.0  0.42622  0.54873  0.24841  1.0000
  N   N43       1.0  0.33332  0.52841  0.24426  1.0000
  H   H532      1.0  0.03803  0.60265  0.25405  1.0000
  C   C524      1.0  0.03723  0.58290  0.25353  1.0000
  C   C525      1.0  0.30740  0.99031  0.42180  1.0000
  S   S185      1.0  0.38226  0.50465  0.25156  1.0000
  H   H533      1.0  0.17777  0.99195  0.47979  1.0000
  C   C526      1.0  0.21880  0.79244  0.24329  1.0000
  C   C527      1.0  0.09887  0.56993  0.24491  1.0000
  S   S186      1.0  0.17143  0.70349  0.24373  1.0000
  C   C528      1.0  0.23101  0.77488  0.24281  1.0000
  C   C529      1.0  0.21625  0.74776  0.24325  1.0000
  C   C530      1.0  0.43266  0.89846  0.24496  1.0000
  H   H534      1.0  0.99297  0.81681  0.47309  1.0000
  H   H535      1.0  0.37639  0.99438  0.30873  1.0000
  S   S187      1.0  0.48378  0.90769  0.24376  1.0000
  H   H536      1.0  0.29322  0.50428  0.24279  1.0000
  H   H537      1.0  0.37348  0.55220  0.24268  1.0000
  H   H538      1.0  0.22589  0.73436  0.24287  1.0000
  Fe  Fe93      1.0  0.17980  0.96156  0.56015  1.0000
  S   S188      1.0  0.15161  0.92116  0.55371  1.0000
  S   S189      1.0  0.22134  0.96604  0.56010  1.0000
  Fe  Fe94      1.0  0.00969  0.78207  0.54604  1.0000
  Fe  Fe95      1.0  0.01479  0.82300  0.56836  1.0000
  S   S190      1.0  0.03683  0.86453  0.57573  1.0000
  S   S191      1.0  0.03358  0.79446  0.56608  1.0000
  Fe  Fe96      1.0  0.12086  0.70832  0.67261  1.0000
  S   S192      1.0  0.12054  0.68524  0.65307  1.0000
  S   S193      1.0  0.15524  0.74350  0.68226  1.0000
  Fe  Fe97      1.0  0.06294  0.67282  0.67832  1.0000
  S   S194      1.0  0.05941  0.64849  0.65867  1.0000
  S   S195      1.0  0.02892  0.67011  0.69249  1.0000
  Fe  Fe98      1.0  0.09804  0.64861  0.66537  1.0000
  S   S196      1.0  0.11197  0.61464  0.66493  1.0000
  Fe  Fe99      1.0  0.08188  0.68696  0.64800  1.0000
  S   S197      1.0  0.07723  0.69810  0.62512  1.0000
  S   S198      1.0  0.10077  0.67159  0.68545  1.0000
  S   S199      1.0  0.08304  0.71135  0.66709  1.0000
  C   C531      1.0  0.09780  0.57972  0.66434  1.0000
  C   C532      1.0  0.11404  0.56583  0.66491  1.0000
  C   C533      1.0  0.10400  0.53831  0.66376  1.0000
  C   C534      1.0  0.07749  0.52420  0.66182  1.0000
  C   C535      1.0  0.06124  0.53809  0.66129  1.0000
  C   C536      1.0  0.07123  0.56556  0.66267  1.0000
  H   H539      1.0  0.13464  0.57646  0.66615  1.0000
  H   H540      1.0  0.11685  0.52808  0.66417  1.0000
  H   H541      1.0  0.04069  0.52750  0.65982  1.0000
  H   H542      1.0  0.05840  0.57581  0.66227  1.0000
  C   C537      1.0  0.18347  0.77083  0.67656  1.0000
  C   C538      1.0  0.19892  0.78887  0.68672  1.0000
  C   C539      1.0  0.22135  0.81068  0.68287  1.0000
  C   C540      1.0  0.22894  0.81491  0.66871  1.0000
  C   C541      1.0  0.21355  0.79684  0.65855  1.0000
  C   C542      1.0  0.19104  0.77510  0.66240  1.0000
  H   H543      1.0  0.19350  0.78598  0.69771  1.0000
  H   H544      1.0  0.23272  0.82421  0.69089  1.0000
  H   H545      1.0  0.21899  0.79968  0.64756  1.0000
  H   H546      1.0  0.17957  0.76161  0.65439  1.0000
  C   C543      1.0  0.00797  0.64622  0.70427  1.0000
  N   N44       1.0  0.22818  0.90724  0.61819  1.0000
  C   C544      1.0  0.02106  0.73086  0.60482  1.0000
  C   C545      1.0  0.01807  0.72267  0.61900  1.0000
  C   C546      1.0  0.03520  0.71293  0.62543  1.0000
  C   C547      1.0  0.05549  0.71104  0.61772  1.0000
  C   C548      1.0  0.05850  0.71923  0.60353  1.0000
  C   C549      1.0  0.04150  0.72919  0.59713  1.0000
  H   H547      1.0  0.03252  0.70667  0.63632  1.0000
  H   H548      1.0  0.07403  0.71775  0.59742  1.0000
  H   H549      1.0  0.04402  0.73528  0.58621  1.0000
  C   C550      1.0  0.11944  0.90651  0.55959  1.0000
  C   C551      1.0  0.10377  0.88173  0.55435  1.0000
  C   C552      1.0  0.07823  0.86901  0.55897  1.0000
  C   C553      1.0  0.06816  0.88096  0.56892  1.0000
  C   C554      1.0  0.08377  0.90580  0.57413  1.0000
  C   C555      1.0  0.10936  0.91857  0.56949  1.0000
  H   H550      1.0  0.11142  0.87228  0.54668  1.0000
  H   H551      1.0  0.06641  0.84989  0.55487  1.0000
  H   H552      1.0  0.07609  0.91516  0.58183  1.0000
  H   H553      1.0  0.12126  0.93768  0.57357  1.0000
  C   C556      1.0  0.01370  0.77029  0.50898  1.0000
  H   H554      1.0  0.39806  0.50323  0.63068  1.0000
  H   H555      1.0  0.46914  0.65232  0.65085  1.0000
  S   S200      1.0  0.02967  0.78148  0.52535  1.0000
  N   N45       1.0  0.09610  0.73767  0.70713  1.0000
  C   C557      1.0  0.10778  0.72115  0.71085  1.0000
  C   C558      1.0  0.07078  0.73169  0.71038  1.0000
  C   C559      1.0  0.09418  0.69819  0.71824  1.0000
  C   C560      1.0  0.05677  0.70914  0.71797  1.0000
  C   C561      1.0  0.06849  0.69217  0.72179  1.0000
  C   C562      1.0  0.11032  0.76107  0.69888  1.0000
  H   H556      1.0  0.12757  0.72540  0.70785  1.0000
  H   H557      1.0  0.47744  0.89897  0.67971  1.0000
  H   H558      1.0  0.10329  0.68479  0.72082  1.0000
  H   H559      1.0  0.15738  0.94872  0.52615  1.0000
  S   S201      1.0  0.18363  0.98360  0.58040  1.0000
  H   H560      1.0  0.10299  0.77663  0.70073  1.0000
  H   H561      1.0  0.39391  0.96583  0.69283  1.0000
  N   N46       1.0  0.10499  0.62787  0.62749  1.0000
  C   C563      1.0  0.09160  0.64248  0.62316  1.0000
  C   C564      1.0  0.09215  0.60223  0.63096  1.0000
  C   C565      1.0  0.06466  0.63141  0.62218  1.0000
  C   C566      1.0  0.06521  0.59055  0.63015  1.0000
  C   C567      1.0  0.05141  0.60532  0.62577  1.0000
  C   C568      1.0  0.13314  0.63983  0.62903  1.0000
  H   H562      1.0  0.10166  0.66293  0.62061  1.0000
  H   H563      1.0  0.10274  0.59084  0.63474  1.0000
  H   H564      1.0  0.05413  0.64322  0.61893  1.0000
  H   H565      1.0  0.05516  0.57033  0.63316  1.0000
  H   H566      1.0  0.03050  0.59670  0.62531  1.0000
  H   H567      1.0  0.13845  0.64277  0.64043  1.0000
  H   H568      1.0  0.14206  0.62707  0.62437  1.0000
  H   H569      1.0  0.14150  0.65909  0.62374  1.0000
  C   C569      1.0  0.06332  0.80014  0.59954  1.0000
  C   C570      1.0  0.22316  0.90010  0.63203  1.0000
  C   C571      1.0  0.24798  0.90382  0.61137  1.0000
  C   C572      1.0  0.23835  0.88947  0.63944  1.0000
  C   C573      1.0  0.07584  0.84545  0.59569  1.0000
  C   C574      1.0  0.08496  0.80039  0.59229  1.0000
  H   H570      1.0  0.05010  0.78206  0.60400  1.0000
  N   N47       1.0  0.05852  0.82229  0.60071  1.0000
  H   H571      1.0  0.07239  0.86317  0.59696  1.0000
  C   C575      1.0  0.42681  0.91037  0.65536  1.0000
  S   S202      1.0  0.99929  0.74384  0.59749  1.0000
  H   H572      1.0  0.32731  0.98064  0.73184  1.0000
  H   H573      1.0  0.01950  0.80153  0.60711  1.0000
  C   C576      1.0  0.10204  0.82368  0.58648  1.0000
  C   C577      1.0  0.09768  0.84647  0.58834  1.0000
  C   C578      1.0  0.01081  0.62290  0.70732  1.0000
  C   C579      1.0  0.26356  0.97200  0.62410  1.0000
  C   C580      1.0  0.34261  0.99372  0.72535  1.0000
  H   H574      1.0  0.11072  0.86472  0.58382  1.0000
  C   C581      1.0  0.26368  0.89349  0.61851  1.0000
  H   H575      1.0  0.28018  0.89205  0.61330  1.0000
  C   C582      1.0  0.25880  0.88631  0.63262  1.0000
  H   H576      1.0  0.27107  0.87866  0.63834  1.0000
  H   H577      1.0  0.23457  0.88394  0.65045  1.0000
  H   H578      1.0  0.08812  0.78249  0.59102  1.0000
  H   H579      1.0  0.25233  0.90991  0.60049  1.0000
  C   C583      1.0  0.21174  0.91802  0.61064  1.0000
  H   H580      1.0  0.20751  0.90284  0.63745  1.0000
  H   H581      1.0  0.13120  0.76918  0.70172  1.0000
  Fe  Fe100     1.0  0.32220  0.93375  0.68401  1.0000
  H   H582      1.0  0.11854  0.82408  0.58049  1.0000
  H   H583      1.0  0.35185  0.83893  0.63549  1.0000
  C   C584      1.0  0.03514  0.82138  0.60781  1.0000
  H   H584      1.0  0.36802  0.94016  0.70098  1.0000
  Fe  Fe101     1.0  0.22585  0.99040  0.57976  1.0000
  S   S203      1.0  0.24009  0.98683  0.60216  1.0000
  C   C585      1.0  0.48787  0.68854  0.68654  1.0000
  S   S204      1.0  0.25750  0.84194  0.66311  1.0000
  H   H585      1.0  0.09004  0.53506  0.69313  1.0000
  S   S205      1.0  0.99348  0.81279  0.54777  1.0000
  C   C586      1.0  0.26316  0.97558  0.60940  1.0000
  C   C587      1.0  0.17424  0.94683  0.52099  1.0000
  C   C588      1.0  0.38892  0.95256  0.70207  1.0000
  H   H586      1.0  0.02748  0.83487  0.60264  1.0000
  H   H587      1.0  0.22036  0.92708  0.60045  1.0000
  C   C589      1.0  0.02742  0.77897  0.49638  1.0000
  C   C590      1.0  0.05776  0.49819  0.69543  1.0000
  H   H588      1.0  0.02598  0.61873  0.70231  1.0000
  C   C591      1.0  0.28051  0.96963  0.60103  1.0000
  H   H589      1.0  0.18226  0.98923  0.50574  1.0000
  H   H590      1.0  0.20944  0.93378  0.61699  1.0000
  H   H591      1.0  0.23863  0.96396  0.51891  1.0000
  S   S206      1.0  0.32416  0.89017  0.65264  1.0000
  H   H592      1.0  0.40000  0.93988  0.70158  1.0000
  H   H593      1.0  0.03939  0.82688  0.61909  1.0000
  C   C592      1.0  0.46789  0.55692  0.66229  1.0000
  H   H594      1.0  0.28082  0.95961  0.64170  1.0000
  C   C593      1.0  0.23837  0.97520  0.50964  1.0000
  C   C594      1.0  0.46093  0.57541  0.65531  1.0000
  H   H595      1.0  0.45703  0.62749  0.67305  1.0000
  H   H596      1.0  0.25031  0.97663  0.63071  1.0000
  C   C595      1.0  0.23495  0.96363  0.49613  1.0000
  H   H597      1.0  0.42925  0.58168  0.64537  1.0000
  N   N48       1.0  0.17191  0.94809  0.50562  1.0000
  S   S207      1.0  0.32249  0.89350  0.68643  1.0000
  H   H598      1.0  0.19251  0.90248  0.60843  1.0000
  C   C596      1.0  0.46354  0.90228  0.67287  1.0000
  H   H599      1.0  0.04746  0.79228  0.49687  1.0000
  H   H600      1.0  0.19218  0.96272  0.52485  1.0000
  H   H601      1.0  0.30019  0.80087  0.68851  1.0000
  S   S208      1.0  0.28977  0.91945  0.66767  1.0000
  S   S209      1.0  0.39015  0.89991  0.67694  1.0000
  S   S210      1.0  0.32331  0.95538  0.70488  1.0000
  Fe  Fe102     1.0  0.32172  0.92961  0.65184  1.0000
  H   H602      1.0  0.00424  0.82520  0.51785  1.0000
  H   H603      1.0  0.03644  0.70393  0.72009  1.0000
  C   C597      1.0  0.47409  0.66158  0.68632  1.0000
  C   C598      1.0  0.46708  0.64856  0.67340  1.0000
  N   N49       1.0  0.31594  0.82573  0.67111  1.0000
  C   C599      1.0  0.44940  0.53126  0.66452  1.0000
  H   H604      1.0  0.17518  0.92818  0.52449  1.0000
  H   H605      1.0  0.31174  0.95624  0.60079  1.0000
  C   C600      1.0  0.29820  0.96051  0.60735  1.0000
  C   C601      1.0  0.42352  0.52358  0.65998  1.0000
  C   C602      1.0  0.46948  0.90831  0.65864  1.0000
  C   C603      1.0  0.45093  0.91242  0.64997  1.0000
  H   H606      1.0  0.28283  0.82085  0.68343  1.0000
  S   S211      1.0  0.35393  0.94700  0.66799  1.0000
  Fe  Fe103     1.0  0.35383  0.90671  0.66997  1.0000
  C   C604      1.0  0.41649  0.54218  0.65316  1.0000
  H   H607      1.0  0.35300  0.84621  0.68057  1.0000
  H   H608      1.0  0.41288  0.91354  0.64848  1.0000
  H   H609      1.0  0.05732  0.67392  0.72700  1.0000
  C   C605      1.0  0.30246  0.81637  0.65884  1.0000
  H   H610      1.0  0.30421  0.81413  0.63614  1.0000
  C   C606      1.0  0.30233  0.82038  0.68461  1.0000
  C   C607      1.0  0.47403  0.66273  0.66085  1.0000
  N   N50       1.0  0.39435  0.96731  0.71537  1.0000
  Fe  Fe104     1.0  0.29258  0.88015  0.66890  1.0000
  H   H611      1.0  0.06107  0.74402  0.70683  1.0000
  S   S212      1.0  0.48353  0.60809  0.65170  1.0000
  H   H612      1.0  0.10856  0.75609  0.68744  1.0000
  C   C608      1.0  0.37926  0.95724  0.72690  1.0000
  C   C609      1.0  0.34216  0.83894  0.67087  1.0000
  H   H613      1.0  0.36266  0.93889  0.72610  1.0000
  H   H614      1.0  0.37620  0.85471  0.65793  1.0000
  C   C610      1.0  0.35545  0.84375  0.65807  1.0000
  H   H615      1.0  0.47861  0.69712  0.64020  1.0000
  S   S213      1.0  0.32030  0.94395  0.62935  1.0000
  C   C611      1.0  0.29842  0.95669  0.62205  1.0000
  C   C612      1.0  0.34178  0.83488  0.64549  1.0000
  C   C613      1.0  0.43505  0.56772  0.65078  1.0000
  H   H616      1.0  0.43494  0.89488  0.68919  1.0000
  C   C614      1.0  0.28086  0.96236  0.63039  1.0000
  H   H617      1.0  0.31282  0.83533  0.69269  1.0000
  H   H618      1.0  0.39675  0.53691  0.64968  1.0000
  N   N51       1.0  0.48735  0.68916  0.66116  1.0000
  C   C615      1.0  0.42074  0.90397  0.66954  1.0000
  C   C616      1.0  0.16466  0.92584  0.49763  1.0000
  H   H619      1.0  0.45526  0.51725  0.66982  1.0000
  H   H620      1.0  0.45520  0.91714  0.63895  1.0000
  H   H621      1.0  0.28170  0.80562  0.65904  1.0000
  C   C617      1.0  0.43933  0.89997  0.67822  1.0000
  C   C618      1.0  0.41480  0.99085  0.71626  1.0000
  C   C619      1.0  0.31510  0.82102  0.64585  1.0000
  C   C620      1.0  0.38413  0.97113  0.73966  1.0000
  H   H622      1.0  0.28054  0.97237  0.58971  1.0000
  H   H623      1.0  0.23222  0.94338  0.49512  1.0000
  H   H624      1.0  0.48759  0.56229  0.66588  1.0000
  C   C621      1.0  0.17626  0.97156  0.49940  1.0000
  H   H625      1.0  0.04652  0.50262  0.68725  1.0000
  Fe  Fe105     1.0  0.99876  0.76621  0.57720  1.0000
  H   H626      1.0  0.16101  0.90721  0.50258  1.0000
  C   C622      1.0  0.08246  0.51657  0.69865  1.0000
  C   C623      1.0  0.09754  0.51061  0.70870  1.0000
  C   C624      1.0  0.34483  0.98660  0.71128  1.0000
  C   C625      1.0  0.00122  0.82349  0.49519  1.0000
  H   H627      1.0  0.11697  0.52445  0.71104  1.0000
  H   H628      1.0  0.02135  0.83595  0.49363  1.0000
  H   H629      1.0  0.46934  0.65070  0.69611  1.0000
  H   H630      1.0  0.00238  0.72389  0.62507  1.0000
  H   H631      1.0  0.99627  0.58685  0.71903  1.0000
  C   C626      1.0  0.40459  0.99542  0.74056  1.0000
  C   C627      1.0  0.99387  0.60481  0.71684  1.0000
  S   S214      1.0  0.05067  0.82421  0.97906  1.0000
  C   C628      1.0  0.21090  0.96016  0.94919  1.0000
  H   H632      1.0  0.17298  0.97409  0.95409  1.0000
  C   C629      1.0  0.08062  0.85067  0.98361  1.0000
  C   C630      1.0  0.20565  0.91180  0.95945  1.0000
  Fe  Fe106     1.0  0.02077  0.78526  0.98777  1.0000
  H   H633      1.0  0.16768  0.90803  0.96545  1.0000
  H   H634      1.0  0.24948  0.96499  0.94333  1.0000
  H   H635      1.0  0.12072  0.90937  0.96983  1.0000
  C   C631      1.0  0.22879  0.92781  0.95321  1.0000
  C   C632      1.0  0.16708  0.95319  0.95689  1.0000
  C   C633      1.0  0.09051  0.87186  0.97425  1.0000
  C   C634      1.0  0.11382  0.89339  0.97719  1.0000
  H   H636      1.0  0.21336  0.97929  0.94529  1.0000
  N   N52       1.0  0.18843  0.94452  0.95552  1.0000
  C   C635      1.0  0.18551  0.92047  0.96046  1.0000
  H   H637      1.0  0.15075  0.94130  0.94994  1.0000
  H   H638      1.0  0.16040  0.95111  0.96801  1.0000
  C   C636      1.0  0.23142  0.95209  0.94798  1.0000
  H   H639      1.0  0.20343  0.89300  0.96372  1.0000
  H   H640      1.0  0.24479  0.92161  0.95259  1.0000
  S   S215      1.0  0.23355  0.95943  0.98696  1.0000
  H   H641      1.0  0.01781  0.84934  0.97099  1.0000
  N   N53       1.0  0.00069  0.84612  0.99132  1.0000
  H   H642      1.0  0.08004  0.87164  0.96459  1.0000
  H   H643      1.0  0.37145  0.96364  0.74858  1.0000
  C   C637      1.0  0.12802  0.89425  0.98955  1.0000
  C   C638      1.0  0.00018  0.84172  0.97707  1.0000
  H   H644      1.0  0.04026  0.87284  0.99113  1.0000
  Fe  Fe107     1.0  0.99224  0.72532  0.98286  1.0000
  S   S216      1.0  0.76677  0.99819  0.02082  1.0000
  S   S217      1.0  0.94906  0.24404  0.00366  1.0000
  S   S218      1.0  0.70915  0.00344  0.04215  1.0000
  Fe  Fe108     1.0  0.94830  0.20372  0.00752  1.0000
  S   S219      1.0  0.90763  0.17287  0.01302  1.0000
  Fe  Fe109     1.0  0.77996  0.02882  0.00377  1.0000
  S   S220      1.0  0.98249  0.21990  0.02238  1.0000
  H   H645      1.0  0.64107  0.01150  0.04854  1.0000
  S   S221      1.0  0.74404  0.03754  0.00564  1.0000
  C   C639      1.0  0.88473  0.14015  0.00966  1.0000
  C   C640      1.0  0.85980  0.13206  0.01546  1.0000
  C   C641      1.0  0.84061  0.10691  0.01270  1.0000
  C   C642      1.0  0.84603  0.08917  0.00414  1.0000
  C   C643      1.0  0.65431  0.02731  0.04177  1.0000
  H   H646      1.0  0.84003  0.01675  0.00947  1.0000
  H   H647      1.0  0.85523  0.14538  0.02216  1.0000
  C   C644      1.0  0.87099  0.09725  0.99836  1.0000
  H   H648      1.0  0.64867  0.04429  0.04218  1.0000
  C   C645      1.0  0.67398  0.02243  0.00456  1.0000
  C   C646      1.0  0.65172  0.00302  0.99905  1.0000
  S   S222      1.0  0.98972  0.28760  0.03614  1.0000
  C   C647      1.0  0.67468  0.02985  0.01872  1.0000
  H   H649      1.0  0.82169  0.10121  0.01730  1.0000
  H   H650      1.0  0.69229  0.04459  0.02298  1.0000
  N   N54       1.0  0.65361  0.01844  0.02713  1.0000
  H   H651      1.0  0.90908  0.12817  0.99648  1.0000
  Fe  Fe110     1.0  0.98527  0.26026  0.01714  1.0000
  S   S223      1.0  0.82270  0.05685  0.00027  1.0000
  Fe  Fe111     1.0  0.72944  0.00416  0.02120  1.0000
  C   C648      1.0  0.89013  0.12245  0.00106  1.0000
  H   H652      1.0  0.69060  0.03159  0.99784  1.0000
  H   H653      1.0  0.85831  0.20884  0.99591  1.0000
  H   H654      1.0  0.67398  0.03298  0.04643  1.0000
  C   C649      1.0  0.83101  0.99767  0.00454  1.0000
  C   C650      1.0  0.63149  0.99970  0.02175  1.0000
  H   H655      1.0  0.88736  0.21211  0.00544  1.0000
  C   C651      1.0  0.87941  0.21421  0.99493  1.0000
  H   H656      1.0  0.76786  0.25637  0.31204  1.0000
  H   H657      1.0  0.93301  0.39286  0.30096  1.0000
  H   H658      1.0  0.53079  0.35105  0.32797  1.0000
  Fe  Fe112     1.0  0.91890  0.33209  0.32044  1.0000
  S   S224      1.0  0.91635  0.35192  0.34094  1.0000
  S   S225      1.0  0.95838  0.35514  0.31034  1.0000
  Fe  Fe113     1.0  0.86255  0.29059  0.32370  1.0000
  S   S226      1.0  0.85714  0.30929  0.34369  1.0000
  S   S227      1.0  0.82978  0.25515  0.31343  1.0000
  Fe  Fe114     1.0  0.87738  0.34822  0.33303  1.0000
  S   S228      1.0  0.86056  0.37967  0.33097  1.0000
  Fe  Fe115     1.0  0.89688  0.31132  0.34974  1.0000
  S   S229      1.0  0.89923  0.29485  0.37167  1.0000
  S   S230      1.0  0.88022  0.32944  0.31239  1.0000
  S   S231      1.0  0.90188  0.29151  0.32992  1.0000
  Fe  Fe116     1.0  0.65036  0.07951  0.31015  1.0000
  S   S232      1.0  0.62736  0.05911  0.32899  1.0000
  S   S233      1.0  0.63557  0.06322  0.28803  1.0000
  Fe  Fe117     1.0  0.68803  0.12586  0.32817  1.0000
  S   S234      1.0  0.66598  0.10781  0.34797  1.0000
  S   S235      1.0  0.72393  0.16340  0.33384  1.0000
  Fe  Fe118     1.0  0.66594  0.07008  0.33993  1.0000
  S   S236      1.0  0.67366  0.03944  0.35300  1.0000
  Fe  Fe119     1.0  0.62905  0.09858  0.33541  1.0000
  S   S237      1.0  0.59492  0.10403  0.34623  1.0000
  S   S238      1.0  0.68914  0.08774  0.32057  1.0000
  S   S239      1.0  0.65083  0.11924  0.31620  1.0000
  Fe  Fe120     1.0  0.97410  0.22936  0.45285  1.0000
  H   H659      1.0  0.71641  0.01024  0.39075  1.0000
  H   H660      1.0  0.78375  0.08194  0.37676  1.0000
  H   H661      1.0  0.55211  0.02608  0.29835  1.0000
  S   S240      1.0  0.99032  0.27733  0.40498  1.0000
  Fe  Fe121     1.0  0.95072  0.18999  0.42876  1.0000
  S   S241      1.0  0.91308  0.16192  0.41905  1.0000
  S   S242      1.0  0.94860  0.22828  0.43422  1.0000
  Fe  Fe122     1.0  0.80737  0.02647  0.43416  1.0000
  S   S243      1.0  0.78171  0.04717  0.43948  1.0000
  S   S244      1.0  0.85065  0.04448  0.43765  1.0000
  H   H662      1.0  0.68738  0.00408  0.36993  1.0000
  H   H663      1.0  0.84478  0.04696  0.48261  1.0000
  H   H664      1.0  0.51732  0.41295  0.32809  1.0000
  H   H665      1.0  0.82442  0.09841  0.44301  1.0000
  H   H666      1.0  0.82407  0.33415  0.31498  1.0000
  C   C652      1.0  0.52233  0.35221  0.33807  1.0000
  C   C653      1.0  0.89619  0.12935  0.42450  1.0000
  C   C654      1.0  0.90697  0.11701  0.43391  1.0000
  C   C655      1.0  0.89299  0.09083  0.43770  1.0000
  C   C656      1.0  0.86802  0.07699  0.43229  1.0000
  C   C657      1.0  0.85717  0.08941  0.42297  1.0000
  C   C658      1.0  0.87127  0.11544  0.41905  1.0000
  H   H667      1.0  0.92624  0.12747  0.43807  1.0000
  H   H668      1.0  0.90158  0.08129  0.44484  1.0000
  H   H669      1.0  0.83799  0.07892  0.41871  1.0000
  H   H670      1.0  0.86282  0.12483  0.41173  1.0000
  H   H671      1.0  0.91742  0.28668  0.44119  1.0000
  C   C659      1.0  0.74673  0.11775  0.34365  1.0000
  C   C660      1.0  0.74060  0.07177  0.34360  1.0000
  C   C661      1.0  0.69344  0.04467  0.36832  1.0000
  C   C662      1.0  0.69700  0.02333  0.37448  1.0000
  C   C663      1.0  0.71341  0.02674  0.38631  1.0000
  C   C664      1.0  0.72636  0.05157  0.39213  1.0000
  C   C665      1.0  0.72213  0.07278  0.38623  1.0000
  C   C666      1.0  0.70583  0.06939  0.37437  1.0000
  Fe  Fe123     1.0  0.98475  0.24634  0.42182  1.0000
  S   S245      1.0  0.74149  0.01644  0.47189  1.0000
  H   H672      1.0  0.85581  0.11479  0.45096  1.0000
  H   H673      1.0  0.70309  0.08594  0.36982  1.0000
  C   C667      1.0  0.92509  0.29058  0.38071  1.0000
  C   C668      1.0  0.91968  0.27537  0.39304  1.0000
  C   C669      1.0  0.93928  0.27060  0.40036  1.0000
  C   C670      1.0  0.96478  0.28179  0.39572  1.0000
  C   C671      1.0  0.97031  0.29737  0.38353  1.0000
  C   C672      1.0  0.95054  0.30148  0.37594  1.0000
  H   H674      1.0  0.90005  0.26682  0.39681  1.0000
  H   H675      1.0  0.93467  0.25851  0.40968  1.0000
  H   H676      1.0  0.79788  0.27320  0.29370  1.0000
  H   H677      1.0  0.95504  0.31333  0.36651  1.0000
  C   C673      1.0  0.80111  0.22908  0.31957  1.0000
  C   C674      1.0  0.79299  0.22702  0.33363  1.0000
  C   C675      1.0  0.76947  0.20689  0.33773  1.0000
  C   C676      1.0  0.75364  0.18831  0.32792  1.0000
  C   C677      1.0  0.76187  0.19028  0.31388  1.0000
  C   C678      1.0  0.78530  0.21050  0.30977  1.0000
  H   H678      1.0  0.80472  0.24106  0.34134  1.0000
  H   H679      1.0  0.76347  0.20572  0.34862  1.0000
  H   H680      1.0  0.75009  0.17631  0.30614  1.0000
  H   H681      1.0  0.79118  0.21175  0.29885  1.0000
  C   C679      1.0  0.89627  0.46960  0.33655  1.0000
  C   C680      1.0  0.87134  0.45676  0.33102  1.0000
  C   C681      1.0  0.86060  0.42928  0.32968  1.0000
  C   C682      1.0  0.87460  0.41419  0.33374  1.0000
  C   C683      1.0  0.89938  0.42700  0.33945  1.0000
  C   C684      1.0  0.91004  0.45444  0.34088  1.0000
  H   H682      1.0  0.86044  0.46801  0.32763  1.0000
  H   H683      1.0  0.84137  0.41968  0.32530  1.0000
  H   H684      1.0  0.91037  0.41579  0.34275  1.0000
  H   H685      1.0  0.92929  0.46407  0.34522  1.0000
  C   C685      1.0  0.51034  0.08719  0.33263  1.0000
  C   C686      1.0  0.52730  0.08232  0.32325  1.0000
  C   C687      1.0  0.55311  0.08726  0.32718  1.0000
  C   C688      1.0  0.56245  0.09726  0.34060  1.0000
  C   C689      1.0  0.54548  0.10211  0.34999  1.0000
  C   C690      1.0  0.51965  0.09710  0.34607  1.0000
  H   H686      1.0  0.52043  0.07472  0.31282  1.0000
  H   H687      1.0  0.56580  0.08350  0.31979  1.0000
  H   H688      1.0  0.55236  0.10980  0.36040  1.0000
  H   H689      1.0  0.50696  0.10085  0.35347  1.0000
  C   C691      1.0  0.51278  0.43216  0.34697  1.0000
  C   C692      1.0  0.52469  0.45443  0.35558  1.0000
  C   C693      1.0  0.54929  0.47375  0.35233  1.0000
  C   C694      1.0  0.56290  0.47089  0.34055  1.0000
  C   C695      1.0  0.55095  0.44867  0.33190  1.0000
  C   C696      1.0  0.52604  0.42972  0.33493  1.0000
  H   H690      1.0  0.89378  0.18738  0.39724  1.0000
  C   C697      1.0  0.60502  0.01613  0.36196  1.0000
  H   H691      1.0  0.56108  0.44605  0.32275  1.0000
  H   H692      1.0  0.76195  0.13705  0.34641  1.0000
  C   C698      1.0  0.63606  0.04227  0.37982  1.0000
  S   S246      1.0  0.97347  0.18957  0.44831  1.0000
  C   C699      1.0  0.96070  0.34749  0.28119  1.0000
  C   C700      1.0  0.97882  0.29503  0.44999  1.0000
  H   H693      1.0  0.94165  0.33221  0.28199  1.0000
  S   S247      1.0  0.78692  0.01054  0.41368  1.0000
  C   C701      1.0  0.62714  0.03134  0.28074  1.0000
  H   H694      1.0  0.61056  0.04034  0.26189  1.0000
  C   C702      1.0  0.95205  0.28690  0.45115  1.0000
  C   C703      1.0  0.93823  0.29329  0.44054  1.0000
  H   H695      1.0  0.72807  0.11703  0.34784  1.0000
  H   H696      1.0  0.79568  0.30431  0.29043  1.0000
  C   C704      1.0  0.53227  0.37506  0.34609  1.0000
  C   C705      1.0  0.64074  0.08609  0.38558  1.0000
  H   H697      1.0  0.96563  0.44856  0.31799  1.0000
  H   H698      1.0  0.94210  0.27527  0.46011  1.0000
  C   C706      1.0  0.77037  0.27524  0.33207  1.0000
  H   H699      1.0  0.79170  0.09535  0.46782  1.0000
  H   H700      1.0  0.54843  0.39189  0.34227  1.0000
  H   H701      1.0  0.98161  0.22988  0.38713  1.0000
  H   H702      1.0  0.94741  0.40278  0.31811  1.0000
  H   H703      1.0  0.96418  0.34128  0.25889  1.0000
  S   S248      1.0  0.96126  0.23966  0.47395  1.0000
  H   H704      1.0  0.81214  0.33704  0.33976  1.0000
  H   H705      1.0  0.91314  0.38717  0.31654  1.0000
  H   H706      1.0  0.72735  0.06845  0.33474  1.0000
  C   C707      1.0  0.83471  0.10794  0.45282  1.0000
  H   H707      1.0  0.89040  0.40859  0.30066  1.0000
  C   C708      1.0  0.60680  0.00022  0.26148  1.0000
  H   H708      1.0  0.82559  0.30230  0.29645  1.0000
  H   H709      1.0  0.87196  0.20753  0.38085  1.0000
  C   C709      1.0  0.61447  0.02537  0.26752  1.0000
  H   H710      1.0  0.75561  0.25830  0.33684  1.0000
  H   H711      1.0  0.50158  0.36837  0.38495  1.0000
  H   H712      1.0  0.77643  0.11902  0.36602  1.0000
  C   C710      1.0  0.94580  0.47288  0.31169  1.0000
  C   C711      1.0  0.80211  0.31930  0.33372  1.0000
  C   C712      1.0  0.97281  0.36160  0.29327  1.0000
  C   C713      1.0  0.94818  0.44893  0.31325  1.0000
  H   H713      1.0  0.98925  0.28950  0.45820  1.0000
  H   H714      1.0  0.65018  0.10413  0.39143  1.0000
  C   C714      1.0  0.62119  0.08371  0.37586  1.0000
  C   C715      1.0  0.56784  0.02401  0.29213  1.0000
  C   C716      1.0  0.80885  0.31753  0.31969  1.0000
  C   C717      1.0  0.74460  0.05053  0.34937  1.0000
  N   N55       1.0  0.92841  0.42622  0.30930  1.0000
  C   C718      1.0  0.97297  0.23114  0.37671  1.0000
  H   H715      1.0  0.66347  0.06681  0.39512  1.0000
  C   C719      1.0  0.54353  0.99974  0.27158  1.0000
  H   H716      1.0  0.61948  0.00807  0.35887  1.0000
  C   C720      1.0  0.78291  0.29791  0.33997  1.0000
  Fe  Fe124     1.0  0.75911  0.02879  0.41980  1.0000
  Fe  Fe125     1.0  0.75752  0.01049  0.45078  1.0000
  C   C721      1.0  0.92319  0.47349  0.30589  1.0000
  C   C722      1.0  0.77230  0.07913  0.36714  1.0000
  C   C723      1.0  0.90629  0.42667  0.30346  1.0000
  H   H717      1.0  0.57684  0.04148  0.28534  1.0000
  C   C724      1.0  0.90333  0.45028  0.30167  1.0000
  N   N56       1.0  0.79678  0.29507  0.31210  1.0000
  C   C725      1.0  0.97805  0.31565  0.42815  1.0000
  H   H718      1.0  0.83047  0.12546  0.45498  1.0000
  C   C726      1.0  0.95128  0.30784  0.42898  1.0000
  N   N57       1.0  0.94520  0.22466  0.37790  1.0000
  C   C727      1.0  0.93326  0.23525  0.36862  1.0000
  C   C728      1.0  0.93119  0.20730  0.38791  1.0000
  C   C729      1.0  0.90674  0.22915  0.36949  1.0000
  C   C730      1.0  0.90465  0.20082  0.38910  1.0000
  C   C731      1.0  0.89242  0.21196  0.37987  1.0000
  H   H719      1.0  0.95635  0.17806  0.47934  1.0000
  H   H720      1.0  0.94434  0.24912  0.36072  1.0000
  H   H721      1.0  0.94047  0.19852  0.39515  1.0000
  H   H722      1.0  0.89756  0.23846  0.36248  1.0000
  H   H723      1.0  0.58332  0.02399  0.29949  1.0000
  H   H724      1.0  0.76291  0.03780  0.36620  1.0000
  N   N58       1.0  0.49975  0.35563  0.36360  1.0000
  H   H725      1.0  0.64195  0.01602  0.29797  1.0000
  H   H726      1.0  0.54021  0.01690  0.26847  1.0000
  H   H727      1.0  0.77778  0.06486  0.48791  1.0000
  H   H728      1.0  0.88535  0.45049  0.29761  1.0000
  N   N59       1.0  0.61741  0.04038  0.37003  1.0000
  N   N60       1.0  0.75240  0.09613  0.34939  1.0000
  C   C732      1.0  0.97357  0.35270  0.26808  1.0000
  H   H729      1.0  0.59623  0.01949  0.35200  1.0000
  H   H730      1.0  0.73202  0.09205  0.39069  1.0000
  C   C733      1.0  0.64817  0.06520  0.38766  1.0000
  C   C734      1.0  0.80422  0.29374  0.29740  1.0000
  H   H731      1.0  0.59451  0.05896  0.36057  1.0000
  N   N61       1.0  0.55773  0.00025  0.28346  1.0000
  H   H732      1.0  0.51484  0.45673  0.36493  1.0000
  C   C735      1.0  0.80392  0.08550  0.47132  1.0000
  H   H733      1.0  0.50255  0.13675  0.33492  1.0000
  H   H734      1.0  0.74539  0.11680  0.33192  1.0000
  H   H735      1.0  0.73449  0.03113  0.34503  1.0000
  C   C736      1.0  0.93065  0.40112  0.31130  1.0000
  S   S249      1.0  0.74943  0.05762  0.40598  1.0000
  C   C737      1.0  0.63216  0.01179  0.28784  1.0000
  C   C738      1.0  0.84102  0.07569  0.46844  1.0000
  C   C739      1.0  0.76792  0.09995  0.36108  1.0000
  C   C740      1.0  0.77742  0.27424  0.31802  1.0000
  H   H736      1.0  0.77790  0.29884  0.35094  1.0000
  N   N62       1.0  0.82658  0.08953  0.46460  1.0000
  C   C741      1.0  0.76052  0.05428  0.36124  1.0000
  C   C742      1.0  0.60958  0.06053  0.36817  1.0000
  H   H737      1.0  0.85841  0.07801  0.46274  1.0000
  H   H738      1.0  0.94071  0.31249  0.42050  1.0000
  C   C743      1.0  0.83345  0.05811  0.47968  1.0000
  H   H739      1.0  0.61528  0.09985  0.37407  1.0000
  H   H740      1.0  0.98796  0.32616  0.41888  1.0000
  S   S250      1.0  0.98602  0.20807  0.41534  1.0000
  H   H741      1.0  0.92065  0.49182  0.30523  1.0000
  C   C744      1.0  0.79593  0.06829  0.48270  1.0000
  H   H742      1.0  0.50153  0.17465  0.34839  1.0000
  H   H743      1.0  0.98327  0.25157  0.37312  1.0000
  C   C745      1.0  0.49405  0.14935  0.33025  1.0000
  C   C746      1.0  0.97821  0.24363  0.49021  1.0000
  C   C747      1.0  0.49350  0.17064  0.33779  1.0000
  H   H744      1.0  0.97651  0.21761  0.36920  1.0000
  H   H745      1.0  0.96092  0.49078  0.31543  1.0000
  H   H746      1.0  0.64222  0.02625  0.38133  1.0000
  C   C748      1.0  0.81095  0.05472  0.48697  1.0000
  H   H747      1.0  0.52764  0.39473  0.36472  1.0000
  H   H748      1.0  0.55801  0.49049  0.35919  1.0000
  C   C749      1.0  0.75020  0.00681  0.48830  1.0000
  S   S251      1.0  0.59515  0.49351  0.33645  1.0000
  H   H749      1.0  0.98999  0.30623  0.37986  1.0000
  C   C750      1.0  0.96658  0.17963  0.48929  1.0000
  C   C751      1.0  0.52057  0.37648  0.35887  1.0000
  C   C752      1.0  0.50111  0.33104  0.34298  1.0000
  H   H750      1.0  0.58983  0.00155  0.36841  1.0000
  H   H751      1.0  0.49288  0.31327  0.33674  1.0000
  N   N63       1.0  0.99146  0.30925  0.43858  1.0000
  Fe  Fe126     1.0  0.95822  0.19478  0.57010  1.0000
  S   S252      1.0  0.96350  0.23542  0.56324  1.0000
  S   S253      1.0  0.92549  0.15772  0.56192  1.0000
  H   H752      1.0  0.57750  0.08455  0.72122  1.0000
  H   H753      1.0  0.58065  0.01363  0.67305  1.0000
  C   C753      1.0  0.77341  0.03552  0.62793  1.0000
  H   H754      1.0  0.78857  0.03249  0.63385  1.0000
  H   H755      1.0  0.53382  0.45037  0.73783  1.0000
  H   H756      1.0  0.79980  0.06581  0.61509  1.0000
  C   C754      1.0  0.98169  0.34735  0.59860  1.0000
  C   C755      1.0  0.95521  0.13047  0.60191  1.0000
  C   C756      1.0  0.56869  0.00760  0.65132  1.0000
  H   H757      1.0  0.75300  0.08551  0.59664  1.0000
  C   C757      1.0  0.61844  0.02639  0.70781  1.0000
  H   H758      1.0  0.60367  0.10512  0.73251  1.0000
  Fe  Fe127     1.0  0.79587  0.03178  0.57897  1.0000
  S   S254      1.0  0.82431  0.07034  0.58853  1.0000
  S   S255      1.0  0.76221  0.02819  0.56481  1.0000
  S   S256      1.0  0.92081  0.33342  0.73070  1.0000
  C   C758      1.0  0.77965  0.05440  0.61732  1.0000
  H   H759      1.0  0.80480  0.04117  0.49572  1.0000
  C   C759      1.0  0.90282  0.47344  0.73431  1.0000
  H   H760      1.0  0.74755  0.21677  0.72519  1.0000
  C   C760      1.0  0.58240  0.09439  0.73165  1.0000
  C   C761      1.0  0.62979  0.02633  0.73274  1.0000
  C   C762      1.0  0.74231  0.01483  0.50089  1.0000
  C   C763      1.0  0.62805  0.03994  0.72061  1.0000
  H   H761      1.0  0.61749  0.03722  0.69850  1.0000
  H   H762      1.0  0.63445  0.06091  0.72103  1.0000
  H   H763      1.0  0.74238  0.00503  0.63852  1.0000
  C   C764      1.0  0.74755  0.02010  0.63053  1.0000
  C   C765      1.0  0.95191  0.35288  0.72384  1.0000
  C   C766      1.0  0.95742  0.34933  0.70967  1.0000
  C   C767      1.0  0.97139  0.37099  0.73213  1.0000
  H   H764      1.0  0.94259  0.33534  0.70314  1.0000
  C   C768      1.0  0.95465  0.18320  0.52800  1.0000
  Fe  Fe128     1.0  0.73752  0.99705  0.58002  1.0000
  H   H765      1.0  0.70817  0.01150  0.62425  1.0000
  H   H766      1.0  0.58738  0.02043  0.64739  1.0000
  C   C769      1.0  0.95434  0.17976  0.50208  1.0000
  H   H767      1.0  0.93540  0.18400  0.52640  1.0000
  C   C770      1.0  0.61053  0.99910  0.70687  1.0000
  H   H768      1.0  0.75825  0.24846  0.73292  1.0000
  H   H769      1.0  0.98217  0.13015  0.56464  1.0000
  H   H770      1.0  0.94528  0.24138  0.50246  1.0000
  C   C771      1.0  0.98196  0.36363  0.70385  1.0000
  H   H771      1.0  0.74390  0.01505  0.52377  1.0000
  H   H772      1.0  0.76844  0.06660  0.58796  1.0000
  C   C772      1.0  0.89713  0.13411  0.56954  1.0000
  C   C773      1.0  0.88256  0.11172  0.56160  1.0000
  C   C774      1.0  0.86030  0.09206  0.56722  1.0000
  C   C775      1.0  0.85225  0.09454  0.58088  1.0000
  C   C776      1.0  0.86684  0.11692  0.58884  1.0000
  C   C777      1.0  0.88913  0.13661  0.58322  1.0000
  H   H773      1.0  0.88849  0.10953  0.55101  1.0000
  H   H774      1.0  0.84932  0.07501  0.56095  1.0000
  H   H775      1.0  0.86079  0.11913  0.59940  1.0000
  H   H776      1.0  0.90004  0.15371  0.58945  1.0000
  H   H777      1.0  0.88494  0.46386  0.72845  1.0000
  C   C778      1.0  0.98842  0.36544  0.60971  1.0000
  N   N64       1.0  0.76063  0.05790  0.60957  1.0000
  C   C779      1.0  0.69957  0.20053  0.73382  1.0000
  H   H778      1.0  0.92322  0.28201  0.73362  1.0000
  H   H779      1.0  0.73027  0.02592  0.50039  1.0000
  N   N65       1.0  0.71824  0.22498  0.73575  1.0000
  H   H780      1.0  0.91782  0.10728  0.59284  1.0000
  C   C780      1.0  0.76745  0.07665  0.59794  1.0000
  C   C781      1.0  0.74174  0.23339  0.72725  1.0000
  H   H781      1.0  0.93449  0.17804  0.50184  1.0000
  C   C782      1.0  0.97773  0.24582  0.51603  1.0000
  H   H782      1.0  0.66200  0.17297  0.74009  1.0000
  S   S257      1.0  0.77063  0.00272  0.59471  1.0000
  H   H783      1.0  0.96637  0.20065  0.53435  1.0000
  C   C783      1.0  0.96522  0.24351  0.50285  1.0000
  H   H784      1.0  0.78663  0.09269  0.59974  1.0000
  H   H785      1.0  0.96748  0.24559  0.52568  1.0000
  H   H786      1.0  0.94736  0.13119  0.61224  1.0000
  C   C784      1.0  0.72833  0.02378  0.62257  1.0000
  S   S258      1.0  0.80487  0.00119  0.56737  1.0000
  N   N66       1.0  0.96751  0.18299  0.51462  1.0000
  H   H787      1.0  0.96219  0.33273  0.59761  1.0000
  S   S259      1.0  0.69997  0.99701  0.58935  1.0000
  C   C785      1.0  0.94815  0.11665  0.57754  1.0000
  C   C786      1.0  0.93840  0.11697  0.59100  1.0000
  C   C787      1.0  0.75003  0.00873  0.51415  1.0000
  H   H788      1.0  0.95203  0.16544  0.53419  1.0000
  H   H789      1.0  0.72017  0.04482  0.60553  1.0000
  H   H790      1.0  0.70260  0.18692  0.72657  1.0000
  H   H791      1.0  0.57396  0.10937  0.73242  1.0000
  S   S260      1.0  0.97705  0.20820  0.59140  1.0000
  H   H792      1.0  0.73852  0.24147  0.71706  1.0000
  C   C788      1.0  0.73525  0.04278  0.61202  1.0000
  H   H793      1.0  0.78807  0.20262  0.74093  1.0000
  C   C789      1.0  0.56475  0.00365  0.66585  1.0000
  S   S261      1.0  0.98005  0.27835  0.59959  1.0000
  H   H794      1.0  0.97655  0.30413  0.62545  1.0000
  C   C790      1.0  0.62166  0.99903  0.73182  1.0000
  H   H795      1.0  0.93515  0.10696  0.56889  1.0000
  N   N67       1.0  0.98113  0.14275  0.59955  1.0000
  Fe  Fe129     1.0  0.98546  0.24929  0.58398  1.0000
  H   H796      1.0  0.97377  0.36489  0.61721  1.0000
  H   H797      1.0  0.65587  0.99767  0.60430  1.0000
  C   C791      1.0  0.97450  0.12973  0.57514  1.0000
  H   H798      1.0  0.55241  0.99706  0.69246  1.0000
  H   H799      1.0  0.98581  0.36050  0.69298  1.0000
  H   H800      1.0  0.88982  0.24009  0.74181  1.0000
  H   H801      1.0  0.60587  0.06508  0.74215  1.0000
  H   H802      1.0  0.55168  0.99633  0.63061  1.0000
  C   C792      1.0  0.67670  0.19240  0.74154  1.0000
  C   C793      1.0  0.99083  0.14274  0.58633  1.0000
  H   H803      1.0  0.99132  0.14823  0.62147  1.0000
  C   C794      1.0  0.91246  0.45834  0.74252  1.0000
  S   S262      1.0  0.96633  0.25336  0.96275  1.0000
  S   S263      1.0  0.50600  0.37603  0.91286  1.0000
  H   H804      1.0  0.91977  0.27844  0.92517  1.0000
  C   C795      1.0  0.96234  0.30340  0.89735  1.0000
  Fe  Fe130     1.0  0.67718  0.10673  0.91486  1.0000
  S   S264      1.0  0.66559  0.13978  0.92083  1.0000
  S   S265      1.0  0.70641  0.10022  0.92978  1.0000
  Fe  Fe131     1.0  0.65001  0.10071  0.88587  1.0000
  S   S266      1.0  0.63760  0.13371  0.88995  1.0000
  S   S267      1.0  0.63290  0.07858  0.86564  1.0000
  Fe  Fe132     1.0  0.67753  0.15446  0.89890  1.0000
  S   S268      1.0  0.69930  0.19757  0.89475  1.0000
  Fe  Fe133     1.0  0.62670  0.11594  0.91130  1.0000
  S   S269      1.0  0.58912  0.11106  0.92212  1.0000
  S   S270      1.0  0.69104  0.12288  0.89311  1.0000
  S   S271      1.0  0.63722  0.08157  0.90705  1.0000
  Fe  Fe134     1.0  0.84472  0.31170  0.76379  1.0000
  S   S272      1.0  0.87585  0.29627  0.76212  1.0000
  H   H805      1.0  0.52358  0.04809  0.87004  1.0000
  Fe  Fe135     1.0  0.88392  0.36606  0.77269  1.0000
  S   S273      1.0  0.91771  0.35405  0.77171  1.0000
  S   S274      1.0  0.89307  0.40620  0.78200  1.0000
  N   N68       1.0  0.97390  0.33322  0.91702  1.0000
  Fe  Fe136     1.0  0.89115  0.31774  0.78254  1.0000
  S   S275      1.0  0.90078  0.29735  0.80108  1.0000
  S   S276      1.0  0.85877  0.33097  0.78485  1.0000
  Fe  Fe137     1.0  0.67170  0.11798  0.78452  1.0000
  S   S277      1.0  0.67692  0.15501  0.77299  1.0000
  S   S278      1.0  0.68597  0.12511  0.80735  1.0000
  Fe  Fe138     1.0  0.65640  0.08481  0.75708  1.0000
  Fe  Fe139     1.0  0.69770  0.14154  0.75679  1.0000
  C   C796      1.0  0.85259  0.43633  0.75704  1.0000
  Fe  Fe140     1.0  0.64078  0.13068  0.76123  1.0000
  H   H806      1.0  0.49348  0.41718  0.89964  1.0000
  S   S279      1.0  0.69430  0.10540  0.76870  1.0000
  S   S280      1.0  0.63346  0.09462  0.77405  1.0000
  H   H807      1.0  0.51273  0.27712  0.77404  1.0000
  Fe  Fe141     1.0  0.89339  0.32314  0.91428  1.0000
  S   S281      1.0  0.85090  0.31502  0.91491  1.0000
  S   S282      1.0  0.91647  0.32719  0.93479  1.0000
  Fe  Fe142     1.0  0.89479  0.32939  0.88186  1.0000
  S   S283      1.0  0.85256  0.32065  0.88031  1.0000
  S   S284      1.0  0.92123  0.34519  0.86316  1.0000
  Fe  Fe143     1.0  0.85967  0.34768  0.89905  1.0000
  S   S285      1.0  0.84262  0.37876  0.89773  1.0000
  Fe  Fe144     1.0  0.84789  0.28911  0.89616  1.0000
  S   S286      1.0  0.82165  0.24621  0.89440  1.0000
  S   S287      1.0  0.90215  0.35780  0.89989  1.0000
  S   S288      1.0  0.89015  0.29582  0.89627  1.0000
  C   C797      1.0  0.95599  0.32115  0.88938  1.0000
  H   H808      1.0  0.59118  0.11228  0.77815  1.0000
  C   C798      1.0  0.55569  0.46223  0.90248  1.0000
  C   C799      1.0  0.56674  0.44642  0.90894  1.0000
  C   C800      1.0  0.55135  0.42011  0.91206  1.0000
  C   C801      1.0  0.52479  0.40928  0.90873  1.0000
  C   C802      1.0  0.51381  0.42516  0.90231  1.0000
  C   C803      1.0  0.52914  0.45143  0.89926  1.0000
  H   H809      1.0  0.58710  0.45444  0.91155  1.0000
  H   H810      1.0  0.56009  0.40806  0.91703  1.0000
  H   H811      1.0  0.52034  0.46344  0.89430  1.0000
  C   C804      1.0  0.56562  0.45895  0.75245  1.0000
  H   H812      1.0  0.50648  0.27249  0.91531  1.0000
  C   C805      1.0  0.52467  0.42131  0.75421  1.0000
  C   C806      1.0  0.53358  0.41310  0.76636  1.0000
  C   C807      1.0  0.55860  0.42770  0.77143  1.0000
  C   C808      1.0  0.57450  0.45069  0.76459  1.0000
  H   H813      1.0  0.56563  0.42140  0.78080  1.0000
  H   H814      1.0  0.59365  0.46195  0.76865  1.0000
  C   C809      1.0  0.88696  0.46761  0.90222  1.0000
  C   C810      1.0  0.86182  0.45724  0.89671  1.0000
  C   C811      1.0  0.84884  0.43005  0.89490  1.0000
  C   C812      1.0  0.86082  0.41294  0.89855  1.0000
  C   C813      1.0  0.88625  0.42338  0.90360  1.0000
  C   C814      1.0  0.89919  0.45054  0.90545  1.0000
  H   H815      1.0  0.85216  0.47009  0.89416  1.0000
  H   H816      1.0  0.82918  0.42218  0.89097  1.0000
  H   H817      1.0  0.89570  0.41050  0.90652  1.0000
  H   H818      1.0  0.91862  0.45834  0.90972  1.0000
  C   C815      1.0  0.58054  0.13334  0.76194  1.0000
  C   C816      1.0  0.56020  0.13866  0.75598  1.0000
  C   C817      1.0  0.53493  0.12640  0.76116  1.0000
  C   C818      1.0  0.53000  0.10888  0.77239  1.0000
  C   C819      1.0  0.55049  0.10418  0.77859  1.0000
  C   C820      1.0  0.57564  0.11628  0.77336  1.0000
  H   H819      1.0  0.56639  0.45997  0.81265  1.0000
  H   H820      1.0  0.54606  0.05813  0.92601  1.0000
  C   C821      1.0  0.88051  0.42733  0.77406  1.0000
  C   C822      1.0  0.89002  0.45351  0.77837  1.0000
  C   C823      1.0  0.88121  0.47118  0.77187  1.0000
  C   C824      1.0  0.86263  0.46267  0.76111  1.0000
  H   H821      1.0  0.81031  0.40204  0.92384  1.0000
  C   C825      1.0  0.86162  0.41870  0.76345  1.0000
  H   H822      1.0  0.52411  0.02497  0.92215  1.0000
  H   H823      1.0  0.65119  0.99697  0.98810  1.0000
  C   C826      1.0  0.90416  0.31151  0.81812  1.0000
  C   C827      1.0  0.92077  0.33747  0.82047  1.0000
  C   C828      1.0  0.92570  0.34752  0.83433  1.0000
  C   C829      1.0  0.91348  0.33200  0.84591  1.0000
  C   C830      1.0  0.89612  0.30633  0.84352  1.0000
  C   C831      1.0  0.89187  0.29600  0.82969  1.0000
  H   H824      1.0  0.93060  0.34953  0.81167  1.0000
  H   H825      1.0  0.93918  0.36738  0.83607  1.0000
  H   H826      1.0  0.88667  0.29412  0.85235  1.0000
  H   H827      1.0  0.87920  0.27582  0.82798  1.0000
  C   C832      1.0  0.87537  0.15451  0.97521  1.0000
  C   C833      1.0  0.52594  0.04636  0.89277  1.0000
  C   C834      1.0  0.90593  0.20735  0.97614  1.0000
  H   H828      1.0  0.94164  0.45907  0.75753  1.0000
  N   N69       1.0  0.57305  0.07513  0.74297  1.0000
  Fe  Fe145     1.0  0.72697  0.00614  0.98918  1.0000
  C   C835      1.0  0.73329  0.21113  0.89372  1.0000
  C   C836      1.0  0.74664  0.23828  0.89473  1.0000
  C   C837      1.0  0.77380  0.24954  0.89452  1.0000
  C   C838      1.0  0.78769  0.23366  0.89306  1.0000
  C   C839      1.0  0.77426  0.20662  0.89148  1.0000
  C   C840      1.0  0.74718  0.19535  0.89194  1.0000
  H   H829      1.0  0.73596  0.25062  0.89598  1.0000
  H   H830      1.0  0.78397  0.27040  0.89572  1.0000
  H   H831      1.0  0.78492  0.19426  0.89025  1.0000
  H   H832      1.0  0.73712  0.17447  0.89097  1.0000
  C   C841      1.0  0.64812  0.09005  0.84932  1.0000
  C   C842      1.0  0.67407  0.10692  0.84879  1.0000
  C   C843      1.0  0.68559  0.11631  0.83572  1.0000
  C   C844      1.0  0.67116  0.10958  0.82310  1.0000
  C   C845      1.0  0.64522  0.09254  0.82360  1.0000
  C   C846      1.0  0.63382  0.08260  0.83668  1.0000
  H   H833      1.0  0.68534  0.11257  0.85843  1.0000
  H   H834      1.0  0.70573  0.12931  0.83541  1.0000
  H   H835      1.0  0.63393  0.08721  0.81395  1.0000
  H   H836      1.0  0.61375  0.06943  0.83701  1.0000
  C   C847      1.0  0.56153  0.11099  0.91292  1.0000
  C   C848      1.0  0.56012  0.11037  0.89816  1.0000
  C   C849      1.0  0.53672  0.10683  0.89125  1.0000
  C   C850      1.0  0.51457  0.10398  0.89898  1.0000
  C   C851      1.0  0.51629  0.10579  0.91371  1.0000
  C   C852      1.0  0.53967  0.10923  0.92063  1.0000
  H   H837      1.0  0.57677  0.11170  0.89209  1.0000
  H   H838      1.0  0.53561  0.10557  0.87985  1.0000
  C   C853      1.0  0.93822  0.29438  0.75462  1.0000
  H   H839      1.0  0.54062  0.10981  0.93205  1.0000
  C   C854      1.0  0.70094  0.03403  0.96071  1.0000
  C   C855      1.0  0.72310  0.05705  0.96018  1.0000
  C   C856      1.0  0.72431  0.07706  0.95072  1.0000
  C   C857      1.0  0.70335  0.07449  0.94175  1.0000
  C   C858      1.0  0.68104  0.05161  0.94243  1.0000
  C   C859      1.0  0.67992  0.03150  0.95181  1.0000
  C   C860      1.0  0.75572  0.20012  0.75375  1.0000
  H   H840      1.0  0.74168  0.09461  0.95030  1.0000
  H   H841      1.0  0.66480  0.04925  0.93559  1.0000
  C   C861      1.0  0.54960  0.07020  0.74900  1.0000
  C   C862      1.0  0.94949  0.27209  0.95592  1.0000
  C   C863      1.0  0.93908  0.26687  0.94214  1.0000
  C   C864      1.0  0.92736  0.28251  0.93584  1.0000
  C   C865      1.0  0.92654  0.30404  0.94311  1.0000
  C   C866      1.0  0.93649  0.30894  0.95698  1.0000
  C   C867      1.0  0.94764  0.29292  0.96342  1.0000
  H   H842      1.0  0.94036  0.25079  0.93624  1.0000
  H   H843      1.0  0.57821  0.49507  0.81294  1.0000
  H   H844      1.0  0.83455  0.47186  0.78482  1.0000
  C   C868      1.0  0.76118  0.24013  0.76632  1.0000
  C   C869      1.0  0.54076  0.44406  0.74722  1.0000
  S   S289      1.0  0.97400  0.20528  0.98912  1.0000
  H   H845      1.0  0.90459  0.46026  0.78661  1.0000
  C   C870      1.0  0.89697  0.16453  0.96657  1.0000
  C   C871      1.0  0.95864  0.34494  0.89537  1.0000
  H   H846      1.0  0.75139  0.23810  0.93004  1.0000
  H   H847      1.0  0.76227  0.13838  0.93069  1.0000
  H   H848      1.0  0.75329  0.25074  0.77312  1.0000
  H   H849      1.0  0.51924  0.13018  0.75635  1.0000
  H   H850      1.0  0.93608  0.32560  0.96270  1.0000
  H   H851      1.0  0.56910  0.05257  0.86659  1.0000
  N   N70       1.0  0.87918  0.38112  0.84770  1.0000
  C   C872      1.0  0.89133  0.40183  0.83898  1.0000
  C   C873      1.0  0.86823  0.35638  0.84228  1.0000
  C   C874      1.0  0.89215  0.39810  0.82439  1.0000
  C   C875      1.0  0.86867  0.35196  0.82774  1.0000
  C   C876      1.0  0.88071  0.37301  0.81878  1.0000
  C   C877      1.0  0.87878  0.38515  0.86300  1.0000
  H   H852      1.0  0.90054  0.42136  0.84328  1.0000
  H   H853      1.0  0.85953  0.33984  0.84923  1.0000
  H   H854      1.0  0.90171  0.41443  0.81741  1.0000
  H   H855      1.0  0.86036  0.33228  0.82349  1.0000
  H   H856      1.0  0.88157  0.36991  0.80751  1.0000
  H   H857      1.0  0.85945  0.37334  0.86737  1.0000
  H   H858      1.0  0.89339  0.37935  0.86830  1.0000
  H   H859      1.0  0.88293  0.40579  0.86576  1.0000
  C   C878      1.0  0.79570  0.23918  0.75165  1.0000
  C   C879      1.0  0.90085  0.24775  0.76374  1.0000
  C   C880      1.0  0.57890  0.04281  0.75775  1.0000
  H   H860      1.0  0.57855  0.05106  0.91148  1.0000
  C   C881      1.0  0.51640  0.45768  0.78211  1.0000
  H   H861      1.0  0.51209  0.47752  0.76334  1.0000
  H   H862      1.0  0.59072  0.03234  0.76108  1.0000
  H   H863      1.0  0.63930  0.13667  0.85764  1.0000
  C   C882      1.0  0.50520  0.32443  0.75487  1.0000
  H   H864      1.0  0.63165  0.16296  0.85047  1.0000
  H   H865      1.0  0.63261  0.13694  0.83926  1.0000
  H   H866      1.0  0.51641  0.31763  0.90837  1.0000
  H   H867      1.0  0.98276  0.32287  0.93760  1.0000
  H   H868      1.0  0.73945  0.05930  0.96691  1.0000
  C   C883      1.0  0.96748  0.35062  0.90932  1.0000
  H   H869      1.0  0.79565  0.23954  0.92632  1.0000
  H   H870      1.0  0.95357  0.35874  0.88925  1.0000
  S   S290      1.0  0.51391  0.38505  0.77567  1.0000
  C   C884      1.0  0.55536  0.03818  0.76424  1.0000
  H   H871      1.0  0.74201  0.20424  0.83978  1.0000
  H   H872      1.0  0.91528  0.26137  0.78455  1.0000
  H   H873      1.0  0.71226  0.18527  0.81938  1.0000
  S   S291      1.0  0.64150  0.04223  0.74930  1.0000
  H   H874      1.0  0.54682  0.09073  0.78732  1.0000
  H   H875      1.0  0.88238  0.46201  0.93669  1.0000
  H   H876      1.0  0.49939  0.10362  0.91980  1.0000
  H   H877      1.0  0.54877  0.02415  0.77275  1.0000
  H   H878      1.0  0.80033  0.47394  0.76906  1.0000
  C   C885      1.0  0.78575  0.25317  0.76043  1.0000
  N   N71       1.0  0.66926  0.16512  0.84597  1.0000
  C   C886      1.0  0.68537  0.17562  0.85724  1.0000
  C   C887      1.0  0.67856  0.16934  0.83249  1.0000
  C   C888      1.0  0.71172  0.19001  0.85518  1.0000
  C   C889      1.0  0.70486  0.18327  0.83006  1.0000
  C   C890      1.0  0.72152  0.19362  0.84150  1.0000
  C   C891      1.0  0.64181  0.14979  0.84843  1.0000
  H   H879      1.0  0.67796  0.17268  0.86792  1.0000
  H   H880      1.0  0.66591  0.16086  0.82352  1.0000
  H   H881      1.0  0.72443  0.19809  0.86417  1.0000
  H   H882      1.0  0.80885  0.48531  0.91243  1.0000
  H   H883      1.0  0.85534  0.41509  0.93243  1.0000
  H   H884      1.0  0.80191  0.19876  0.92207  1.0000
  C   C892      1.0  0.75443  0.22016  0.92873  1.0000
  C   C893      1.0  0.91763  0.26561  0.77334  1.0000
  H   H885      1.0  0.54707  0.48490  0.92772  1.0000
  S   S292      1.0  0.80120  0.28759  0.76242  1.0000
  H   H886      1.0  0.53925  0.34755  0.77532  1.0000
  C   C894      1.0  0.78265  0.19775  0.92422  1.0000
  H   H887      1.0  0.78481  0.15380  0.91669  1.0000
  H   H888      1.0  0.75097  0.13829  0.91287  1.0000
  H   H889      1.0  0.90204  0.15165  0.95973  1.0000
  C   C895      1.0  0.57637  0.05135  0.88883  1.0000
  C   C896      1.0  0.77925  0.22096  0.92670  1.0000
  C   C897      1.0  0.76534  0.15014  0.92089  1.0000
  N   N72       1.0  0.76186  0.17440  0.92379  1.0000
  H   H890      1.0  0.49783  0.44154  0.78088  1.0000
  C   C898      1.0  0.57806  0.48807  0.94187  1.0000
  H   H891      1.0  0.92939  0.19919  0.96045  1.0000
  H   H892      1.0  0.83808  0.42961  0.74878  1.0000
  C   C899      1.0  0.73756  0.17339  0.92616  1.0000
  C   C900      1.0  0.73342  0.19623  0.92853  1.0000
  C   C901      1.0  0.49285  0.31004  0.74292  1.0000
  C   C902      1.0  0.85196  0.47466  0.93090  1.0000
  C   C903      1.0  0.71466  0.24191  0.74515  1.0000
  H   H893      1.0  0.56389  0.15198  0.74719  1.0000
  C   C904      1.0  0.56105  0.05079  0.87711  1.0000
  H   H894      1.0  0.72118  0.15487  0.92590  1.0000
  H   H895      1.0  0.57176  0.46713  0.94308  1.0000
  N   N73       1.0  0.88483  0.19734  0.98466  1.0000
  C   C905      1.0  0.80539  0.48564  0.77865  1.0000
  H   H896      1.0  0.52234  0.04881  0.76492  1.0000
  H   H897      1.0  0.81443  0.24899  0.74691  1.0000
  N   N74       1.0  0.55685  0.47764  0.79450  1.0000
  C   C906      1.0  0.78066  0.21289  0.74823  1.0000
  H   H898      1.0  0.94869  0.31641  0.87864  1.0000
  H   H899      1.0  0.71395  0.19540  0.92973  1.0000
  S   S293      1.0  0.85219  0.48466  0.75230  1.0000
  C   C907      1.0  0.53101  0.04547  0.91853  1.0000
  N   N75       1.0  0.54138  0.04761  0.90422  1.0000
  C   C908      1.0  0.86964  0.17129  0.98430  1.0000
  S   S294      1.0  0.66174  0.11988  0.74381  1.0000
  H   H900      1.0  0.52684  0.44170  0.80057  1.0000
  H   H901      1.0  0.95569  0.29733  0.97398  1.0000
  C   C909      1.0  0.82187  0.42237  0.92621  1.0000
  H   H902      1.0  0.51484  0.05220  0.91893  1.0000
  S   S295      1.0  0.57350  0.49592  0.89897  1.0000
  C   C910      1.0  0.92185  0.27691  0.74474  1.0000
  H   H903      1.0  0.86365  0.13374  0.97528  1.0000
  H   H904      1.0  0.96893  0.36892  0.91400  1.0000
  Fe  Fe146     1.0  0.97549  0.24608  0.98565  1.0000
  H   H905      1.0  0.72732  0.20415  0.76753  1.0000
  H   H906      1.0  0.97282  0.31756  0.77456  1.0000
  C   C911      1.0  0.98467  0.34036  0.93129  1.0000
  Fe  Fe147     1.0  0.89978  0.33426  0.75133  1.0000
  C   C912      1.0  0.57437  0.47775  0.80605  1.0000
  H   H907      1.0  0.95507  0.29756  0.78886  1.0000
  H   H908      1.0  0.96760  0.37395  0.74303  1.0000
  C   C913      1.0  0.53561  0.04821  0.87906  1.0000
  C   C914      1.0  0.56625  0.04987  0.90240  1.0000
  S   S296      1.0  0.61155  0.14715  0.75448  1.0000
  S   S297      1.0  0.76312  0.99821  0.98657  1.0000
  H   H909      1.0  0.91818  0.22793  0.97653  1.0000
  H   H910      1.0  0.66270  0.01377  0.95208  1.0000
  H   H911      1.0  0.96002  0.28470  0.89284  1.0000
  N   N76       1.0  0.82708  0.46731  0.92614  1.0000
  H   H912      1.0  0.97651  0.29603  0.91732  1.0000
  C   C915      1.0  0.90307  0.25346  0.74935  1.0000
  H   H913      1.0  0.50541  0.41021  0.75023  1.0000
  H   H914      1.0  0.49931  0.32471  0.89414  1.0000
  C   C916      1.0  0.86233  0.45597  0.93350  1.0000
  C   C917      1.0  0.53299  0.45785  0.79322  1.0000
  C   C918      1.0  0.74640  0.21367  0.76317  1.0000
  C   C919      1.0  0.97157  0.30991  0.91119  1.0000
  N   N77       1.0  0.93624  0.28841  0.76870  1.0000
  C   C920      1.0  0.91232  0.19114  0.96698  1.0000
  H   H915      1.0  0.79245  0.43579  0.91986  1.0000
  H   H916      1.0  0.85402  0.39847  0.76016  1.0000
  H   H917      1.0  0.85341  0.48021  0.80923  1.0000
  C   C921      1.0  0.84718  0.42969  0.93108  1.0000
  C   C922      1.0  0.69216  0.23424  0.75320  1.0000
  H   H918      1.0  0.80020  0.48442  0.93083  1.0000
  H   H919      1.0  0.72961  0.26121  0.74678  1.0000
  H   H920      1.0  0.88580  0.22996  0.76751  1.0000
  N   N78       1.0  0.51263  0.31275  0.76577  1.0000
  H   H921      1.0  0.53812  0.08105  0.74580  1.0000
  C   C923      1.0  0.52471  0.32811  0.77836  1.0000
  C   C924      1.0  0.52440  0.47785  0.77227  1.0000
  C   C925      1.0  0.58745  0.06142  0.74705  1.0000
  C   C926      1.0  0.81203  0.44156  0.92383  1.0000
  C   C927      1.0  0.81624  0.48692  0.92346  1.0000
  S   S298      1.0  0.86724  0.34852  0.75162  1.0000
  H   H922      1.0  0.88894  0.49138  0.77515  1.0000
  H   H923      1.0  0.86426  0.49510  0.93230  1.0000
  C   C928      1.0  0.54049  0.05183  0.75980  1.0000
  H   H924      1.0  0.97408  0.35040  0.93713  1.0000
  H   H925      1.0  0.59610  0.05321  0.88735  1.0000
  H   H926      1.0  0.68968  0.24745  0.76092  1.0000
  S   S299      1.0  0.69856  0.00778  0.97215  1.0000
  C   C929      1.0  0.50773  0.28668  0.76522  1.0000
  S   S300      1.0  0.73570  0.16880  0.74704  1.0000
  H   H927      1.0  0.82542  0.01305  0.98451  1.0000
  C   C930      1.0  0.93463  0.47059  0.75070  1.0000
  H   H928      1.0  0.50982  0.33127  0.78487  1.0000
  H   H929      1.0  0.50846  0.34494  0.75546  1.0000
  C   C931      1.0  0.82482  0.48457  0.78762  1.0000
  C   C932      1.0  0.67307  0.20930  0.75134  1.0000
  H   H930      1.0  0.65553  0.20286  0.75755  1.0000
  H   H931      1.0  0.59308  0.47892  0.80169  1.0000
  C   C933      1.0  0.49574  0.27179  0.75334  1.0000
  S   S301      1.0  0.49847  0.09087  0.77836  1.0000
  H   H932      1.0  0.85353  0.16316  0.99146  1.0000
  C   C934      1.0  0.49470  0.26642  0.90583  1.0000
  H   H933      1.0  0.94494  0.32178  0.78165  1.0000
  S   S302      1.0  0.58469  0.48802  0.74373  1.0000
  H   H934      1.0  0.53475  0.31842  0.78494  1.0000
  C   C935      1.0  0.95318  0.30726  0.77891  1.0000
  H   H935      1.0  0.95214  0.31297  0.75094  1.0000
  H   H936      1.0  0.50632  0.04494  0.89421  1.0000
  H   H937      1.0  0.66698  0.49217  0.84877  1.0000
  C   C936      1.0  0.49721  0.31112  0.90309  1.0000
  H   H938      1.0  0.88832  0.23505  0.99181  1.0000
  H   H939      1.0  0.87562  0.08386  0.99175  1.0000
  H   H940      1.0  0.90229  0.43731  0.74292  1.0000
  H   H941      1.0  0.52290  0.79808  0.21535  1.0000
  H   H942      1.0  0.80356  0.67914  0.02067  1.0000
  S   S303      1.0  0.96683  0.72076  0.00177  1.0000
  H   H943      1.0  0.51975  0.94600  0.12173  1.0000
  Fe  Fe148     1.0  0.77887  0.75550  0.00434  1.0000
  C   C937      1.0  0.50103  0.58916  0.17914  1.0000
  H   H944      1.0  0.67691  0.93107  0.08292  1.0000
  H   H945      1.0  0.72340  0.67158  0.04017  1.0000
  H   H946      1.0  0.65634  0.89736  0.03413  1.0000
  S   S304      1.0  0.75043  0.92912  0.01003  1.0000
  H   H947      1.0  0.71625  0.95306  0.03821  1.0000
  Fe  Fe149     1.0  0.72164  0.73209  0.01374  1.0000
  H   H948      1.0  0.63279  0.89913  0.07697  1.0000
  S   S305      1.0  0.69821  0.70929  0.03268  1.0000
  H   H949      1.0  0.82504  0.71222  0.02423  1.0000
  C   C938      1.0  0.50128  0.61724  0.16024  1.0000
  S   S306      1.0  0.74798  0.71496  0.00369  1.0000
  S   S307      1.0  0.75355  0.77212  0.01595  1.0000
  Fe  Fe150     1.0  0.57333  0.91193  0.07940  1.0000
  S   S308      1.0  0.54611  0.86971  0.07733  1.0000
  S   S309      1.0  0.59388  0.92881  0.05856  1.0000
  Fe  Fe151     1.0  0.56152  0.91205  0.11112  1.0000
  S   S310      1.0  0.53479  0.86994  0.11114  1.0000
  S   S311      1.0  0.56610  0.93674  0.13091  1.0000
  Fe  Fe152     1.0  0.56424  0.86386  0.09743  1.0000
  S   S312      1.0  0.58009  0.83247  0.09968  1.0000
  Fe  Fe153     1.0  0.51861  0.87956  0.09111  1.0000
  S   S313      1.0  0.59281  0.90547  0.09898  1.0000
  S   S314      1.0  0.54401  0.92226  0.09160  1.0000
  S   S315      1.0  0.56173  0.68888  0.23240  1.0000
  C   C939      1.0  0.79293  0.72353  0.03979  1.0000
  S   S316      1.0  0.54396  0.63092  0.21818  1.0000
  Fe  Fe154     1.0  0.54535  0.67008  0.21151  1.0000
  S   S317      1.0  0.55493  0.69152  0.19055  1.0000
  H   H950      1.0  0.49552  0.75954  0.09568  1.0000
  Fe  Fe155     1.0  0.55528  0.89826  0.21503  1.0000
  S   S318      1.0  0.52093  0.86559  0.22405  1.0000
  S   S319      1.0  0.56148  0.88817  0.19233  1.0000
  S   S320      1.0  0.54971  0.92975  0.22812  1.0000
  C   C940      1.0  0.56246  0.74144  0.06938  1.0000
  Fe  Fe156     1.0  0.56486  0.67099  0.08051  1.0000
  S   S321      1.0  0.52371  0.66564  0.07601  1.0000
  S   S322      1.0  0.59049  0.69314  0.06203  1.0000
  Fe  Fe157     1.0  0.54984  0.65097  0.11084  1.0000
  S   S323      1.0  0.50824  0.64510  0.10812  1.0000
  S   S324      1.0  0.56145  0.63848  0.13177  1.0000
  Fe  Fe158     1.0  0.54874  0.86213  0.24032  1.0000
  H   H951      1.0  0.57779  0.78684  0.23862  1.0000
  Fe  Fe159     1.0  0.52455  0.68382  0.09713  1.0000
  S   S325      1.0  0.50575  0.71300  0.09829  1.0000
  S   S326      1.0  0.55185  0.63082  0.09028  1.0000
  S   S327      1.0  0.56607  0.69123  0.10136  1.0000
  C   C941      1.0  0.55667  0.67635  0.17433  1.0000
  C   C942      1.0  0.56232  0.65404  0.17384  1.0000
  C   C943      1.0  0.56431  0.64302  0.16072  1.0000
  C   C944      1.0  0.56007  0.65379  0.14799  1.0000
  C   C945      1.0  0.55401  0.67585  0.14850  1.0000
  C   C946      1.0  0.55261  0.68722  0.16161  1.0000
  H   H952      1.0  0.56574  0.64562  0.18355  1.0000
  H   H953      1.0  0.56904  0.62598  0.16043  1.0000
  H   H954      1.0  0.55075  0.68437  0.13879  1.0000
  H   H955      1.0  0.54837  0.70456  0.16187  1.0000
  N   N79       1.0  0.58552  0.76140  0.07239  1.0000
  S   S328      1.0  0.81983  0.76381  0.01292  1.0000
  H   H956      1.0  0.62249  0.77157  0.08233  1.0000
  S   S329      1.0  0.50458  0.66145  0.21771  1.0000
  C   C947      1.0  0.55846  0.79968  0.10115  1.0000
  C   C948      1.0  0.53205  0.79203  0.09844  1.0000
  C   C949      1.0  0.51584  0.76537  0.09805  1.0000
  C   C950      1.0  0.52597  0.74629  0.10028  1.0000
  C   C951      1.0  0.55222  0.75404  0.10343  1.0000
  C   C952      1.0  0.56837  0.78063  0.10391  1.0000
  H   H957      1.0  0.52425  0.80661  0.09630  1.0000
  H   H958      1.0  0.90854  0.76690  0.01564  1.0000
  H   H959      1.0  0.56017  0.73960  0.10542  1.0000
  H   H960      1.0  0.58874  0.78645  0.10613  1.0000
  C   C953      1.0  0.56177  0.90215  0.17547  1.0000
  C   C954      1.0  0.56202  0.92718  0.17368  1.0000
  C   C955      1.0  0.56340  0.93761  0.15998  1.0000
  C   C956      1.0  0.56427  0.92304  0.14798  1.0000
  C   C957      1.0  0.56349  0.89786  0.14978  1.0000
  C   C958      1.0  0.56241  0.88758  0.16345  1.0000
  H   H961      1.0  0.56173  0.93867  0.18284  1.0000
  H   H962      1.0  0.56411  0.95716  0.15869  1.0000
  H   H963      1.0  0.56428  0.88647  0.14068  1.0000
  H   H964      1.0  0.56233  0.86825  0.16471  1.0000
  C   C959      1.0  0.66818  0.70521  0.04064  1.0000
  C   C960      1.0  0.65992  0.68891  0.05253  1.0000
  C   C961      1.0  0.63631  0.68493  0.05922  1.0000
  C   C962      1.0  0.62055  0.69721  0.05411  1.0000
  C   C963      1.0  0.62886  0.71361  0.04226  1.0000
  C   C964      1.0  0.65247  0.71759  0.03557  1.0000
  H   H965      1.0  0.67181  0.67919  0.05658  1.0000
  H   H966      1.0  0.63028  0.67228  0.06830  1.0000
  H   H967      1.0  0.61688  0.72320  0.03816  1.0000
  H   H968      1.0  0.65846  0.73017  0.02646  1.0000
  C   C965      1.0  0.62646  0.94882  0.05455  1.0000
  C   C966      1.0  0.63492  0.94932  0.04057  1.0000
  C   C967      1.0  0.66039  0.96519  0.03672  1.0000
  H   H969      1.0  0.62248  0.88250  0.05244  1.0000
  H   H970      1.0  0.55297  0.83884  0.20779  1.0000
  H   H971      1.0  0.97906  0.83844  0.01038  1.0000
  H   H972      1.0  0.62164  0.93727  0.03264  1.0000
  H   H973      1.0  0.66644  0.96542  0.02589  1.0000
  H   H974      1.0  0.71005  0.94628  0.06425  1.0000
  H   H975      1.0  0.86916  0.77101  0.02506  1.0000
  C   C968      1.0  0.74862  0.87893  0.01190  1.0000
  C   C969      1.0  0.56825  0.83134  0.20568  1.0000
  H   H976      1.0  0.51480  0.89675  0.13363  1.0000
  C   C970      1.0  0.64769  0.90527  0.06896  1.0000
  C   C971      1.0  0.50479  0.57166  0.16970  1.0000
  N   N80       1.0  0.68518  0.92257  0.04815  1.0000
  C   C972      1.0  0.66917  0.98089  0.06075  1.0000
  C   C973      1.0  0.49671  0.63006  0.18460  1.0000
  H   H977      1.0  0.55621  0.73871  0.23999  1.0000
  C   C974      1.0  0.80488  0.69953  0.02123  1.0000
  C   C975      1.0  0.69106  0.93177  0.06168  1.0000
  H   H978      1.0  0.80102  0.70567  0.01057  1.0000
  C   C976      1.0  0.74546  0.89768  0.00292  1.0000
  C   C977      1.0  0.67760  0.98133  0.04675  1.0000
  C   C978      1.0  0.74980  0.70779  0.04908  1.0000
  N   N81       1.0  0.78627  0.70195  0.03130  1.0000
  C   C979      1.0  0.76170  0.68329  0.03147  1.0000
  C   C980      1.0  0.66108  0.90458  0.04486  1.0000
  H   H979      1.0  0.81217  0.73873  0.03938  1.0000
  H   H980      1.0  0.68225  0.99339  0.06861  1.0000
  H   H981      1.0  0.57457  0.75364  0.19381  1.0000
  H   H982      1.0  0.51056  0.56435  0.14786  1.0000
  H   H983      1.0  0.79715  0.92566  0.02287  1.0000
  N   N82       1.0  0.49955  0.61169  0.17436  1.0000
  Fe  Fe160     1.0  0.74070  0.78005  0.99445  1.0000
  H   H984      1.0  0.57751  0.84040  0.19562  1.0000
  H   H985      1.0  0.93758  0.81195  0.99857  1.0000
  S   S330      1.0  0.58308  0.89415  0.23106  1.0000
  H   H986      1.0  0.71865  0.92161  0.03835  1.0000
  H   H987      1.0  0.69674  0.92793  0.02645  1.0000
  C   C981      1.0  0.56654  0.79257  0.06794  1.0000
  C   C982      1.0  0.54072  0.74655  0.06588  1.0000
  C   C983      1.0  0.54279  0.77230  0.06523  1.0000
  H   H988      1.0  0.56812  0.81263  0.06804  1.0000
  H   H989      1.0  0.52223  0.73057  0.06418  1.0000
  H   H990      1.0  0.52588  0.77654  0.06308  1.0000
  H   H991      1.0  0.63757  0.96458  0.07545  1.0000
  C   C984      1.0  0.58786  0.78674  0.07152  1.0000
  H   H992      1.0  0.60206  0.73772  0.08287  1.0000
  H   H993      1.0  0.56061  0.72138  0.07005  1.0000
  Fe  Fe161     1.0  0.50371  0.62318  0.22549  1.0000
  H   H994      1.0  0.49965  0.58484  0.19037  1.0000
  H   H995      1.0  0.53187  0.72745  0.20395  1.0000
  H   H996      1.0  0.60594  0.80261  0.07417  1.0000
  H   H997      1.0  0.50746  0.60515  0.13937  1.0000
  H   H998      1.0  0.51299  0.63587  0.19228  1.0000
  Fe  Fe162     1.0  0.51726  0.89643  0.23823  1.0000
  C   C985      1.0  0.74317  0.68585  0.04041  1.0000
  C   C986      1.0  0.60794  0.75547  0.07618  1.0000
  H   H999      1.0  0.61694  0.75170  0.06647  1.0000
  C   C987      1.0  0.84760  0.76060  0.00551  1.0000
  C   C988      1.0  0.67243  0.92324  0.07229  1.0000
  H   H1000     1.0  0.75607  0.66670  0.02435  1.0000
  S   S331      1.0  0.71024  0.97351  0.00498  1.0000
  C   C989      1.0  0.86951  0.76539  0.01415  1.0000
  C   C990      1.0  0.70513  0.93166  0.03729  1.0000
  C   C991      1.0  0.77481  0.72681  0.04877  1.0000
  N   N83       1.0  0.81535  0.95100  0.00607  1.0000
  H   H1001     1.0  0.50636  0.55403  0.17358  1.0000
  C   C992      1.0  0.74590  0.85412  0.00677  1.0000
  C   C993      1.0  0.55759  0.77790  0.24136  1.0000
  H   H1002     1.0  0.51853  0.94171  0.14059  1.0000
  H   H1003     1.0  0.77992  0.74432  0.05514  1.0000
  C   C994      1.0  0.64382  0.96460  0.06467  1.0000
  H   H1004     1.0  0.74836  0.84002  0.01385  1.0000
  H   H1005     1.0  0.83309  0.97681  0.02322  1.0000
  H   H1006     1.0  0.50583  0.74984  0.21478  1.0000
  C   C995      1.0  0.89196  0.76312  0.00883  1.0000
  C   C996      1.0  0.52430  0.76116  0.21002  1.0000
  Fe  Fe163     1.0  0.74777  0.96815  0.00387  1.0000
  C   C997      1.0  0.82701  0.97503  0.01224  1.0000
  H   H1007     1.0  0.58260  0.83812  0.21444  1.0000
  C   C998      1.0  0.49509  0.89325  0.13062  1.0000
  N   N84       1.0  0.55771  0.80280  0.20473  1.0000
  C   C999      1.0  0.57226  0.79065  0.19890  1.0000
  C   C1000     1.0  0.53405  0.78844  0.21029  1.0000
  C   C1001     1.0  0.56307  0.76338  0.19842  1.0000
  C   C1002     1.0  0.64193  0.89585  0.05517  1.0000
  C   C1003     1.0  0.97855  0.83571  0.99902  1.0000
  H   H1008     1.0  0.73523  0.71045  0.05561  1.0000
  H   H1009     1.0  0.59115  0.80206  0.19466  1.0000
  H   H1010     1.0  0.75318  0.88357  0.02294  1.0000
  C   C1004     1.0  0.53898  0.74860  0.20406  1.0000
  Fe  Fe164     1.0  0.51079  0.62721  0.08725  1.0000
  C   C1005     1.0  0.50697  0.57735  0.15530  1.0000
  C   C1006     1.0  0.89291  0.75618  0.99469  1.0000
  Fe  Fe165     1.0  0.55647  0.64856  0.23992  1.0000
  Fe  Fe166     1.0  0.52061  0.67755  0.23889  1.0000
  C   C1007     1.0  0.50501  0.60016  0.15050  1.0000
  C   C1008     1.0  0.50661  0.94034  0.13095  1.0000
  H   H1011     1.0  0.49741  0.95458  0.13215  1.0000
  H   H1012     1.0  0.61293  0.97631  0.00352  1.0000
  C   C1009     1.0  0.63030  0.99150  0.00769  1.0000
  H   H1013     1.0  0.50088  0.63545  0.15646  1.0000
  C   C1010     1.0  0.54537  0.75061  0.24207  1.0000
  H   H1014     1.0  0.82992  0.92903  0.01935  1.0000
  C   C1011     1.0  0.81145  0.92767  0.01445  1.0000
  H   H1015     1.0  0.80387  0.90961  0.00792  1.0000
  Fe  Fe167     1.0  0.96143  0.75628  0.99362  1.0000
  H   H1016     1.0  0.49715  0.64823  0.17957  1.0000
  H   H1017     1.0  0.61479  0.99058  0.02843  1.0000
  S   S332      1.0  0.70735  0.74065  0.99278  1.0000
  N   N85       1.0  0.82029  0.95087  0.41226  1.0000
  N   N86       1.0  0.98234  0.66943  0.30633  1.0000
  H   H1018     1.0  0.95427  0.61880  0.26476  1.0000
  H   H1019     1.0  0.92884  0.79248  0.47186  1.0000
  S   S333      1.0  0.51589  0.63817  0.24765  1.0000
  C   C1012     1.0  0.56965  0.52336  0.31118  1.0000
  C   C1013     1.0  0.83736  0.92859  0.42862  1.0000
  S   S334      1.0  0.54183  0.88991  0.25549  1.0000
  S   S335      1.0  0.60336  0.94868  0.26147  1.0000
  H   H1020     1.0  0.92552  0.58081  0.38544  1.0000
  C   C1014     1.0  0.98508  0.81242  0.48361  1.0000
  H   H1021     1.0  0.57367  0.97908  0.29661  1.0000
  Fe  Fe168     1.0  0.62460  0.53659  0.33909  1.0000
  S   S336      1.0  0.64096  0.55459  0.31806  1.0000
  Fe  Fe169     1.0  0.65717  0.58929  0.35464  1.0000
  S   S337      1.0  0.67318  0.60953  0.33430  1.0000
  S   S338      1.0  0.67365  0.60926  0.37602  1.0000
  Fe  Fe170     1.0  0.63304  0.58924  0.32517  1.0000
  S   S339      1.0  0.60671  0.60632  0.31400  1.0000
  Fe  Fe171     1.0  0.67994  0.57307  0.32906  1.0000
  S   S340      1.0  0.71947  0.57873  0.31940  1.0000
  S   S341      1.0  0.61619  0.57115  0.34608  1.0000
  S   S342      1.0  0.66441  0.55289  0.34950  1.0000
  Fe  Fe172     1.0  0.86468  0.56954  0.33186  1.0000
  S   S343      1.0  0.88568  0.55858  0.34966  1.0000
  S   S344      1.0  0.82312  0.56359  0.33854  1.0000
  Fe  Fe173     1.0  0.91402  0.58739  0.31364  1.0000
  S   S345      1.0  0.93699  0.57786  0.33045  1.0000
  S   S346      1.0  0.93217  0.60449  0.29235  1.0000
  Fe  Fe174     1.0  0.90208  0.54029  0.33325  1.0000
  Fe  Fe175     1.0  0.91865  0.59673  0.34552  1.0000
  S   S347      1.0  0.94357  0.62119  0.36376  1.0000
  S   S348      1.0  0.87950  0.54887  0.31553  1.0000
  S   S349      1.0  0.89738  0.60868  0.32855  1.0000
  Fe  Fe176     1.0  0.96983  0.79761  0.42748  1.0000
  S   S350      1.0  0.94107  0.81686  0.42626  1.0000
  S   S351      1.0  0.95467  0.75449  0.42977  1.0000
  Fe  Fe177     1.0  0.76214  0.97614  0.42680  1.0000
  H   H1022     1.0  0.95940  0.66342  0.28759  1.0000
  S   S352      1.0  0.75052  0.93544  0.41731  1.0000
  H   H1023     1.0  0.85230  0.99137  0.43892  1.0000
  S   S353      1.0  0.96110  0.73102  0.39274  1.0000
  H   H1024     1.0  0.82860  0.99091  0.41689  1.0000
  Fe  Fe178     1.0  0.74254  0.75528  0.45134  1.0000
  S   S354      1.0  0.78312  0.78437  0.45203  1.0000
  S   S355      1.0  0.71758  0.74866  0.47080  1.0000
  Fe  Fe179     1.0  0.74357  0.74771  0.41916  1.0000
  S   S356      1.0  0.78459  0.77785  0.41766  1.0000
  S   S357      1.0  0.71991  0.72725  0.39948  1.0000
  Fe  Fe180     1.0  0.79162  0.75800  0.43692  1.0000
  S   S358      1.0  0.82502  0.74580  0.44071  1.0000
  Fe  Fe181     1.0  0.77257  0.80231  0.43295  1.0000
  S   S359      1.0  0.78785  0.84638  0.43677  1.0000
  S   S360      1.0  0.75135  0.72670  0.43774  1.0000
  S   S361      1.0  0.73118  0.77409  0.43292  1.0000
  C   C1015     1.0  0.75842  0.90963  0.42390  1.0000
  C   C1016     1.0  0.77315  0.91229  0.43621  1.0000
  C   C1017     1.0  0.78097  0.89215  0.44034  1.0000
  C   C1018     1.0  0.77403  0.86911  0.43231  1.0000
  C   C1019     1.0  0.75854  0.86608  0.42029  1.0000
  C   C1020     1.0  0.75088  0.88629  0.41609  1.0000
  H   H1025     1.0  0.77903  0.93009  0.44234  1.0000
  H   H1026     1.0  0.79298  0.89472  0.44965  1.0000
  H   H1027     1.0  0.75317  0.84855  0.41396  1.0000
  H   H1028     1.0  0.73939  0.88400  0.40659  1.0000
  C   C1021     1.0  0.87980  0.59513  0.37851  1.0000
  C   C1022     1.0  0.98489  0.61558  0.29527  1.0000
  S   S362      1.0  0.78489  0.99076  0.44684  1.0000
  H   H1029     1.0  0.87349  0.69791  0.41775  1.0000
  H   H1030     1.0  0.55663  0.93908  0.28195  1.0000
  C   C1023     1.0  0.90910  0.79854  0.43171  1.0000
  C   C1024     1.0  0.90289  0.77511  0.43900  1.0000
  C   C1025     1.0  0.87712  0.75971  0.44220  1.0000
  C   C1026     1.0  0.85727  0.76770  0.43831  1.0000
  C   C1027     1.0  0.86347  0.79171  0.43157  1.0000
  C   C1028     1.0  0.88935  0.80707  0.42827  1.0000
  H   H1031     1.0  0.91787  0.76872  0.44217  1.0000
  H   H1032     1.0  0.87249  0.74125  0.44749  1.0000
  H   H1033     1.0  0.84829  0.79808  0.42854  1.0000
  H   H1034     1.0  0.89401  0.82535  0.42278  1.0000
  H   H1035     1.0  0.92187  0.60833  0.39356  1.0000
  H   H1036     1.0  0.88146  0.78201  0.39705  1.0000
  C   C1029     1.0  0.94793  0.65172  0.37167  1.0000
  C   C1030     1.0  0.96412  0.66018  0.38363  1.0000
  C   C1031     1.0  0.96822  0.68418  0.39032  1.0000
  C   C1032     1.0  0.95629  0.70017  0.38505  1.0000
  C   C1033     1.0  0.50579  0.75471  0.24880  1.0000
  C   C1034     1.0  0.93574  0.66755  0.36648  1.0000
  H   H1037     1.0  0.83323  0.52306  0.38165  1.0000
  H   H1038     1.0  0.98009  0.69696  0.29150  1.0000
  C   C1035     1.0  0.59243  0.70731  0.26473  1.0000
  H   H1039     1.0  0.92320  0.66139  0.35732  1.0000
  C   C1036     1.0  0.68698  0.64239  0.38210  1.0000
  C   C1037     1.0  0.68389  0.66269  0.37466  1.0000
  C   C1038     1.0  0.69443  0.68846  0.38004  1.0000
  C   C1039     1.0  0.70844  0.69450  0.39286  1.0000
  C   C1040     1.0  0.71187  0.67426  0.40021  1.0000
  C   C1041     1.0  0.70107  0.64843  0.39491  1.0000
  H   H1040     1.0  0.67301  0.65850  0.36485  1.0000
  H   H1041     1.0  0.69152  0.70384  0.37425  1.0000
  H   H1042     1.0  0.72252  0.67845  0.41009  1.0000
  H   H1043     1.0  0.70363  0.63297  0.40080  1.0000
  C   C1042     1.0  0.74758  0.57308  0.32471  1.0000
  C   C1043     1.0  0.76934  0.58157  0.31586  1.0000
  C   C1044     1.0  0.79245  0.57876  0.31981  1.0000
  C   C1045     1.0  0.79427  0.56735  0.33273  1.0000
  C   C1046     1.0  0.77251  0.55890  0.34160  1.0000
  C   C1047     1.0  0.74937  0.56164  0.33763  1.0000
  H   H1044     1.0  0.76832  0.59041  0.30583  1.0000
  H   H1045     1.0  0.80882  0.58534  0.31280  1.0000
  H   H1046     1.0  0.77345  0.54990  0.35158  1.0000
  H   H1047     1.0  0.73292  0.55491  0.34458  1.0000
  C   C1048     1.0  0.61222  0.98079  0.26848  1.0000
  C   C1049     1.0  0.51954  0.73890  0.24606  1.0000
  C   C1050     1.0  0.91288  0.58676  0.39238  1.0000
  C   C1051     1.0  0.82372  0.92883  0.41624  1.0000
  H   H1048     1.0  0.92786  0.79465  0.39700  1.0000
  H   H1049     1.0  0.98108  0.61027  0.30625  1.0000
  C   C1052     1.0  0.59320  0.63117  0.26898  1.0000
  C   C1053     1.0  0.61507  0.62559  0.27196  1.0000
  C   C1054     1.0  0.61952  0.61777  0.28559  1.0000
  C   C1055     1.0  0.60243  0.61607  0.29655  1.0000
  C   C1056     1.0  0.58055  0.62165  0.29357  1.0000
  C   C1057     1.0  0.57572  0.62872  0.27986  1.0000
  H   H1050     1.0  0.62875  0.62739  0.26365  1.0000
  H   H1051     1.0  0.63639  0.61349  0.28765  1.0000
  H   H1052     1.0  0.56712  0.62033  0.30193  1.0000
  H   H1053     1.0  0.55857  0.63242  0.27778  1.0000
  H   H1054     1.0  0.77608  0.79496  0.48263  1.0000
  C   C1058     1.0  0.58331  0.51306  0.30245  1.0000
  C   C1059     1.0  0.54518  0.74638  0.27839  1.0000
  C   C1060     1.0  0.97861  0.67652  0.29182  1.0000
  H   H1055     1.0  0.94235  0.65617  0.31130  1.0000
  S   S363      1.0  0.97396  0.74138  0.46603  1.0000
  H   H1056     1.0  0.79673  0.96483  0.39974  1.0000
  H   H1057     1.0  0.74746  0.84076  0.46917  1.0000
  C   C1061     1.0  0.96439  0.61328  0.28617  1.0000
  C   C1062     1.0  0.96991  0.62041  0.27192  1.0000
  C   C1063     1.0  0.60199  0.73449  0.26483  1.0000
  H   H1058     1.0  0.77183  0.98608  0.47948  1.0000
  H   H1059     1.0  0.84994  0.59996  0.36571  1.0000
  N   N87       1.0  0.88698  0.57809  0.38610  1.0000
  H   H1060     1.0  0.62946  0.97204  0.28714  1.0000
  C   C1064     1.0  0.92502  0.77387  0.39565  1.0000
  H   H1061     1.0  0.89318  0.61517  0.37711  1.0000
  H   H1062     1.0  0.60124  0.51571  0.28218  1.0000
  C   C1065     1.0  0.94001  0.69164  0.37311  1.0000
  H   H1063     1.0  0.94146  0.77158  0.40116  1.0000
  C   C1066     1.0  0.85590  0.74667  0.40673  1.0000
  C   C1067     1.0  0.84441  0.97365  0.43262  1.0000
  N   N88       1.0  0.67765  0.68857  0.44375  1.0000
  C   C1068     1.0  0.67093  0.66822  0.43437  1.0000
  C   C1069     1.0  0.67806  0.71223  0.43956  1.0000
  C   C1070     1.0  0.66369  0.67109  0.42050  1.0000
  C   C1071     1.0  0.67129  0.71587  0.42572  1.0000
  C   C1072     1.0  0.66394  0.69510  0.41618  1.0000
  C   C1073     1.0  0.68582  0.68560  0.45815  1.0000
  H   H1064     1.0  0.67134  0.64968  0.43751  1.0000
  H   H1065     1.0  0.68397  0.72854  0.44688  1.0000
  H   H1066     1.0  0.65872  0.65509  0.41299  1.0000
  H   H1067     1.0  0.67242  0.73485  0.42228  1.0000
  H   H1068     1.0  0.65946  0.69793  0.40529  1.0000
  H   H1069     1.0  0.70723  0.69439  0.45896  1.0000
  H   H1070     1.0  0.67808  0.69571  0.46588  1.0000
  H   H1071     1.0  0.67886  0.66482  0.46133  1.0000
  H   H1072     1.0  0.77245  0.82947  0.46560  1.0000
  H   H1073     1.0  0.53175  0.69493  0.27599  1.0000
  N   N89       1.0  0.74162  0.62864  0.35252  1.0000
  C   C1074     1.0  0.75923  0.62681  0.34316  1.0000
  C   C1075     1.0  0.72924  0.64498  0.34989  1.0000
  C   C1076     1.0  0.76438  0.64111  0.33062  1.0000
  C   C1077     1.0  0.73412  0.65980  0.33753  1.0000
  C   C1078     1.0  0.75161  0.65758  0.32777  1.0000
  C   C1079     1.0  0.73443  0.61162  0.36490  1.0000
  H   H1074     1.0  0.76883  0.61364  0.34512  1.0000
  H   H1075     1.0  0.71484  0.64594  0.35713  1.0000
  H   H1076     1.0  0.77745  0.63859  0.32295  1.0000
  H   H1077     1.0  0.72370  0.67217  0.33534  1.0000
  H   H1078     1.0  0.75488  0.66820  0.31790  1.0000
  H   H1079     1.0  0.73100  0.62208  0.37418  1.0000
  H   H1080     1.0  0.71628  0.59450  0.36258  1.0000
  H   H1081     1.0  0.74966  0.60450  0.36785  1.0000
  Fe  Fe182     1.0  0.57443  0.92237  0.24508  1.0000
  N   N90       1.0  0.75729  0.82099  0.48634  1.0000
  C   C1080     1.0  0.56858  0.55232  0.29306  1.0000
  C   C1081     1.0  0.87061  0.55248  0.38721  1.0000
  H   H1082     1.0  0.95453  0.78633  0.46346  1.0000
  C   C1082     1.0  0.72838  0.74333  0.48765  1.0000
  H   H1083     1.0  0.54854  0.75030  0.28988  1.0000
  C   C1083     1.0  0.87962  0.76327  0.40124  1.0000
  C   C1084     1.0  0.87489  0.71605  0.41294  1.0000
  C   C1085     1.0  0.55223  0.95583  0.27921  1.0000
  C   C1086     1.0  0.75391  0.82460  0.47123  1.0000
  C   C1087     1.0  0.85367  0.72310  0.41279  1.0000
  C   C1088     1.0  0.56708  0.69307  0.26883  1.0000
  C   C1089     1.0  0.96503  0.65405  0.32924  1.0000
  H   H1084     1.0  0.60444  0.69718  0.26129  1.0000
  C   C1090     1.0  0.76567  0.99240  0.48907  1.0000
  C   C1091     1.0  0.83840  0.56077  0.37345  1.0000
  H   H1085     1.0  0.79063  0.93140  0.39719  1.0000
  C   C1092     1.0  0.80636  0.95084  0.39912  1.0000
  H   H1086     1.0  0.94872  0.64658  0.33628  1.0000
  H   H1087     1.0  0.85787  0.95109  0.44663  1.0000
  C   C1093     1.0  0.84603  0.54346  0.38098  1.0000
  H   H1088     1.0  0.56286  0.56762  0.28924  1.0000
  H   H1089     1.0  0.55939  0.67196  0.26849  1.0000
  H   H1090     1.0  0.81518  0.91099  0.41010  1.0000
  C   C1094     1.0  0.83080  0.97323  0.42014  1.0000
  C   C1095     1.0  0.85539  0.58674  0.37211  1.0000
  C   C1096     1.0  0.58260  0.54280  0.28413  1.0000
  C   C1097     1.0  0.55160  0.70621  0.27306  1.0000
  H   H1091     1.0  0.52248  0.97685  0.25365  1.0000
  H   H1092     1.0  0.92584  0.76933  0.38430  1.0000
  H   H1093     1.0  0.97371  0.64817  0.38774  1.0000
  S   S364      1.0  0.58930  0.64203  0.25169  1.0000
  C   C1098     1.0  0.51781  0.78205  0.24764  1.0000
  C   C1099     1.0  0.59008  0.52309  0.28891  1.0000
  H   H1094     1.0  0.98083  0.69042  0.39946  1.0000
  C   C1100     1.0  0.84760  0.95112  0.43689  1.0000
  C   C1101     1.0  0.94332  0.78371  0.47336  1.0000
  H   H1095     1.0  0.58787  0.55095  0.27366  1.0000
  N   N91       1.0  0.56280  0.54299  0.30650  1.0000
  N   N92       1.0  0.56116  0.73287  0.27319  1.0000
  H   H1096     1.0  0.62160  0.74572  0.26150  1.0000
  S   S365      1.0  0.91201  0.50438  0.33738  1.0000
  H   H1097     1.0  0.81984  0.95600  0.39009  1.0000
  H   H1098     1.0  0.55971  0.55942  0.32624  1.0000
  C   C1102     1.0  0.56195  0.97859  0.28740  1.0000
  Fe  Fe183     1.0  0.98738  0.76228  0.44517  1.0000
  H   H1099     1.0  0.50715  0.79408  0.24991  1.0000
  H   H1100     1.0  0.59713  0.99599  0.25132  1.0000
  H   H1101     1.0  0.83967  0.75259  0.40696  1.0000
  H   H1102     1.0  0.91459  0.72725  0.40718  1.0000
  C   C1103     1.0  0.58603  0.74704  0.26919  1.0000
  C   C1104     1.0  0.74837  0.73455  0.48920  1.0000
  H   H1103     1.0  0.83926  0.91075  0.43194  1.0000
  H   H1104     1.0  0.75774  0.73103  0.47995  1.0000
  N   N93       1.0  0.90045  0.75641  0.40165  1.0000
  C   C1105     1.0  0.89818  0.73290  0.40710  1.0000
  H   H1105     1.0  0.83572  0.71076  0.41773  1.0000
  H   H1106     1.0  0.59356  0.76819  0.26923  1.0000
  H   H1107     1.0  0.73939  0.80638  0.46660  1.0000
  H   H1108     1.0  0.56486  0.51584  0.32180  1.0000
  C   C1106     1.0  0.76931  0.80499  0.49046  1.0000
  C   C1107     1.0  0.62503  0.98683  0.28166  1.0000
  H   H1109     1.0  0.52432  0.73453  0.27649  1.0000
  H   H1110     1.0  0.91225  0.57824  0.40303  1.0000
  C   C1108     1.0  0.96166  0.65979  0.31517  1.0000
  H   H1111     1.0  0.81965  0.55388  0.36823  1.0000
  N   N94       1.0  0.96004  0.79559  0.48555  1.0000
  H   H1112     1.0  0.93339  0.76230  0.47486  1.0000
  H   H1113     1.0  0.58913  0.49783  0.30635  1.0000
  C   C1109     1.0  0.54899  0.55369  0.31604  1.0000
  H   H1114     1.0  0.87667  0.53877  0.39275  1.0000
  C   C1110     1.0  0.53796  0.95524  0.26702  1.0000
  H   H1115     1.0  0.53067  0.93788  0.26045  1.0000
  S   S366      1.0  0.50483  0.70501  0.24918  1.0000
  S   S367      1.0  0.56086  0.82790  0.24368  1.0000
  H   H1116     1.0  0.54963  0.76514  0.27276  1.0000
  S   S368      1.0  0.73271  0.99341  0.43153  1.0000
  C   C1111     1.0  0.53347  0.97725  0.26318  1.0000
  H   H1117     1.0  0.93070  0.70384  0.36891  1.0000
  H   H1118     1.0  0.52926  0.53899  0.31799  1.0000
  H   H1119     1.0  0.54764  0.57165  0.31171  1.0000
  Fe  Fe184     1.0  0.98160  0.75472  0.41242  1.0000
  C   C1112     1.0  0.54391  0.79375  0.24415  1.0000
  C   C1113     1.0  0.98960  0.65787  0.33421  1.0000
  C   C1114     1.0  0.98972  0.75295  0.48240  1.0000
  Fe  Fe185     1.0  0.77666  0.97204  0.58165  1.0000
  S   S369      1.0  0.78213  0.93799  0.59193  1.0000
  S   S370      1.0  0.74208  0.96449  0.56779  1.0000
  H   H1120     1.0  0.87455  0.73505  0.53611  1.0000
  C   C1115     1.0  0.61438  0.86328  0.65409  1.0000
  Fe  Fe186     1.0  0.96108  0.78288  0.55973  1.0000
  S   S371      1.0  0.92069  0.77689  0.55173  1.0000
  C   C1116     1.0  0.49441  0.70210  0.67378  1.0000
  Fe  Fe187     1.0  0.75829  0.80445  0.56021  1.0000
  S   S372      1.0  0.72274  0.76833  0.55658  1.0000
  S   S373      1.0  0.76165  0.84260  0.55057  1.0000
  Fe  Fe188     1.0  0.78718  0.77532  0.57516  1.0000
  S   S374      1.0  0.75331  0.73680  0.57335  1.0000
  S   S375      1.0  0.82550  0.78156  0.58581  1.0000
  Fe  Fe189     1.0  0.75051  0.74980  0.55097  1.0000
  S   S376      1.0  0.75310  0.72675  0.53173  1.0000
  Fe  Fe190     1.0  0.72814  0.75855  0.57931  1.0000
  S   S377      1.0  0.69647  0.75408  0.59559  1.0000
  S   S378      1.0  0.78554  0.78692  0.55276  1.0000
  S   S379      1.0  0.76273  0.79616  0.58295  1.0000
  S   S380      1.0  0.77630  0.98637  0.53120  1.0000
  H   H1121     1.0  0.83958  0.72216  0.58796  1.0000
  H   H1122     1.0  0.73780  0.55202  0.72661  1.0000
  H   H1123     1.0  0.60048  0.57073  0.69566  1.0000
  Fe  Fe191     1.0  0.53804  0.91141  0.66020  1.0000
  S   S381      1.0  0.54657  0.90803  0.68319  1.0000
  Fe  Fe192     1.0  0.59445  0.91999  0.65131  1.0000
  S   S382      1.0  0.60563  0.91756  0.67398  1.0000
  S   S383      1.0  0.62599  0.92047  0.63575  1.0000
  Fe  Fe193     1.0  0.56759  0.88291  0.67544  1.0000
  S   S384      1.0  0.56729  0.84542  0.68595  1.0000
  Fe  Fe194     1.0  0.58397  0.94277  0.67959  1.0000
  H   H1124     1.0  0.81935  0.87873  0.54776  1.0000
  S   S385      1.0  0.55698  0.88449  0.65267  1.0000
  S   S386      1.0  0.57470  0.94697  0.65668  1.0000
  Fe  Fe195     1.0  0.58367  0.66271  0.64831  1.0000
  S   S387      1.0  0.59533  0.68677  0.66821  1.0000
  S   S388      1.0  0.61302  0.66220  0.63163  1.0000
  Fe  Fe196     1.0  0.52566  0.63527  0.65764  1.0000
  S   S389      1.0  0.53420  0.65917  0.67765  1.0000
  Fe  Fe197     1.0  0.55877  0.69407  0.66471  1.0000
  S   S390      1.0  0.55569  0.73389  0.66119  1.0000
  Fe  Fe198     1.0  0.56991  0.64986  0.67946  1.0000
  S   S391      1.0  0.57425  0.62675  0.69870  1.0000
  S   S392      1.0  0.54800  0.67071  0.64442  1.0000
  S   S393      1.0  0.56046  0.62525  0.65972  1.0000
  C   C1117     1.0  0.56194  0.81377  0.67906  1.0000
  C   C1118     1.0  0.56535  0.79517  0.68804  1.0000
  C   C1119     1.0  0.56310  0.77051  0.68289  1.0000
  C   C1120     1.0  0.55729  0.76403  0.66864  1.0000
  C   C1121     1.0  0.55314  0.78232  0.65975  1.0000
  C   C1122     1.0  0.55552  0.80701  0.66488  1.0000
  H   H1125     1.0  0.57022  0.80006  0.69904  1.0000
  H   H1126     1.0  0.56627  0.75673  0.68992  1.0000
  H   H1127     1.0  0.54849  0.77757  0.64872  1.0000
  H   H1128     1.0  0.55260  0.82090  0.65783  1.0000
  C   C1123     1.0  0.63534  0.61683  0.72847  1.0000
  C   C1124     1.0  0.64196  0.63925  0.71999  1.0000
  C   C1125     1.0  0.62359  0.64290  0.71091  1.0000
  C   C1126     1.0  0.59830  0.62413  0.71023  1.0000
  C   C1127     1.0  0.59169  0.60187  0.71880  1.0000
  C   C1128     1.0  0.61007  0.59811  0.72775  1.0000
  H   H1129     1.0  0.83055  0.90684  0.56814  1.0000
  H   H1130     1.0  0.62895  0.66023  0.70449  1.0000
  H   H1131     1.0  0.57216  0.58732  0.71848  1.0000
  S   S394      1.0  0.95296  0.58573  0.73531  1.0000
  C   C1129     1.0  0.97382  0.60966  0.72348  1.0000
  H   H1132     1.0  0.63153  0.88084  0.65724  1.0000
  H   H1133     1.0  0.83345  0.83344  0.59640  1.0000
  C   C1130     1.0  0.96586  0.80073  0.51072  1.0000
  H   H1134     1.0  0.79711  0.71911  0.57883  1.0000
  H   H1135     1.0  0.86226  0.69971  0.53655  1.0000
  S   S395      1.0  0.59855  0.98331  0.69031  1.0000
  S   S396      1.0  0.97617  0.75111  0.55688  1.0000
  C   C1131     1.0  0.63524  0.63162  0.65815  1.0000
  H   H1136     1.0  0.58283  0.55211  0.68078  1.0000
  C   C1132     1.0  0.83297  0.89298  0.58901  1.0000
  H   H1137     1.0  0.58095  0.57634  0.65858  1.0000
  H   H1138     1.0  0.57307  0.57621  0.68894  1.0000
  H   H1139     1.0  0.60618  0.96455  0.71852  1.0000
  C   C1133     1.0  0.67359  0.72807  0.60554  1.0000
  C   C1134     1.0  0.67096  0.70212  0.60422  1.0000
  C   C1135     1.0  0.65239  0.68234  0.61226  1.0000
  C   C1136     1.0  0.63617  0.68811  0.62177  1.0000
  C   C1137     1.0  0.63888  0.71408  0.62314  1.0000
  C   C1138     1.0  0.65741  0.73385  0.61508  1.0000
  H   H1140     1.0  0.68312  0.69724  0.59694  1.0000
  H   H1141     1.0  0.65050  0.66238  0.61105  1.0000
  H   H1142     1.0  0.62662  0.71892  0.63036  1.0000
  H   H1143     1.0  0.65917  0.75377  0.61622  1.0000
  C   C1139     1.0  0.74380  0.73400  0.51489  1.0000
  H   H1144     1.0  0.54087  0.96294  0.68832  1.0000
  C   C1140     1.0  0.59868  0.59149  0.66240  1.0000
  C   C1141     1.0  0.72430  0.74349  0.51334  1.0000
  C   C1142     1.0  0.75575  0.72951  0.50276  1.0000
  H   H1145     1.0  0.71480  0.74679  0.52258  1.0000
  C   C1143     1.0  0.81150  0.71807  0.57157  1.0000
  C   C1144     1.0  0.89591  0.78142  0.56142  1.0000
  C   C1145     1.0  0.89662  0.78342  0.57615  1.0000
  C   C1146     1.0  0.87521  0.78423  0.58348  1.0000
  C   C1147     1.0  0.85290  0.78293  0.57616  1.0000
  C   C1148     1.0  0.85249  0.78162  0.56140  1.0000
  C   C1149     1.0  0.87390  0.78095  0.55409  1.0000
  H   H1146     1.0  0.91341  0.78376  0.58193  1.0000
  H   H1147     1.0  0.87575  0.78529  0.59489  1.0000
  H   H1148     1.0  0.83549  0.78053  0.55561  1.0000
  H   H1149     1.0  0.87321  0.77955  0.54269  1.0000
  H   H1150     1.0  0.83115  0.83064  0.57039  1.0000
  H   H1151     1.0  0.97721  0.74589  0.51785  1.0000
  C   C1150     1.0  0.64303  0.96479  0.61850  1.0000
  C   C1151     1.0  0.64684  0.94278  0.62329  1.0000
  C   C1152     1.0  0.66756  0.93766  0.61772  1.0000
  C   C1153     1.0  0.68413  0.95412  0.60749  1.0000
  H   H1152     1.0  0.62291  0.98824  0.74110  1.0000
  H   H1153     1.0  0.67076  0.92075  0.62133  1.0000
  H   H1154     1.0  0.69990  0.94984  0.60334  1.0000
  C   C1154     1.0  0.77657  0.91168  0.58036  1.0000
  C   C1155     1.0  0.77336  0.88730  0.58585  1.0000
  C   C1156     1.0  0.76869  0.86597  0.57679  1.0000
  C   C1157     1.0  0.76728  0.86893  0.56219  1.0000
  C   C1158     1.0  0.77035  0.89330  0.55671  1.0000
  C   C1159     1.0  0.77492  0.91463  0.56577  1.0000
  H   H1155     1.0  0.77443  0.88490  0.59715  1.0000
  H   H1156     1.0  0.76614  0.84730  0.58115  1.0000
  H   H1157     1.0  0.76918  0.89577  0.54542  1.0000
  H   H1158     1.0  0.77735  0.93342  0.56144  1.0000
  C   C1160     1.0  0.76148  0.60011  0.73560  1.0000
  H   H1159     1.0  0.61160  0.86449  0.64252  1.0000
  H   H1160     1.0  0.84899  0.87310  0.54799  1.0000
  H   H1161     1.0  0.65972  0.64769  0.67628  1.0000
  H   H1162     1.0  0.77474  0.59110  0.73272  1.0000
  N   N95       1.0  0.61775  0.83944  0.65814  1.0000
  C   C1161     1.0  0.62367  0.83640  0.67188  1.0000
  C   C1162     1.0  0.61371  0.81991  0.64848  1.0000
  C   C1163     1.0  0.62591  0.81338  0.67625  1.0000
  C   C1164     1.0  0.61568  0.79658  0.65250  1.0000
  C   C1165     1.0  0.62180  0.79334  0.66648  1.0000
  H   H1163     1.0  0.60818  0.82197  0.63770  1.0000
  H   H1164     1.0  0.62974  0.81072  0.68725  1.0000
  H   H1165     1.0  0.61150  0.78068  0.64499  1.0000
  H   H1166     1.0  0.62238  0.77495  0.66983  1.0000
  H   H1167     1.0  0.60459  0.58083  0.73424  1.0000
  C   C1166     1.0  0.98807  0.65117  0.71099  1.0000
  H   H1168     1.0  0.70611  0.55150  0.72701  1.0000
  C   C1167     1.0  0.97110  0.63307  0.72050  1.0000
  C   C1168     1.0  0.52178  0.97359  0.66173  1.0000
  H   H1169     1.0  0.70086  0.75451  0.49865  1.0000
  C   C1169     1.0  0.54870  0.99408  0.64192  1.0000
  C   C1170     1.0  0.83147  0.84819  0.57554  1.0000
  H   H1170     1.0  0.95625  0.73016  0.49451  1.0000
  H   H1171     1.0  0.64610  0.64750  0.65115  1.0000
  H   H1172     1.0  0.50181  0.72472  0.64936  1.0000
  N   N96       1.0  0.73579  0.58824  0.73231  1.0000
  C   C1171     1.0  0.76556  0.99438  0.51492  1.0000
  H   H1173     1.0  0.77078  0.72208  0.50387  1.0000
  C   C1172     1.0  0.83290  0.84971  0.59028  1.0000
  C   C1173     1.0  0.61320  0.61123  0.65315  1.0000
  H   H1174     1.0  0.93049  0.77648  0.50044  1.0000
  C   C1174     1.0  0.67994  0.97577  0.60246  1.0000
  C   C1175     1.0  0.53807  0.98123  0.68602  1.0000
  N   N97       1.0  0.84928  0.71745  0.55301  1.0000
  C   C1176     1.0  0.86924  0.71773  0.54307  1.0000
  C   C1177     1.0  0.80666  0.71612  0.55706  1.0000
  H   H1175     1.0  0.90862  0.51328  0.71403  1.0000
  H   H1176     1.0  0.81775  0.84626  0.54880  1.0000
  H   H1177     1.0  0.62562  0.85143  0.67965  1.0000
  N   N98       1.0  0.70940  0.86804  0.58408  1.0000
  C   C1178     1.0  0.70801  0.85157  0.59505  1.0000
  C   C1179     1.0  0.70656  0.85912  0.57044  1.0000
  C   C1180     1.0  0.70416  0.82554  0.59248  1.0000
  C   C1181     1.0  0.70274  0.83323  0.56750  1.0000
  C   C1182     1.0  0.70151  0.81639  0.57862  1.0000
  C   C1183     1.0  0.71285  0.89507  0.58700  1.0000
  H   H1178     1.0  0.71011  0.85859  0.60586  1.0000
  H   H1179     1.0  0.70786  0.87218  0.56172  1.0000
  H   H1180     1.0  0.70329  0.81241  0.60113  1.0000
  H   H1181     1.0  0.70128  0.82641  0.55667  1.0000
  H   H1182     1.0  0.69859  0.79626  0.57652  1.0000
  H   H1183     1.0  0.72230  0.90806  0.57802  1.0000
  H   H1184     1.0  0.69390  0.89625  0.58895  1.0000
  H   H1185     1.0  0.72571  0.90302  0.59632  1.0000
  H   H1186     1.0  0.62716  0.96897  0.62258  1.0000
  H   H1187     1.0  0.59719  0.86401  0.65943  1.0000
  H   H1188     1.0  0.63407  0.61170  0.69204  1.0000
  C   C1184     1.0  0.64283  0.63174  0.67222  1.0000
  C   C1185     1.0  0.97606  0.74403  0.49499  1.0000
  H   H1189     1.0  0.82211  0.71470  0.53658  1.0000
  H   H1190     1.0  0.78151  0.78762  0.50799  1.0000
  H   H1191     1.0  0.95586  0.63719  0.72546  1.0000
  C   C1186     1.0  0.83149  0.89078  0.57428  1.0000
  H   H1192     1.0  0.88729  0.71918  0.54860  1.0000
  S   S397      1.0  0.65912  0.61288  0.73972  1.0000
  S   S398      1.0  0.49973  0.91141  0.65116  1.0000
  C   C1187     1.0  0.85417  0.71938  0.56724  1.0000
  C   C1188     1.0  0.62811  0.61143  0.68111  1.0000
  H   H1193     1.0  0.74318  0.83840  0.51854  1.0000
  H   H1194     1.0  0.72731  0.56813  0.71269  1.0000
  C   C1189     1.0  0.77326  0.98620  0.50232  1.0000
  H   H1195     1.0  0.60689  0.61132  0.64229  1.0000
  H   H1196     1.0  0.78828  0.71528  0.55291  1.0000
  C   C1190     1.0  0.71637  0.74775  0.49976  1.0000
  C   C1191     1.0  0.82589  0.71583  0.54787  1.0000
  C   C1192     1.0  0.95027  0.78991  0.49888  1.0000
  C   C1193     1.0  0.83353  0.87222  0.59704  1.0000
  S   S399      1.0  0.87606  0.55867  0.74227  1.0000
  N   N99       1.0  0.60624  0.59176  0.67619  1.0000
  C   C1194     1.0  0.83535  0.71964  0.57672  1.0000
  S   S400      1.0  0.98104  0.79585  0.58068  1.0000
  C   C1195     1.0  0.82920  0.86660  0.55230  1.0000
  C   C1196     1.0  0.72633  0.56388  0.72416  1.0000
  H   H1197     1.0  0.83307  0.91049  0.59413  1.0000
  H   H1198     1.0  0.87300  0.72163  0.57131  1.0000
  N   N100      1.0  0.83035  0.86842  0.56775  1.0000
  H   H1199     1.0  0.66139  0.65396  0.72052  1.0000
  C   C1197     1.0  0.52505  0.97704  0.64714  1.0000
  C   C1198     1.0  0.58989  0.57166  0.68585  1.0000
  C   C1199     1.0  0.76288  0.81274  0.51493  1.0000
  C   C1200     1.0  0.98788  0.75289  0.50823  1.0000
  N   N101      1.0  0.91519  0.50000  0.73409  1.0000
  H   H1200     1.0  0.83441  0.87354  0.60848  1.0000
  C   C1201     1.0  0.74787  0.83287  0.49623  1.0000
  S   S401      1.0  0.65484  0.54249  0.74119  1.0000
  C   C1202     1.0  0.99156  0.81746  0.50881  1.0000
  H   H1201     1.0  0.69884  0.59060  0.73315  1.0000
  H   H1202     1.0  0.78522  0.97502  0.50282  1.0000
  C   C1203     1.0  0.61214  0.98549  0.71900  1.0000
  C   C1204     1.0  0.90468  0.51528  0.72534  1.0000
  C   C1205     1.0  0.65936  0.98103  0.60810  1.0000
  C   C1206     1.0  0.93753  0.51212  0.74165  1.0000
  H   H1203     1.0  0.94759  0.53318  0.74133  1.0000
  H   H1204     1.0  0.50360  0.95964  0.66567  1.0000
  H   H1205     1.0  0.50555  0.72297  0.67406  1.0000
  H   H1206     1.0  0.95827  0.79562  0.52131  1.0000
  H   H1207     1.0  0.50957  0.96570  0.63997  1.0000
  H   H1208     1.0  0.91331  0.53633  0.72816  1.0000
  H   H1209     1.0  0.51847  0.97894  0.68942  1.0000
  H   H1210     1.0  0.98557  0.66907  0.70873  1.0000
  N   N102      1.0  0.54149  0.98678  0.67087  1.0000
  H   H1211     1.0  0.76470  0.80920  0.52608  1.0000
  C   C1207     1.0  0.75062  0.82900  0.51067  1.0000
  H   H1212     1.0  0.51121  0.69933  0.64315  1.0000
  C   C1208     1.0  0.49503  0.70329  0.64781  1.0000
  C   C1209     1.0  0.77243  0.80075  0.50479  1.0000
  H   H1213     1.0  0.88351  0.50862  0.72692  1.0000
  H   H1214     1.0  0.49392  0.69883  0.69651  1.0000
  C   C1210     1.0  0.71911  0.59958  0.73604  1.0000
  Fe  Fe199     1.0  0.76977  0.99571  0.55394  1.0000
  H   H1215     1.0  0.73809  0.84534  0.49300  1.0000
  S   S402      1.0  0.70079  0.51118  0.89802  1.0000
  H   H1216     1.0  0.76085  0.65274  0.75357  1.0000
  C   C1211     1.0  0.59440  0.54132  0.93767  1.0000
  H   H1217     1.0  0.87726  0.67580  0.94255  1.0000
  S   S403      1.0  0.76800  0.76599  0.98307  1.0000
  S   S404      1.0  0.73219  0.70379  0.96206  1.0000
  Fe  Fe200     1.0  0.90259  0.59227  0.90798  1.0000
  S   S405      1.0  0.88383  0.55683  0.92147  1.0000
  S   S406      1.0  0.92660  0.63479  0.91420  1.0000
  Fe  Fe201     1.0  0.87107  0.56399  0.88153  1.0000
  S   S407      1.0  0.84936  0.52674  0.89326  1.0000
  S   S408      1.0  0.86034  0.57216  0.85938  1.0000
  Fe  Fe202     1.0  0.84670  0.55281  0.91078  1.0000
  S   S409      1.0  0.81319  0.54929  0.92468  1.0000
  Fe  Fe203     1.0  0.88811  0.53341  0.90284  1.0000
  S   S410      1.0  0.86494  0.58926  0.89840  1.0000
  S   S411      1.0  0.91025  0.56947  0.89001  1.0000
  Fe  Fe204     1.0  0.87293  0.52726  0.75785  1.0000
  S   S412      1.0  0.91438  0.54511  0.76413  1.0000
  Fe  Fe205     1.0  0.86611  0.57826  0.76089  1.0000
  S   S413      1.0  0.90811  0.60053  0.76727  1.0000
  S   S414      1.0  0.83530  0.59536  0.76203  1.0000
  C   C1212     1.0  0.87098  0.75131  0.98607  1.0000
  Fe  Fe206     1.0  0.90194  0.56572  0.78107  1.0000
  S   S415      1.0  0.91721  0.56358  0.80312  1.0000
  S   S416      1.0  0.86011  0.54531  0.77575  1.0000
  Fe  Fe207     1.0  0.64329  0.54716  0.78131  1.0000
  C   C1213     1.0  0.56415  0.49826  0.93315  1.0000
  S   S417      1.0  0.62920  0.53635  0.80386  1.0000
  Fe  Fe208     1.0  0.65221  0.57636  0.75290  1.0000
  Fe  Fe209     1.0  0.62067  0.51776  0.75402  1.0000
  Fe  Fe210     1.0  0.67972  0.53980  0.75939  1.0000
  C   C1214     1.0  0.89961  0.69227  0.96124  1.0000
  S   S418      1.0  0.61647  0.55182  0.76468  1.0000
  S   S419      1.0  0.67928  0.57518  0.77062  1.0000
  Fe  Fe211     1.0  0.65564  0.57026  0.91663  1.0000
  S   S420      1.0  0.64443  0.52660  0.91860  1.0000
  S   S421      1.0  0.65564  0.59321  0.93690  1.0000
  Fe  Fe212     1.0  0.65645  0.56733  0.88405  1.0000
  S   S422      1.0  0.64505  0.52419  0.88392  1.0000
  S   S423      1.0  0.66754  0.59063  0.86369  1.0000
  Fe  Fe213     1.0  0.61648  0.52230  0.90071  1.0000
  H   H1218     1.0  0.85452  0.50871  0.81857  1.0000
  Fe  Fe214     1.0  0.67394  0.53197  0.90163  1.0000
  H   H1219     1.0  0.74515  0.76129  0.95153  1.0000
  S   S424      1.0  0.62581  0.56557  0.89964  1.0000
  S   S425      1.0  0.68715  0.57551  0.90093  1.0000
  C   C1215     1.0  0.63965  0.55256  0.82023  1.0000
  C   C1216     1.0  0.65759  0.57833  0.82122  1.0000
  C   C1217     1.0  0.66555  0.59000  0.83461  1.0000
  C   C1218     1.0  0.65588  0.57593  0.84707  1.0000
  C   C1219     1.0  0.63783  0.55026  0.84603  1.0000
  C   C1220     1.0  0.62966  0.53873  0.83269  1.0000
  H   H1220     1.0  0.66524  0.58927  0.81172  1.0000
  H   H1221     1.0  0.67940  0.60994  0.83533  1.0000
  H   H1222     1.0  0.63005  0.53931  0.85550  1.0000
  H   H1223     1.0  0.61567  0.51885  0.83205  1.0000
  C   C1221     1.0  0.80175  0.57564  0.76140  1.0000
  C   C1222     1.0  0.80681  0.94875  0.99236  1.0000
  S   S426      1.0  0.71439  0.52924  0.75501  1.0000
  C   C1223     1.0  0.74779  0.54706  0.75838  1.0000
  C   C1224     1.0  0.75718  0.57133  0.76518  1.0000
  C   C1225     1.0  0.78404  0.58559  0.76660  1.0000
  N   N103      1.0  0.83216  0.50009  0.79939  1.0000
  C   C1226     1.0  0.91702  0.66460  0.97330  1.0000
  C   C1227     1.0  0.78264  0.54055  0.91656  1.0000
  C   C1228     1.0  0.76369  0.54707  0.92313  1.0000
  C   C1229     1.0  0.73877  0.53913  0.91722  1.0000
  C   C1230     1.0  0.73248  0.52389  0.90495  1.0000
  H   H1224     1.0  0.71435  0.63149  0.74688  1.0000
  C   C1231     1.0  0.77661  0.52610  0.90400  1.0000
  H   H1225     1.0  0.76823  0.55819  0.93287  1.0000
  H   H1226     1.0  0.72420  0.54405  0.92242  1.0000
  H   H1227     1.0  0.90237  0.64107  0.88613  1.0000
  H   H1228     1.0  0.55138  0.54821  0.92719  1.0000
  C   C1232     1.0  0.87491  0.56728  0.84378  1.0000
  C   C1233     1.0  0.86654  0.57321  0.83071  1.0000
  C   C1234     1.0  0.87894  0.57156  0.81811  1.0000
  C   C1235     1.0  0.89997  0.56416  0.81852  1.0000
  C   C1236     1.0  0.90803  0.55775  0.83155  1.0000
  C   C1237     1.0  0.89547  0.55916  0.84414  1.0000
  H   H1229     1.0  0.85072  0.57964  0.83036  1.0000
  H   H1230     1.0  0.87270  0.57671  0.80814  1.0000
  H   H1231     1.0  0.92427  0.55195  0.83193  1.0000
  H   H1232     1.0  0.90210  0.55459  0.85415  1.0000
  C   C1238     1.0  0.67734  0.62400  0.94369  1.0000
  C   C1239     1.0  0.67250  0.63236  0.95703  1.0000
  C   C1240     1.0  0.68908  0.65652  0.96289  1.0000
  C   C1241     1.0  0.71076  0.67276  0.95544  1.0000
  C   C1242     1.0  0.71543  0.66455  0.94205  1.0000
  C   C1243     1.0  0.69893  0.64034  0.93622  1.0000
  H   H1233     1.0  0.65588  0.61996  0.96293  1.0000
  H   H1234     1.0  0.68510  0.66249  0.97317  1.0000
  H   H1235     1.0  0.73208  0.67691  0.93615  1.0000
  H   H1236     1.0  0.70296  0.63432  0.92596  1.0000
  C   C1244     1.0  0.72187  0.56816  0.87036  1.0000
  C   C1245     1.0  0.90549  0.64524  0.96310  1.0000
  C   C1246     1.0  0.96921  0.67289  0.95555  1.0000
  C   C1247     1.0  0.96323  0.64630  0.95275  1.0000
  C   C1248     1.0  0.94966  0.63416  0.94037  1.0000
  C   C1249     1.0  0.94246  0.64865  0.93041  1.0000
  C   C1250     1.0  0.94842  0.67523  0.93320  1.0000
  C   C1251     1.0  0.96143  0.68722  0.94575  1.0000
  H   H1237     1.0  0.74669  0.50562  0.88887  1.0000
  H   H1238     1.0  0.94546  0.61379  0.93836  1.0000
  H   H1239     1.0  0.94305  0.68670  0.92557  1.0000
  H   H1240     1.0  0.73318  0.78109  0.94071  1.0000
  H   H1241     1.0  0.89927  0.65957  0.87118  1.0000
  H   H1242     1.0  0.79116  0.60460  0.77158  1.0000
  H   H1243     1.0  0.62614  0.54524  0.95168  1.0000
  C   C1252     1.0  0.93666  0.62955  0.87307  1.0000
  C   C1253     1.0  0.91274  0.62897  0.85221  1.0000
  N   N104      1.0  0.70541  0.75392  0.95394  1.0000
  C   C1254     1.0  0.69609  0.72980  0.94772  1.0000
  C   C1255     1.0  0.68991  0.76138  0.96243  1.0000
  C   C1256     1.0  0.67125  0.71175  0.95069  1.0000
  C   C1257     1.0  0.66484  0.74393  0.96551  1.0000
  C   C1258     1.0  0.65561  0.71886  0.95971  1.0000
  C   C1259     1.0  0.73200  0.77191  0.95121  1.0000
  H   H1244     1.0  0.70831  0.72394  0.94090  1.0000
  H   H1245     1.0  0.69715  0.78064  0.96722  1.0000
  H   H1246     1.0  0.66454  0.69220  0.94627  1.0000
  H   H1247     1.0  0.65295  0.74966  0.97262  1.0000
  H   H1248     1.0  0.63647  0.70488  0.96230  1.0000
  H   H1249     1.0  0.92890  0.66163  0.98166  1.0000
  H   H1250     1.0  0.75845  0.51809  0.74825  1.0000
  C   C1260     1.0  0.60853  0.53184  0.94667  1.0000
  H   H1251     1.0  0.96296  0.61187  0.84469  1.0000
  C   C1261     1.0  0.67960  0.51252  0.84760  1.0000
  H   H1252     1.0  0.72211  0.58573  0.84437  1.0000
  H   H1253     1.0  0.74379  0.57938  0.76904  1.0000
  C   C1262     1.0  0.79231  0.55096  0.75508  1.0000
  H   H1254     1.0  0.87819  0.62552  0.87289  1.0000
  Fe  Fe215     1.0  0.73561  0.72605  0.98292  1.0000
  H   H1255     1.0  0.92636  0.61826  0.83288  1.0000
  N   N105      1.0  0.57260  0.52457  0.93099  1.0000
  C   C1263     1.0  0.73657  0.86627  0.98358  1.0000
  H   H1256     1.0  0.71816  0.55615  0.88009  1.0000
  H   H1257     1.0  0.74299  0.57638  0.86857  1.0000
  H   H1258     1.0  0.57162  0.54621  0.91279  1.0000
  H   H1259     1.0  0.93953  0.63242  0.88440  1.0000
  Fe  Fe216     1.0  0.91766  0.57829  0.74959  1.0000
  C   C1264     1.0  0.95376  0.62206  0.86535  1.0000
  H   H1260     1.0  0.89619  0.63070  0.84706  1.0000
  C   C1265     1.0  0.69298  0.52697  0.85931  1.0000
  S   S427      1.0  0.92097  0.75396  0.98707  1.0000
  H   H1261     1.0  0.93636  0.80416  0.97277  1.0000
  H   H1262     1.0  0.96457  0.50746  0.75660  1.0000
  H   H1263     1.0  0.58371  0.51312  0.78596  1.0000
  S   S428      1.0  0.64549  0.51166  0.77103  1.0000
  N   N106      1.0  0.70820  0.55290  0.85804  1.0000
  C   C1266     1.0  0.75390  0.63481  0.74745  1.0000
  C   C1267     1.0  0.71077  0.56499  0.84525  1.0000
  C   C1268     1.0  0.89820  0.64014  0.87459  1.0000
  C   C1269     1.0  0.69810  0.55100  0.83326  1.0000
  C   C1270     1.0  0.54871  0.49795  0.77368  1.0000
  C   C1271     1.0  0.88842  0.67253  0.95117  1.0000
  H   H1264     1.0  0.96920  0.63502  0.96022  1.0000
  N   N107      1.0  0.89173  0.64951  0.95210  1.0000
  H   H1265     1.0  0.92323  0.70357  0.98002  1.0000
  H   H1266     1.0  0.88937  0.61510  0.94098  1.0000
  H   H1267     1.0  0.73914  0.78751  0.95941  1.0000
  H   H1268     1.0  0.71533  0.58429  0.87233  1.0000
  H   H1269     1.0  0.90832  0.62711  0.96381  1.0000
  C   C1272     1.0  0.81045  0.97099  0.98437  1.0000
  H   H1270     1.0  0.54202  0.51945  0.91614  1.0000
  C   C1273     1.0  0.87962  0.62902  0.94150  1.0000
  H   H1271     1.0  0.96949  0.61902  0.87068  1.0000
  C   C1274     1.0  0.79343  0.50270  0.78180  1.0000
  C   C1275     1.0  0.95017  0.61814  0.85080  1.0000
  H   H1272     1.0  0.79106  0.52096  0.89886  1.0000
  H   H1273     1.0  0.96589  0.70765  0.94771  1.0000
  C   C1276     1.0  0.75148  0.51747  0.89834  1.0000
  S   S429      1.0  0.73580  0.81637  0.98541  1.0000
  H   H1274     1.0  0.69078  0.51735  0.86944  1.0000
  N   N108      1.0  0.91633  0.63266  0.86648  1.0000
  C   C1277     1.0  0.95438  0.81629  0.97792  1.0000
  S   S430      1.0  0.98625  0.76017  0.97442  1.0000
  H   H1275     1.0  0.87139  0.74598  0.97511  1.0000
  C   C1278     1.0  0.72784  0.62288  0.74376  1.0000
  H   H1276     1.0  0.89727  0.71068  0.96049  1.0000
  H   H1277     1.0  0.73180  0.86150  0.97257  1.0000
  C   C1279     1.0  0.73942  0.89115  0.98869  1.0000
  H   H1278     1.0  0.60128  0.56215  0.93583  1.0000
  C   C1280     1.0  0.92968  0.62185  0.84414  1.0000
  H   H1279     1.0  0.88121  0.63754  0.93075  1.0000
  H   H1280     1.0  0.85894  0.61801  0.94398  1.0000
  C   C1281     1.0  0.91411  0.68826  0.97230  1.0000
  C   C1282     1.0  0.85415  0.50029  0.80787  1.0000
  H   H1281     1.0  0.82689  0.52981  0.81166  1.0000
  H   H1282     1.0  0.79227  0.53227  0.79613  1.0000
  H   H1283     1.0  0.69969  0.56076  0.82319  1.0000
  C   C1283     1.0  0.76551  0.53685  0.75352  1.0000
  C   C1284     1.0  0.55860  0.53515  0.92138  1.0000
  H   H1284     1.0  0.80325  0.96918  0.97359  1.0000
  H   H1285     1.0  0.80569  0.54310  0.75098  1.0000
  H   H1286     1.0  0.83186  0.74958  0.98461  1.0000
  C   C1285     1.0  0.82054  0.51690  0.80258  1.0000
  S   S431      1.0  0.90309  0.50126  0.90640  1.0000
  H   H1287     1.0  0.83085  0.50708  0.92491  1.0000
  C   C1286     1.0  0.80098  0.51842  0.79384  1.0000
  H   H1288     1.0  0.73689  0.90520  0.98161  1.0000
  C   C1287     1.0  0.97706  0.82672  0.97017  1.0000
  C   C1288     1.0  0.68223  0.52466  0.83449  1.0000
  S   S432      1.0  0.98619  0.68696  0.97146  1.0000
  H   H1289     1.0  0.97687  0.82274  0.95894  1.0000
  H   H1290     1.0  0.87247  0.51228  0.80251  1.0000
  H   H1291     1.0  0.77873  0.50417  0.77476  1.0000
  H   H1292     1.0  0.79656  0.92969  0.98764  1.0000
  H   H1293     1.0  0.67145  0.51395  0.82536  1.0000
  C   C1289     1.0  0.77091  0.62349  0.74327  1.0000
  H   H1294     1.0  0.55547  0.51329  0.76584  1.0000
  C   C1290     1.0  0.60040  0.50502  0.94867  1.0000
  C   C1291     1.0  0.84845  0.75335  0.99143  1.0000
  H   H1295     1.0  0.61165  0.49741  0.95528  1.0000
  H   H1296     1.0  0.79119  0.63236  0.74622  1.0000
  C   C1292     1.0  0.94737  0.49766  0.75024  1.0000
  C   C1293     1.0  0.56472  0.49759  0.78497  1.0000
  C   C1294     1.0  0.82280  0.99559  0.99050  1.0000
  C   C1295     1.0  0.95506  0.82075  0.99244  1.0000
  C   C1296     1.0  0.73980  0.84754  0.99255  1.0000
