data_image0
_chemical_formula_structural       HC2HSHCSHNC5HC2HSHFeS2HC2FeS2C2HC3H5C2H2SCHCHC2HC3H3SH2CH2FeCSHC2H4CH2CSHCHC3NH2NC2HC2H2SH2NH2FeH2C2HNH4C3H2CH2FeC5HFeC2HSCH3CFeH7C3HSHC2HSFeS2FeS2FeS2FeSFeS3FeS2C2HFeS2HCH2SC2H2FeC4H3C2NC2H2C6H4C8HCH3C3H2CH2C3HCHFeSC2SH2NFeH2SHNS2CH2CH4C2HSH4CHSH2CSHNC3NC2FeC6H2CH2C2HCHFeHCSHFeHSC6HCSHSC2HSH5CFe3NFeS2FeS2FeSFeCS2FeS3H2SC8H4CH5CH5C2FeS2FeS2FeSFeS3C5H3C6HNHCHCHC2SC3NC6H10CHC2HCH2NC6H8NCHCH2CHC2HC4HSH2FeH2CHCHC2H3N2C2H2C2SCHC2HCH3CHC2HCH2FeSHC2SFeS2C6H4CSC4HC2H3NH2C3HCHC2SHCH2FeS2FeS2FeSFeS2HC5H3C4FeHC5HCSCH2CHFeC2H4NHC2H2CH2CH3C2HCSNSCHFeHFeCHNHNH2CSC3HCH2SH2C3H2CHCHC2SHCSH7C2H2SC2FeHCHFeCHC2SH4SC2H2CHCHSH2SC2HC2H3NFeH2S2CHC3HSHCSCFeSCNCSHFeH4NH2CSNH3CHSHC2SHFeHCSHCSCHFe2CH2CHSHCHCFeC2HC2HCHCSC2SH3SCFeS2FeS2FeS2FeSFeS3C2SFeCFeH2C3FeC4SCH2C3HC2H3C3FeH4C7H4C4HC6H3NHSCHNC6H5C3NC2HC2H3CSH2CFeHS3CH2CH6CHCNH5CSHCH2SCSHSH3CHNC2HC3HCH2NHCHCHC2H3CNHCHC2HFeS3HNC4H5CH6SNH3CH2CHCFeNCFeS2FeS2FeSFeS3NH4CFeS2FeS2FeS2FeSFeS3C2H2C4H2CH6C2HC6H4C6H5C4HC2H2CNHNH2NC9H3C2HC3H2C4H3C5H2CH2CH3NH3CHCH2CH2C2H2CHCH2C2HCFeSHC2FeHSCFeS3H3CHFeS2H2NFeS2FeS2FeSFeHS2FeS2C7H4C4HCH5CHCS2C7HSH3C7NHCHSHC2HC7H4SCHC3H2SCHCHFeHCHFeCS2C2SCHFeNCHC3H2C2H4SCHCNH5C2HCHFeH3CNH2C2H2FeSCSHC3H3C2H4C3H3SC2FeCSHS2NHSFeS2HFe2C2HC3SCH2SH3CFeSC2HC5HC3HCFeNHCH2FeSCHCH4SHCSH2C6H2C2H5CH7CFeC4H2SCHSC2FeCHSC
_chemical_formula_sum              "H576 C576 S192 N48 Fe96"
_cell_length_a       54.6235
_cell_length_b       54.3863
_cell_length_c       44.6935
_cell_angle_alpha    89.7044
_cell_angle_beta     90.0591
_cell_angle_gamma    119.547

_space_group_name_H-M_alt    "P 1"
_space_group_IT_number       1

loop_
  _space_group_symop_operation_xyz
  'x, y, z'

loop_
  _atom_site_type_symbol
  _atom_site_label
  _atom_site_symmetry_multiplicity
  _atom_site_fract_x
  _atom_site_fract_y
  _atom_site_fract_z
  _atom_site_occupancy
  H   H1        1.0  0.29522  0.26692  0.11532  1.0000
  C   C1        1.0  0.98958  0.31601  0.14124  1.0000
  C   C2        1.0  0.27864  0.98904  0.20418  1.0000
  H   H2        1.0  0.31307  0.23017  0.08808  1.0000
  S   S1        1.0  0.25086  0.07052  0.49065  1.0000
  H   H3        1.0  0.17511  0.31149  0.04201  1.0000
  C   C3        1.0  0.25454  0.30502  0.10942  1.0000
  S   S2        1.0  0.25506  0.22376  0.49295  1.0000
  H   H4        1.0  0.25709  0.25999  0.14995  1.0000
  N   N1        1.0  0.27287  0.22528  0.09753  1.0000
  C   C4        1.0  0.19190  0.14182  0.43312  1.0000
  C   C5        1.0  0.10080  0.25154  0.44543  1.0000
  C   C6        1.0  0.27389  0.31365  0.34800  1.0000
  C   C7        1.0  0.23108  0.13327  0.01453  1.0000
  C   C8        1.0  0.34991  0.99490  0.20348  1.0000
  H   H5        1.0  0.09695  0.21391  0.05207  1.0000
  C   C9        1.0  0.11310  0.27527  0.46378  1.0000
  C   C10       1.0  0.28980  0.30968  0.40690  1.0000
  H   H6        1.0  0.24878  0.08117  0.02310  1.0000
  S   S3        1.0  0.24481  0.16968  0.02345  1.0000
  H   H7        1.0  0.24078  0.11064  0.41890  1.0000
  Fe  Fe1       1.0  0.25345  0.26465  0.03362  1.0000
  S   S4        1.0  0.28628  0.29637  0.06608  1.0000
  S   S5        1.0  0.21810  0.22289  0.04890  1.0000
  H   H8        1.0  0.05764  0.21796  0.02900  1.0000
  C   C11       1.0  0.27617  0.24651  0.11624  1.0000
  C   C12       1.0  0.11786  0.28914  0.06345  1.0000
  Fe  Fe2       1.0  0.23690  0.24751  0.46833  1.0000
  S   S6        1.0  0.19223  0.21475  0.48001  1.0000
  S   S7        1.0  0.24079  0.25836  0.41815  1.0000
  C   C13       1.0  0.24969  0.12043  0.49290  1.0000
  C   C14       1.0  0.24913  0.19931  0.09912  1.0000
  H   H9        1.0  0.19184  0.07929  0.43635  1.0000
  C   C15       1.0  0.26396  0.28837  0.39613  1.0000
  C   C16       1.0  0.25625  0.29046  0.36652  1.0000
  C   C17       1.0  0.09765  0.21871  0.02845  1.0000
  H   H10       1.0  0.23641  0.27406  0.35783  1.0000
  H   H11       1.0  0.08228  0.28913  0.08499  1.0000
  H   H12       1.0  0.27166  0.13016  0.48667  1.0000
  H   H13       1.0  0.22892  0.19365  0.39454  1.0000
  H   H14       1.0  0.28777  0.21430  0.05827  1.0000
  C   C18       1.0  0.07110  0.27918  0.45917  1.0000
  C   C19       1.0  0.28112  0.31025  0.10006  1.0000
  H   H15       1.0  0.05964  0.29007  0.46477  1.0000
  H   H16       1.0  0.15722  0.27481  0.05395  1.0000
  S   S8        1.0  0.03735  0.20644  0.49796  1.0000
  C   C20       1.0  0.08071  0.29187  0.03709  1.0000
  H   H17       1.0  0.99983  0.31221  0.33481  1.0000
  C   C21       1.0  0.29534  0.23044  0.07626  1.0000
  H   H18       1.0  0.98956  0.21141  0.12818  1.0000
  C   C22       1.0  0.23634  0.14807  0.41820  1.0000
  C   C23       1.0  0.22940  0.18925  0.41876  1.0000
  H   H19       1.0  0.12705  0.28766  0.08444  1.0000
  C   C24       1.0  0.03800  0.31152  0.13551  1.0000
  C   C25       1.0  0.30480  0.99327  0.19448  1.0000
  C   C26       1.0  0.22726  0.19462  0.11872  1.0000
  H   H20       1.0  0.11183  0.23997  0.44082  1.0000
  H   H21       1.0  0.20814  0.17424  0.11922  1.0000
  H   H22       1.0  0.01876  0.25350  0.44236  1.0000
  S   S9        1.0  0.25697  0.01891  0.01911  1.0000
  H   H23       1.0  0.36647  0.01669  0.20906  1.0000
  H   H24       1.0  0.29623  0.30827  0.42945  1.0000
  C   C27       1.0  0.00624  0.31109  0.35746  1.0000
  H   H25       1.0  0.24950  0.16017  0.49409  1.0000
  H   H26       1.0  0.06117  0.29251  0.03727  1.0000
  Fe  Fe3       1.0  0.99520  0.25492  0.04375  1.0000
  C   C28       1.0  0.01666  0.29879  0.11386  1.0000
  S   S10       1.0  0.14906  0.22089  0.02945  1.0000
  H   H27       1.0  0.02818  0.30745  0.43954  1.0000
  C   C29       1.0  0.23667  0.09113  0.01643  1.0000
  C   C30       1.0  0.07350  0.24181  0.43463  1.0000
  H   H28       1.0  0.05675  0.30965  0.13369  1.0000
  H   H29       1.0  0.26447  0.99088  0.18844  1.0000
  H   H30       1.0  0.13371  0.28218  0.47348  1.0000
  H   H31       1.0  0.26647  0.13192  0.03427  1.0000
  C   C31       1.0  0.09823  0.28927  0.47066  1.0000
  H   H32       1.0  0.22043  0.31449  0.39689  1.0000
  H   H33       1.0  0.25129  0.20222  0.42709  1.0000
  C   C32       1.0  0.99499  0.28845  0.40709  1.0000
  S   S11       1.0  0.02030  0.27773  0.08569  1.0000
  H   H34       1.0  0.23634  0.29237  0.09562  1.0000
  C   C33       1.0  0.15754  0.29002  0.03699  1.0000
  H   H35       1.0  0.98261  0.23354  0.18614  1.0000
  C   C34       1.0  0.25470  0.24264  0.13600  1.0000
  C   C35       1.0  0.99256  0.30147  0.11661  1.0000
  C   C36       1.0  0.23001  0.21655  0.13704  1.0000
  N   N2        1.0  0.21902  0.15904  0.42385  1.0000
  H   H36       1.0  0.01801  0.22148  0.43239  1.0000
  H   H37       1.0  0.24667  0.18224  0.08473  1.0000
  N   N3        1.0  0.13070  0.29004  0.03686  1.0000
  C   C37       1.0  0.02209  0.30805  0.41664  1.0000
  C   C38       1.0  0.09265  0.28998  0.06397  1.0000
  H   H38       1.0  0.21643  0.19666  0.43073  1.0000
  C   C39       1.0  0.18160  0.11285  0.43738  1.0000
  C   C40       1.0  0.19922  0.10154  0.43206  1.0000
  H   H39       1.0  0.21301  0.21341  0.15193  1.0000
  H   H40       1.0  0.25784  0.16174  0.41086  1.0000
  S   S12       1.0  0.99645  0.21459  0.03652  1.0000
  H   H41       1.0  0.06363  0.22269  0.42139  1.0000
  H   H42       1.0  0.17829  0.15053  0.43826  1.0000
  N   N4        1.0  0.05895  0.25547  0.44176  1.0000
  H   H43       1.0  0.31318  0.99787  0.36241  1.0000
  H   H44       1.0  0.23094  0.31267  0.14330  1.0000
  Fe  Fe4       1.0  0.23157  0.20287  0.01321  1.0000
  H   H45       1.0  0.30305  0.25129  0.06499  1.0000
  H   H46       1.0  0.00946  0.25499  0.15898  1.0000
  C   C41       1.0  0.98730  0.29001  0.37734  1.0000
  C   C42       1.0  0.22676  0.11920  0.42236  1.0000
  H   H47       1.0  0.16048  0.09952  0.44598  1.0000
  N   N5        1.0  0.32241  0.99001  0.21388  1.0000
  H   H48       1.0  0.00776  0.14710  0.02229  1.0000
  H   H49       1.0  0.34984  0.99161  0.17892  1.0000
  H   H50       1.0  0.10737  0.30738  0.48543  1.0000
  H   H51       1.0  0.26755  0.31498  0.32538  1.0000
  C   C43       1.0  0.25155  0.31652  0.13652  1.0000
  C   C44       1.0  0.03044  0.24487  0.42996  1.0000
  C   C45       1.0  0.24663  0.11995  0.02275  1.0000
  H   H52       1.0  0.03132  0.25085  0.40603  1.0000
  H   H53       1.0  0.07733  0.18823  0.48529  1.0000
  C   C46       1.0  0.07529  0.22096  0.01542  1.0000
  H   H54       1.0  0.28607  0.99353  0.40880  1.0000
  H   H55       1.0  0.31051  0.99833  0.17109  1.0000
  Fe  Fe5       1.0  0.19228  0.22903  0.01297  1.0000
  C   C47       1.0  0.23399  0.09088  0.49653  1.0000
  C   C48       1.0  0.23720  0.13751  0.49713  1.0000
  C   C49       1.0  0.12101  0.22281  0.01130  1.0000
  C   C50       1.0  0.99545  0.14629  0.00287  1.0000
  C   C51       1.0  0.08771  0.20642  0.49975  1.0000
  H   H56       1.0  0.12763  0.20691  0.49865  1.0000
  Fe  Fe6       1.0  0.23494  0.02345  0.50012  1.0000
  C   C52       1.0  0.09396  0.29289  0.01009  1.0000
  C   C53       1.0  0.98749  0.24767  0.16640  1.0000
  H   H57       1.0  0.98667  0.26686  0.17336  1.0000
  S   S13       1.0  0.26861  0.01045  0.50179  1.0000
  C   C54       1.0  0.11922  0.29216  0.01038  1.0000
  H   H58       1.0  0.16173  0.28311  0.01511  1.0000
  H   H59       1.0  0.33200  0.00237  0.49002  1.0000
  H   H60       1.0  0.46100  0.30400  0.85545  1.0000
  C   C55       1.0  0.40938  0.14500  0.68494  1.0000
  Fe  Fe7       1.0  0.25867  0.99392  0.97949  1.0000
  H   H61       1.0  0.22778  0.08551  0.56455  1.0000
  H   H62       1.0  0.41216  0.21709  0.67897  1.0000
  H   H63       1.0  0.40855  0.12474  0.68681  1.0000
  H   H64       1.0  0.19331  0.05588  0.50769  1.0000
  H   H65       1.0  0.22797  0.16923  0.96003  1.0000
  H   H66       1.0  0.26001  0.02633  0.84808  1.0000
  H   H67       1.0  0.20891  0.15971  0.57925  1.0000
  C   C56       1.0  0.41118  0.00083  0.80150  1.0000
  C   C57       1.0  0.08626  0.24272  0.52933  1.0000
  C   C58       1.0  0.27958  0.04412  0.85567  1.0000
  H   H68       1.0  0.26375  0.10216  0.55344  1.0000
  S   S14       1.0  0.22738  0.27210  0.99937  1.0000
  H   H69       1.0  0.30152  0.04432  0.58561  1.0000
  C   C59       1.0  0.24303  0.17862  0.94191  1.0000
  C   C60       1.0  0.23653  0.18962  0.91681  1.0000
  H   H70       1.0  0.35056  0.04747  0.91857  1.0000
  S   S15       1.0  0.16638  0.25544  0.53518  1.0000
  Fe  Fe8       1.0  0.24012  0.24835  0.96709  1.0000
  S   S16       1.0  0.24993  0.25894  0.91728  1.0000
  S   S17       1.0  0.20300  0.20551  0.97849  1.0000
  Fe  Fe9       1.0  0.36624  0.04313  0.78676  1.0000
  S   S18       1.0  0.41094  0.07187  0.80125  1.0000
  S   S19       1.0  0.32954  0.01064  0.81520  1.0000
  Fe  Fe10      1.0  0.37734  0.06545  0.72164  1.0000
  S   S20       1.0  0.42303  0.09610  0.73190  1.0000
  S   S21       1.0  0.36157  0.07018  0.67533  1.0000
  Fe  Fe11      1.0  0.42417  0.06090  0.75762  1.0000
  S   S22       1.0  0.45771  0.04736  0.74881  1.0000
  Fe  Fe12      1.0  0.40672  0.10492  0.77430  1.0000
  S   S23       1.0  0.42258  0.14913  0.79246  1.0000
  S   S24       1.0  0.37918  0.02945  0.74466  1.0000
  S   S25       1.0  0.36136  0.07690  0.76275  1.0000
  Fe  Fe13      1.0  0.39022  0.27269  0.74586  1.0000
  S   S26       1.0  0.38706  0.23145  0.73012  1.0000
  S   S27       1.0  0.34958  0.27080  0.75871  1.0000
  C   C61       1.0  0.39047  0.17359  0.66550  1.0000
  C   C62       1.0  0.00767  0.17329  0.92385  1.0000
  H   H71       1.0  0.21660  0.18946  0.91549  1.0000
  Fe  Fe14      1.0  0.25629  0.24878  0.53389  1.0000
  S   S28       1.0  0.21274  0.21715  0.54936  1.0000
  S   S29       1.0  0.29594  0.26290  0.56259  1.0000
  H   H72       1.0  0.32325  0.23031  0.87941  1.0000
  C   C63       1.0  0.13009  0.24057  0.52582  1.0000
  H   H73       1.0  0.32811  0.99385  0.57291  1.0000
  H   H74       1.0  0.36264  0.04689  0.86500  1.0000
  S   S30       1.0  0.41456  0.30187  0.78329  1.0000
  C   C64       1.0  0.43012  0.16865  0.69992  1.0000
  C   C65       1.0  0.29550  0.99209  0.86511  1.0000
  H   H75       1.0  0.26376  0.27042  0.85492  1.0000
  H   H76       1.0  0.99803  0.15939  0.90420  1.0000
  Fe  Fe15      1.0  0.36356  0.30800  0.72752  1.0000
  C   C66       1.0  0.20544  0.11742  0.99971  1.0000
  C   C67       1.0  0.29260  0.28479  0.64950  1.0000
  C   C68       1.0  0.28440  0.27471  0.62004  1.0000
  C   C69       1.0  0.30266  0.27056  0.60149  1.0000
  H   H77       1.0  0.32027  0.01573  0.54912  1.0000
  H   H78       1.0  0.27884  0.28913  0.66317  1.0000
  H   H79       1.0  0.26452  0.27138  0.61131  1.0000
  C   C70       1.0  0.33443  0.04533  0.65153  1.0000
  C   C71       1.0  0.32009  0.01627  0.65751  1.0000
  N   N6        1.0  0.43090  0.19414  0.69778  1.0000
  C   C72       1.0  0.29233  0.00727  0.61146  1.0000
  C   C73       1.0  0.32751  0.05519  0.62539  1.0000
  H   H80       1.0  0.24432  0.04559  0.90370  1.0000
  H   H81       1.0  0.32513  0.00828  0.67742  1.0000
  C   C74       1.0  0.40929  0.17072  0.77845  1.0000
  C   C75       1.0  0.42108  0.19883  0.78822  1.0000
  C   C76       1.0  0.41292  0.21735  0.77520  1.0000
  C   C77       1.0  0.39291  0.20780  0.75228  1.0000
  C   C78       1.0  0.38007  0.17930  0.74373  1.0000
  C   C79       1.0  0.38824  0.16084  0.75668  1.0000
  H   H82       1.0  0.43729  0.20657  0.80519  1.0000
  H   H83       1.0  0.42309  0.23929  0.78184  1.0000
  H   H84       1.0  0.36442  0.17169  0.72619  1.0000
  H   H85       1.0  0.37884  0.13922  0.74910  1.0000
  C   C80       1.0  0.33509  0.03194  0.90368  1.0000
  C   C81       1.0  0.28232  0.27100  0.89771  1.0000
  C   C82       1.0  0.12167  0.22911  0.98082  1.0000
  C   C83       1.0  0.30207  0.21474  0.87092  1.0000
  C   C84       1.0  0.30774  0.28301  0.84977  1.0000
  C   C85       1.0  0.28282  0.27443  0.86641  1.0000
  C   C86       1.0  0.09916  0.23107  0.96771  1.0000
  C   C87       1.0  0.20873  0.12513  0.50483  1.0000
  H   H86       1.0  0.37270  0.12888  0.65694  1.0000
  C   C88       1.0  0.32912  0.00119  0.54942  1.0000
  H   H87       1.0  0.03165  0.16976  0.97491  1.0000
  H   H88       1.0  0.09988  0.23586  0.94408  1.0000
  H   H89       1.0  0.34471  0.09109  0.82942  1.0000
  C   C89       1.0  0.30816  0.01273  0.91484  1.0000
  C   C90       1.0  0.34202  0.03165  0.87331  1.0000
  C   C91       1.0  0.32216  0.01180  0.85379  1.0000
  H   H90       1.0  0.19303  0.12715  0.99345  1.0000
  H   H91       1.0  0.35022  0.10583  0.88272  1.0000
  C   C92       1.0  0.29932  0.99741  0.63751  1.0000
  H   H92       1.0  0.45388  0.03129  0.81336  1.0000
  H   H93       1.0  0.29830  0.20032  0.56598  1.0000
  C   C93       1.0  0.24919  0.10274  0.57047  1.0000
  C   C94       1.0  0.33029  0.08877  0.87485  1.0000
  C   C95       1.0  0.21092  0.07518  0.00182  1.0000
  H   H94       1.0  0.27435  0.17176  0.96353  1.0000
  C   C96       1.0  0.30653  0.03636  0.60555  1.0000
  H   H95       1.0  0.29599  0.22615  0.85442  1.0000
  Fe  Fe16      1.0  0.19754  0.24112  0.52037  1.0000
  S   S31       1.0  0.36453  0.29846  0.84458  1.0000
  C   C97       1.0  0.30777  0.07427  0.89473  1.0000
  C   C98       1.0  0.30171  0.05804  0.83524  1.0000
  S   S32       1.0  0.19148  0.14534  0.50893  1.0000
  H   H96       1.0  0.34270  0.27180  0.59937  1.0000
  H   H97       1.0  0.31055  0.08026  0.91814  1.0000
  N   N7        1.0  0.99348  0.15870  0.95157  1.0000
  Fe  Fe17      1.0  0.01099  0.23048  0.99017  1.0000
  H   H98       1.0  0.35651  0.28851  0.65157  1.0000
  H   H99       1.0  0.03045  0.17984  0.92415  1.0000
  S   S33       1.0  0.24167  0.27506  0.50786  1.0000
  H   H100      1.0  0.44048  0.04043  0.86360  1.0000
  N   N8        1.0  0.25061  0.13040  0.57060  1.0000
  S   S34       1.0  0.04829  0.23019  0.96731  1.0000
  S   S35       1.0  0.98512  0.27254  0.59008  1.0000
  C   C99       1.0  0.28843  0.99266  0.89538  1.0000
  H   H101      1.0  0.33848  0.07758  0.62044  1.0000
  H   H102      1.0  0.30876  0.19343  0.92192  1.0000
  C   C100      1.0  0.32720  0.08051  0.84493  1.0000
  H   H103      1.0  0.41727  0.99726  0.77954  1.0000
  H   H104      1.0  0.30769  0.28546  0.82572  1.0000
  H   H105      1.0  0.25528  0.20361  0.57429  1.0000
  H   H106      1.0  0.26664  0.04018  0.92957  1.0000
  C   C101      1.0  0.38928  0.14742  0.66792  1.0000
  C   C102      1.0  0.25392  0.18305  0.57325  1.0000
  H   H107      1.0  0.37473  0.17568  0.65270  1.0000
  S   S36       1.0  0.01179  0.27176  0.99754  1.0000
  H   H108      1.0  0.12521  0.27139  0.55143  1.0000
  H   H109      1.0  0.45746  0.21233  0.73559  1.0000
  H   H110      1.0  0.25109  0.21064  0.87456  1.0000
  H   H111      1.0  0.24803  0.01431  0.90176  1.0000
  C   C103      1.0  0.19547  0.08858  0.99343  1.0000
  H   H112      1.0  0.25481  0.09809  0.59286  1.0000
  S   S37       1.0  0.21378  0.00121  0.54301  1.0000
  H   H113      1.0  0.30342  0.19760  0.85898  1.0000
  H   H114      1.0  0.35163  0.01298  0.54277  1.0000
  C   C104      1.0  0.39633  0.01076  0.85762  1.0000
  S   S38       1.0  0.30016  0.01554  0.95285  1.0000
  H   H115      1.0  0.08441  0.29366  0.98902  1.0000
  N   N9        1.0  0.28184  0.20295  0.89567  1.0000
  C   C105      1.0  0.28845  0.19234  0.92031  1.0000
  C   C106      1.0  0.25623  0.20168  0.89370  1.0000
  C   C107      1.0  0.26917  0.18005  0.94381  1.0000
  N   N10       1.0  0.28289  0.05215  0.88504  1.0000
  C   C108      1.0  0.33213  0.28515  0.89562  1.0000
  C   C109      1.0  0.11629  0.21701  0.50723  1.0000
  Fe  Fe18      1.0  0.00418  0.21920  0.50916  1.0000
  C   C110      1.0  0.32840  0.27500  0.61342  1.0000
  C   C111      1.0  0.30714  0.27629  0.91222  1.0000
  C   C112      1.0  0.41176  0.19696  0.68040  1.0000
  C   C113      1.0  0.45291  0.21872  0.71351  1.0000
  C   C114      1.0  0.31881  0.29026  0.66106  1.0000
  C   C115      1.0  0.33259  0.28843  0.86429  1.0000
  H   H116      1.0  0.13947  0.23235  0.96732  1.0000
  H   H117      1.0  0.30714  0.27376  0.93624  1.0000
  C   C116      1.0  0.07593  0.22717  0.98492  1.0000
  H   H118      1.0  0.44510  0.16629  0.71390  1.0000
  H   H119      1.0  0.07493  0.25286  0.53784  1.0000
  C   C117      1.0  0.11483  0.25324  0.53691  1.0000
  C   C118      1.0  0.25930  0.03745  0.90595  1.0000
  H   H120      1.0  0.20642  0.11313  0.57747  1.0000
  C   C119      1.0  0.43206  0.02008  0.82064  1.0000
  H   H121      1.0  0.29943  0.05086  0.81224  1.0000
  Fe  Fe19      1.0  0.37445  0.30249  0.79419  1.0000
  H   H122      1.0  0.35121  0.28933  0.90716  1.0000
  C   C120      1.0  0.37605  0.99149  0.83799  1.0000
  S   S39       1.0  0.33060  0.30841  0.69582  1.0000
  H   H123      1.0  0.00614  0.19284  0.92115  1.0000
  Fe  Fe20      1.0  0.21105  0.19340  0.50754  1.0000
  H   H124      1.0  0.44611  0.23455  0.71816  1.0000
  S   S40       1.0  0.40312  0.30847  0.71278  1.0000
  C   C121      1.0  0.33630  0.28447  0.64308  1.0000
  C   C122      1.0  0.27815  0.18114  0.56862  1.0000
  C   C123      1.0  0.22674  0.13213  0.57529  1.0000
  C   C124      1.0  0.27612  0.15446  0.56742  1.0000
  C   C125      1.0  0.42452  0.02519  0.84878  1.0000
  C   C126      1.0  0.22801  0.15844  0.57645  1.0000
  H   H125      1.0  0.29504  0.15309  0.56382  1.0000
  C   C127      1.0  0.00884  0.15909  0.97597  1.0000
  S   S41       1.0  0.26891  0.24448  0.00006  1.0000
  H   H126      1.0  0.41915  0.30841  0.86921  1.0000
  S   S42       1.0  0.01048  0.26337  0.50791  1.0000
  C   C128      1.0  0.19311  0.09563  0.50877  1.0000
  C   C129      1.0  0.07256  0.21931  0.51051  1.0000
  H   H127      1.0  0.39010  0.01462  0.87937  1.0000
  S   S43       1.0  0.19699  0.03863  0.99356  1.0000
  H   H128      1.0  0.98724  0.29059  0.65078  1.0000
  H   H129      1.0  0.17547  0.07643  0.98222  1.0000
  H   H130      1.0  0.17107  0.08583  0.51477  1.0000
  H   H131      1.0  0.47242  0.22883  0.69985  1.0000
  H   H132      1.0  0.12919  0.29262  0.98925  1.0000
  C   C130      1.0  0.20564  0.07857  0.50471  1.0000
  Fe  Fe21      1.0  0.21430  0.00830  0.00170  1.0000
  Fe  Fe22      1.0  0.24618  0.98696  0.54365  1.0000
  Fe  Fe23      1.0  0.97851  0.24898  0.54575  1.0000
  N   N11       1.0  0.38353  0.98717  0.81013  1.0000
  Fe  Fe24      1.0  0.10058  0.39778  0.24438  1.0000
  S   S44       1.0  0.06434  0.35450  0.25421  1.0000
  S   S45       1.0  0.14012  0.40175  0.22293  1.0000
  Fe  Fe25      1.0  0.06699  0.42819  0.26198  1.0000
  S   S46       1.0  0.02841  0.38644  0.27268  1.0000
  S   S47       1.0  0.07393  0.47227  0.27545  1.0000
  Fe  Fe26      1.0  0.05747  0.37388  0.29565  1.0000
  S   S48       1.0  0.05672  0.36031  0.34461  1.0000
  Fe  Fe27      1.0  0.03857  0.37036  0.23012  1.0000
  C   C131      1.0  0.25867  0.35457  0.39228  1.0000
  S   S49       1.0  0.09576  0.41643  0.28695  1.0000
  S   S50       1.0  0.07521  0.41299  0.21817  1.0000
  Fe  Fe28      1.0  0.05732  0.61514  0.24657  1.0000
  S   S51       1.0  0.02573  0.62800  0.26235  1.0000
  S   S52       1.0  0.04338  0.56840  0.23597  1.0000
  S   S53       1.0  0.07082  0.64505  0.20685  1.0000
  H   H133      1.0  0.31285  0.39004  0.39599  1.0000
  H   H134      1.0  0.36740  0.42221  0.14755  1.0000
  S   S54       1.0  0.09165  0.64685  0.27629  1.0000
  C   C132      1.0  0.27495  0.33311  0.15482  1.0000
  C   C133      1.0  0.04096  0.32925  0.39684  1.0000
  C   C134      1.0  0.06502  0.49860  0.26393  1.0000
  C   C135      1.0  0.04603  0.49425  0.24076  1.0000
  C   C136      1.0  0.03985  0.51581  0.23258  1.0000
  C   C137      1.0  0.05263  0.54221  0.24716  1.0000
  C   C138      1.0  0.07187  0.54666  0.27010  1.0000
  C   C139      1.0  0.07791  0.52503  0.27841  1.0000
  H   H135      1.0  0.03581  0.47416  0.22933  1.0000
  H   H136      1.0  0.02488  0.51192  0.21487  1.0000
  H   H137      1.0  0.08190  0.56668  0.28168  1.0000
  H   H138      1.0  0.09264  0.52883  0.29636  1.0000
  C   C140      1.0  0.16971  0.40567  0.24316  1.0000
  H   H139      1.0  0.18824  0.39784  0.20438  1.0000
  H   H140      1.0  0.05416  0.44066  0.36100  1.0000
  H   H141      1.0  0.31501  0.41066  0.36420  1.0000
  H   H142      1.0  0.05159  0.33558  0.17658  1.0000
  H   H143      1.0  0.22502  0.36647  0.32171  1.0000
  C   C141      1.0  0.99880  0.37794  0.35165  1.0000
  H   H144      1.0  0.26818  0.35094  0.41190  1.0000
  H   H145      1.0  0.01649  0.36505  0.43175  1.0000
  H   H146      1.0  0.06162  0.34472  0.40469  1.0000
  H   H147      1.0  0.31961  0.35014  0.15975  1.0000
  H   H148      1.0  0.32514  0.33063  0.11158  1.0000
  C   C142      1.0  0.01107  0.36896  0.40954  1.0000
  C   C143      1.0  0.99313  0.58202  0.19794  1.0000
  Fe  Fe29      1.0  0.29466  0.37646  0.22755  1.0000
  S   S55       1.0  0.30183  0.42097  0.22744  1.0000
  S   S56       1.0  0.26978  0.34800  0.18806  1.0000
  Fe  Fe30      1.0  0.31475  0.38182  0.29293  1.0000
  S   S57       1.0  0.32374  0.42695  0.29615  1.0000
  S   S58       1.0  0.32319  0.36444  0.33630  1.0000
  Fe  Fe31      1.0  0.28207  0.41093  0.27287  1.0000
  S   S59       1.0  0.25032  0.42199  0.29230  1.0000
  Fe  Fe32      1.0  0.34336  0.43375  0.25045  1.0000
  S   S60       1.0  0.38210  0.47313  0.23023  1.0000
  S   S61       1.0  0.27218  0.36576  0.27223  1.0000
  S   S62       1.0  0.33714  0.38933  0.24813  1.0000
  C   C144      1.0  0.21918  0.41490  0.27306  1.0000
  C   C145      1.0  0.19804  0.41741  0.28834  1.0000
  C   C146      1.0  0.17327  0.41258  0.27355  1.0000
  C   C147      1.0  0.19086  0.40318  0.22788  1.0000
  C   C148      1.0  0.21538  0.40750  0.24281  1.0000
  H   H149      1.0  0.20083  0.42314  0.31174  1.0000
  H   H150      1.0  0.15715  0.41458  0.28553  1.0000
  H   H151      1.0  0.23149  0.40547  0.23083  1.0000
  C   C149      1.0  0.41307  0.50389  0.24372  1.0000
  C   C150      1.0  0.42078  0.50787  0.27396  1.0000
  C   C151      1.0  0.44568  0.53231  0.28325  1.0000
  C   C152      1.0  0.46329  0.55339  0.26264  1.0000
  C   C153      1.0  0.45551  0.54948  0.23239  1.0000
  C   C154      1.0  0.43074  0.52492  0.22307  1.0000
  H   H152      1.0  0.40762  0.49208  0.29025  1.0000
  N   N12       1.0  0.02388  0.39685  0.36441  1.0000
  H   H153      1.0  0.42511  0.52234  0.19965  1.0000
  C   C155      1.0  0.00576  0.58966  0.14564  1.0000
  H   H154      1.0  0.05074  0.40662  0.40233  1.0000
  C   C156      1.0  0.23155  0.33389  0.38394  1.0000
  H   H155      1.0  0.02150  0.57038  0.17694  1.0000
  C   C157      1.0  0.03031  0.39240  0.39281  1.0000
  C   C158      1.0  0.00804  0.57966  0.17373  1.0000
  S   S63       1.0  0.00515  0.34460  0.19499  1.0000
  C   C159      1.0  0.26137  0.38298  0.35056  1.0000
  C   C160      1.0  0.98871  0.60191  0.14209  1.0000
  C   C161      1.0  0.30187  0.39987  0.38419  1.0000
  N   N13       1.0  0.12957  0.49005  0.21712  1.0000
  C   C162      1.0  0.13904  0.49516  0.24602  1.0000
  C   C163      1.0  0.13809  0.47611  0.19807  1.0000
  C   C164      1.0  0.15777  0.48648  0.25641  1.0000
  C   C165      1.0  0.15716  0.46759  0.20757  1.0000
  C   C166      1.0  0.16691  0.47268  0.23698  1.0000
  C   C167      1.0  0.10875  0.49783  0.20695  1.0000
  H   H156      1.0  0.13173  0.50553  0.26140  1.0000
  H   H157      1.0  0.12972  0.47099  0.17554  1.0000
  H   H158      1.0  0.16471  0.48992  0.27952  1.0000
  H   H159      1.0  0.16346  0.45600  0.19265  1.0000
  H   H160      1.0  0.18094  0.46521  0.24483  1.0000
  H   H161      1.0  0.11219  0.50463  0.18314  1.0000
  H   H162      1.0  0.08724  0.47940  0.20957  1.0000
  H   H163      1.0  0.10989  0.51559  0.22027  1.0000
  H   H164      1.0  0.01743  0.58819  0.12675  1.0000
  H   H165      1.0  0.98721  0.61032  0.12049  1.0000
  C   C168      1.0  0.30145  0.33777  0.14580  1.0000
  H   H166      1.0  0.27281  0.40218  0.33746  1.0000
  C   C169      1.0  0.29991  0.33476  0.35862  1.0000
  C   C170      1.0  0.30778  0.33250  0.38812  1.0000
  H   H167      1.0  0.45127  0.53494  0.30670  1.0000
  C   C171      1.0  0.23426  0.36284  0.34162  1.0000
  H   H168      1.0  0.99407  0.38086  0.32878  1.0000
  H   H169      1.0  0.46835  0.56548  0.21617  1.0000
  N   N14       1.0  0.33951  0.43705  0.16086  1.0000
  C   C172      1.0  0.31516  0.41362  0.15233  1.0000
  C   C173      1.0  0.33967  0.46178  0.16695  1.0000
  C   C174      1.0  0.29011  0.41451  0.14957  1.0000
  C   C175      1.0  0.31503  0.46351  0.16421  1.0000
  C   C176      1.0  0.29009  0.43965  0.15555  1.0000
  C   C177      1.0  0.36491  0.43483  0.16554  1.0000
  H   H170      1.0  0.31480  0.39382  0.14845  1.0000
  H   H171      1.0  0.35871  0.48008  0.17487  1.0000
  H   H172      1.0  0.27071  0.39545  0.14390  1.0000
  H   H173      1.0  0.31513  0.48295  0.16978  1.0000
  H   H174      1.0  0.27063  0.44040  0.15427  1.0000
  H   H175      1.0  0.38418  0.45598  0.16584  1.0000
  H   H176      1.0  0.36352  0.42454  0.18753  1.0000
  H   H177      1.0  0.06183  0.41716  0.33963  1.0000
  N   N15       1.0  0.27343  0.37844  0.37525  1.0000
  C   C178      1.0  0.21938  0.33804  0.35831  1.0000
  H   H178      1.0  0.30090  0.41579  0.39881  1.0000
  C   C179      1.0  0.04479  0.42123  0.34718  1.0000
  H   H179      1.0  0.03547  0.42557  0.32707  1.0000
  H   H180      1.0  0.99526  0.57436  0.21972  1.0000
  C   C180      1.0  0.98532  0.34977  0.39687  1.0000
  H   H181      1.0  0.32796  0.34854  0.39651  1.0000
  C   C181      1.0  0.03513  0.32625  0.15995  1.0000
  C   C182      1.0  0.01075  0.32834  0.16318  1.0000
  H   H182      1.0  0.99428  0.63797  0.46274  1.0000
  C   C183      1.0  0.30450  0.32660  0.11849  1.0000
  C   C184      1.0  0.03307  0.33115  0.36725  1.0000
  C   C185      1.0  0.97912  0.35420  0.36771  1.0000
  C   C186      1.0  0.99072  0.65302  0.47623  1.0000
  H   H183      1.0  0.19854  0.32205  0.35129  1.0000
  S   S64       1.0  0.38583  0.34036  0.76434  1.0000
  H   H184      1.0  0.41613  0.35015  0.85266  1.0000
  H   H185      1.0  0.27566  0.33501  0.59236  1.0000
  Fe  Fe33      1.0  0.42478  0.33822  0.75151  1.0000
  H   H186      1.0  0.39163  0.37819  0.62963  1.0000
  H   H187      1.0  0.30837  0.32707  0.56046  1.0000
  C   C187      1.0  0.43646  0.32514  0.85676  1.0000
  H   H188      1.0  0.44256  0.38802  0.79761  1.0000
  C   C188      1.0  0.43484  0.34886  0.84729  1.0000
  H   H189      1.0  0.33580  0.36170  0.66384  1.0000
  C   C189      1.0  0.99067  0.63131  0.79275  1.0000
  C   C190      1.0  0.45325  0.39354  0.81971  1.0000
  H   H190      1.0  0.44076  0.39882  0.83536  1.0000
  H   H191      1.0  0.38184  0.34134  0.62508  1.0000
  H   H192      1.0  0.46669  0.42517  0.75609  1.0000
  N   N16       1.0  0.45612  0.36970  0.83084  1.0000
  N   N17       1.0  0.34800  0.35033  0.62315  1.0000
  C   C191      1.0  0.30409  0.34982  0.62994  1.0000
  C   C192      1.0  0.37542  0.35607  0.63481  1.0000
  H   H193      1.0  0.98694  0.61004  0.79688  1.0000
  H   H194      1.0  0.37454  0.35275  0.65948  1.0000
  C   C193      1.0  0.33025  0.35501  0.64080  1.0000
  C   C194      1.0  0.99775  0.65042  0.81635  1.0000
  S   S65       1.0  0.47178  0.37351  0.74968  1.0000
  C   C195      1.0  0.29625  0.33999  0.60078  1.0000
  H   H195      1.0  0.35444  0.33692  0.58049  1.0000
  C   C196      1.0  0.34066  0.34114  0.59436  1.0000
  C   C197      1.0  0.98776  0.63957  0.76399  1.0000
  H   H196      1.0  0.98243  0.62502  0.74542  1.0000
  C   C198      1.0  0.31465  0.33570  0.58279  1.0000
  H   H197      1.0  0.28969  0.35257  0.64439  1.0000
  H   H198      1.0  0.99961  0.64361  0.83869  1.0000
  H   H199      1.0  0.47418  0.41277  0.81688  1.0000
  C   C199      1.0  0.45985  0.32265  0.84891  1.0000
  H   H200      1.0  0.46262  0.94294  0.25574  1.0000
  C   C200      1.0  0.11868  0.72496  0.15659  1.0000
  C   C201      1.0  0.45882  0.90254  0.26666  1.0000
  H   H201      1.0  0.20849  0.73156  0.28820  1.0000
  C   C202      1.0  0.40620  0.84628  0.20604  1.0000
  H   H202      1.0  0.44739  0.85985  0.27856  1.0000
  H   H203      1.0  0.17123  0.92507  0.43451  1.0000
  Fe  Fe34      1.0  0.23524  0.97708  0.04392  1.0000
  S   S66       1.0  0.24121  0.94345  0.43984  1.0000
  H   H204      1.0  0.11255  0.73878  0.33075  1.0000
  C   C203      1.0  0.19918  0.75846  0.31550  1.0000
  C   C204      1.0  0.29706  0.97723  0.36992  1.0000
  S   S67       1.0  0.22115  0.82902  0.27575  1.0000
  Fe  Fe35      1.0  0.10271  0.67748  0.23797  1.0000
  S   S68       1.0  0.07463  0.69422  0.25270  1.0000
  S   S69       1.0  0.14739  0.70614  0.22195  1.0000
  C   C205      1.0  0.20060  0.79658  0.25718  1.0000
  C   C206      1.0  0.21255  0.78488  0.23833  1.0000
  C   C207      1.0  0.19583  0.75739  0.22700  1.0000
  C   C208      1.0  0.16719  0.74139  0.23458  1.0000
  C   C209      1.0  0.15510  0.75344  0.25270  1.0000
  C   C210      1.0  0.17172  0.78095  0.26379  1.0000
  H   H205      1.0  0.23480  0.79671  0.23319  1.0000
  H   H206      1.0  0.20533  0.74825  0.21292  1.0000
  H   H207      1.0  0.13316  0.74137  0.25885  1.0000
  H   H208      1.0  0.16238  0.78989  0.27838  1.0000
  C   C211      1.0  0.04167  0.68423  0.36029  1.0000
  S   S70       1.0  0.98433  0.74786  0.04502  1.0000
  C   C212      1.0  0.16276  0.86174  0.03509  1.0000
  C   C213      1.0  0.00625  0.69556  0.39780  1.0000
  C   C214      1.0  0.03326  0.70228  0.40731  1.0000
  C   C215      1.0  0.05074  0.69649  0.38874  1.0000
  H   H209      1.0  0.04065  0.71179  0.42901  1.0000
  C   C216      1.0  0.46422  0.87642  0.19957  1.0000
  C   C217      1.0  0.25561  0.92424  0.38968  1.0000
  H   H210      1.0  0.26647  0.90794  0.35076  1.0000
  H   H211      1.0  0.23963  0.90354  0.39720  1.0000
  H   H212      1.0  0.35509  0.97946  0.21396  1.0000
  N   N18       1.0  0.08604  0.73909  0.17463  1.0000
  H   H213      1.0  0.07141  0.70149  0.39656  1.0000
  H   H214      1.0  0.11427  0.73290  0.20261  1.0000
  C   C218      1.0  0.01203  0.68657  0.09462  1.0000
  C   C219      1.0  0.28172  0.97484  0.39629  1.0000
  C   C220      1.0  0.01367  0.67682  0.15699  1.0000
  H   H215      1.0  0.18937  0.91290  0.10195  1.0000
  C   C221      1.0  0.02798  0.67465  0.10591  1.0000
  H   H216      1.0  0.22284  0.91678  0.06230  1.0000
  C   C222      1.0  0.31501  0.98338  0.24328  1.0000
  C   C223      1.0  0.28156  0.95724  0.10362  1.0000
  S   S71       1.0  0.01185  0.69213  0.05532  1.0000
  H   H217      1.0  0.31699  0.95117  0.11335  1.0000
  C   C224      1.0  0.02913  0.67015  0.13691  1.0000
  H   H218      1.0  0.12322  0.69589  0.31903  1.0000
  H   H219      1.0  0.11799  0.71804  0.10908  1.0000
  Fe  Fe36      1.0  0.30319  0.91010  0.22042  1.0000
  S   S72       1.0  0.29614  0.86600  0.22816  1.0000
  S   S73       1.0  0.31009  0.92943  0.17330  1.0000
  Fe  Fe37      1.0  0.30569  0.92191  0.28814  1.0000
  S   S74       1.0  0.29931  0.87898  0.30028  1.0000
  S   S75       1.0  0.31171  0.95733  0.32011  1.0000
  Fe  Fe38      1.0  0.33043  0.88550  0.26329  1.0000
  S   S76       1.0  0.36230  0.86913  0.26796  1.0000
  Fe  Fe39      1.0  0.26604  0.86298  0.26432  1.0000
  S   S77       1.0  0.33909  0.92974  0.25351  1.0000
  S   S78       1.0  0.27092  0.90583  0.25414  1.0000
  H   H220      1.0  0.18323  0.78092  0.34070  1.0000
  C   C225      1.0  0.43970  0.87442  0.27414  1.0000
  C   C226      1.0  0.41047  0.86494  0.27544  1.0000
  C   C227      1.0  0.39974  0.88333  0.26939  1.0000
  C   C228      1.0  0.41892  0.91164  0.26276  1.0000
  C   C229      1.0  0.44814  0.92109  0.26132  1.0000
  H   H221      1.0  0.18085  0.89939  0.44570  1.0000
  H   H222      1.0  0.39599  0.84304  0.28082  1.0000
  H   H223      1.0  0.41122  0.92618  0.25822  1.0000
  C   C230      1.0  0.29174  0.95318  0.35322  1.0000
  C   C231      1.0  0.27083  0.92665  0.36327  1.0000
  C   C232      1.0  0.26088  0.94825  0.40635  1.0000
  C   C233      1.0  0.18203  0.89837  0.08324  1.0000
  Fe  Fe40      1.0  0.06109  0.66181  0.28957  1.0000
  H   H224      1.0  0.05887  0.74180  0.14199  1.0000
  C   C234      1.0  0.25653  0.95503  0.11442  1.0000
  C   C235      1.0  0.29728  0.94866  0.12168  1.0000
  C   C236      1.0  0.28799  0.93728  0.15051  1.0000
  C   C237      1.0  0.26242  0.93413  0.16088  1.0000
  C   C238      1.0  0.08693  0.87044  0.01097  1.0000
  H   H225      1.0  0.13508  0.71964  0.16118  1.0000
  C   C239      1.0  0.45126  0.84816  0.20851  1.0000
  S   S79       1.0  0.24017  0.95297  0.00579  1.0000
  C   C240      1.0  0.17805  0.76078  0.33075  1.0000
  H   H226      1.0  0.15539  0.84810  0.01567  1.0000
  H   H227      1.0  0.22768  0.94144  0.15170  1.0000
  C   C241      1.0  0.19259  0.73321  0.30119  1.0000
  H   H228      1.0  0.14543  0.85158  0.45373  1.0000
  Fe  Fe41      1.0  0.23803  0.97188  0.47570  1.0000
  C   C242      1.0  0.12882  0.74102  0.34720  1.0000
  C   C243      1.0  0.20085  0.90061  0.06093  1.0000
  H   H229      1.0  0.28301  0.97310  0.27695  1.0000
  H   H230      1.0  0.45817  0.91140  0.18827  1.0000
  H   H231      1.0  0.39658  0.88587  0.16770  1.0000
  H   H232      1.0  0.20539  0.88471  0.01843  1.0000
  N   N19       1.0  0.15118  0.73840  0.33198  1.0000
  H   H233      1.0  0.25493  0.92537  0.18295  1.0000
  C   C244      1.0  0.07621  0.73784  0.14618  1.0000
  C   C245      1.0  0.99755  0.68850  0.14572  1.0000
  H   H234      1.0  0.38256  0.87804  0.20535  1.0000
  H   H235      1.0  0.03969  0.66905  0.09051  1.0000
  C   C246      1.0  0.14462  0.71347  0.31828  1.0000
  H   H236      1.0  0.13690  0.76167  0.35862  1.0000
  H   H237      1.0  0.09531  0.81433  0.45243  1.0000
  C   C247      1.0  0.16516  0.71051  0.30258  1.0000
  H   H238      1.0  0.10084  0.84653  0.05927  1.0000
  H   H239      1.0  0.41181  0.81106  0.21914  1.0000
  H   H240      1.0  0.05823  0.82764  0.44682  1.0000
  C   C248      1.0  0.44777  0.88916  0.19422  1.0000
  C   C249      1.0  0.24701  0.94326  0.14308  1.0000
  H   H241      1.0  0.15964  0.69108  0.29074  1.0000
  C   C250      1.0  0.10115  0.83637  0.44931  1.0000
  S   S80       1.0  0.99914  0.76894  0.46856  1.0000
  N   N20       1.0  0.41917  0.87418  0.19783  1.0000
  S   S81       1.0  0.06461  0.67708  0.33805  1.0000
  C   C251      1.0  0.12942  0.85756  0.45025  1.0000
  H   H242      1.0  0.38357  0.83454  0.20936  1.0000
  Fe  Fe42      1.0  0.99210  0.71372  0.02758  1.0000
  H   H243      1.0  0.08839  0.75588  0.21835  1.0000
  Fe  Fe43      1.0  0.98607  0.72272  0.46574  1.0000
  C   C252      1.0  0.08026  0.84387  0.44629  1.0000
  H   H244      1.0  0.10929  0.82632  0.03422  1.0000
  N   N21       1.0  0.14444  0.85957  0.05717  1.0000
  H   H245      1.0  0.98270  0.80314  0.04280  1.0000
  N   N22       1.0  0.13665  0.88545  0.44809  1.0000
  H   H246      1.0  0.17042  0.91629  0.47356  1.0000
  H   H247      1.0  0.00260  0.67433  0.46577  1.0000
  C   C253      1.0  0.10679  0.73248  0.18005  1.0000
  S   S82       1.0  0.19196  0.96828  0.02945  1.0000
  C   C254      1.0  0.16620  0.90754  0.45057  1.0000
  C   C255      1.0  0.19117  0.88238  0.03655  1.0000
  C   C256      1.0  0.99716  0.68321  0.36941  1.0000
  H   H248      1.0  0.25025  0.97778  0.24171  1.0000
  C   C257      1.0  0.08781  0.87236  0.44442  1.0000
  H   H249      1.0  0.07166  0.87844  0.44345  1.0000
  H   H250      1.0  0.13916  0.87621  0.09827  1.0000
  S   S83       1.0  0.03688  0.81995  0.01208  1.0000
  H   H251      1.0  0.11842  0.72398  0.36427  1.0000
  H   H252      1.0  0.00738  0.66829  0.32897  1.0000
  C   C258      1.0  0.11627  0.89302  0.44565  1.0000
  C   C259      1.0  0.08782  0.73068  0.12212  1.0000
  C   C260      1.0  0.99693  0.69362  0.11479  1.0000
  H   H253      1.0  0.12194  0.91517  0.44586  1.0000
  H   H254      1.0  0.06637  0.76137  0.19256  1.0000
  C   C261      1.0  0.15371  0.87764  0.08097  1.0000
  H   H255      1.0  0.05462  0.72663  0.20804  1.0000
  C   C262      1.0  0.01476  0.67775  0.35069  1.0000
  H   H256      1.0  0.07968  0.72939  0.09963  1.0000
  C   C263      1.0  0.07326  0.74611  0.19961  1.0000
  C   C264      1.0  0.42204  0.83289  0.21164  1.0000
  S   S84       1.0  0.01289  0.67002  0.19609  1.0000
  H   H257      1.0  0.22018  0.77664  0.31356  1.0000
  C   C265      1.0  0.10913  0.72411  0.12744  1.0000
  S   S85       1.0  0.23727  0.96819  0.09408  1.0000
  H   H258      1.0  0.30395  0.96332  0.45495  1.0000
  H   H259      1.0  0.41385  0.91050  0.19799  1.0000
  H   H260      1.0  0.12641  0.91000  0.01207  1.0000
  H   H261      1.0  0.98536  0.69360  0.16099  1.0000
  H   H262      1.0  0.07629  0.87791  0.02568  1.0000
  H   H263      1.0  0.28927  0.96634  0.08171  1.0000
  H   H264      1.0  0.98442  0.70262  0.10649  1.0000
  C   C266      1.0  0.40223  0.88779  0.19175  1.0000
  C   C267      1.0  0.11485  0.83732  0.05613  1.0000
  H   H265      1.0  0.11049  0.82136  0.07389  1.0000
  H   H266      1.0  0.04164  0.66115  0.14518  1.0000
  S   S86       1.0  0.98248  0.70086  0.42072  1.0000
  C   C268      1.0  0.28097  0.93357  0.49008  1.0000
  C   C269      1.0  0.27066  0.98162  0.23396  1.0000
  Fe  Fe44      1.0  0.04176  0.65970  0.22421  1.0000
  H   H267      1.0  0.46394  0.83836  0.21366  1.0000
  C   C270      1.0  0.28899  0.97894  0.25372  1.0000
  H   H268      1.0  0.32907  0.98114  0.25886  1.0000
  Fe  Fe45      1.0  0.00734  0.77261  0.00382  1.0000
  C   C271      1.0  0.11540  0.88873  0.00332  1.0000
  H   H269      1.0  0.26809  0.91666  0.47471  1.0000
  C   C272      1.0  0.30116  0.95984  0.47896  1.0000
  C   C273      1.0  0.31689  0.98179  0.49889  1.0000
  S   S87       1.0  0.20625  0.98656  0.47097  1.0000
  H   H270      1.0  0.99944  0.65411  0.49897  1.0000
  H   H271      1.0  0.12663  0.83823  0.52664  1.0000
  H   H272      1.0  0.28005  0.97644  0.85029  1.0000
  H   H273      1.0  0.36911  0.97039  0.76635  1.0000
  S   S88       1.0  0.98355  0.75876  0.54054  1.0000
  C   C274      1.0  0.29305  0.95185  0.54021  1.0000
  C   C275      1.0  0.07225  0.84256  0.00010  1.0000
  H   H274      1.0  0.07536  0.81207  0.97224  1.0000
  H   H275      1.0  0.28855  0.97498  0.64234  1.0000
  C   C276      1.0  0.27674  0.92952  0.52089  1.0000
  H   H276      1.0  0.99149  0.68966  0.60375  1.0000
  C   C277      1.0  0.11995  0.89715  0.51968  1.0000
  H   H277      1.0  0.98875  0.67279  0.73682  1.0000
  S   S89       1.0  0.13979  0.93464  0.51566  1.0000
  H   H278      1.0  0.99015  0.82863  0.99490  1.0000
  H   H279      1.0  0.28927  0.94863  0.56413  1.0000
  S   S90       1.0  0.21839  0.94706  0.51794  1.0000
  C   C278      1.0  0.99850  0.68513  0.78331  1.0000
  C   C279      1.0  0.07396  0.85375  0.51825  1.0000
  H   H280      1.0  0.15547  0.89064  0.52534  1.0000
  C   C280      1.0  0.08632  0.83336  0.98095  1.0000
  C   C281      1.0  0.13284  0.88057  0.52331  1.0000
  H   H281      1.0  0.26775  0.97753  0.90366  1.0000
  H   H282      1.0  0.35603  0.94497  0.79673  1.0000
  H   H283      1.0  0.00465  0.68632  0.85830  1.0000
  N   N23       1.0  0.00148  0.67692  0.81147  1.0000
  Fe  Fe46      1.0  0.18773  0.96289  0.51406  1.0000
  H   H284      1.0  0.03319  0.71172  0.83532  1.0000
  H   H285      1.0  0.12528  0.84442  0.95807  1.0000
  S   S91       1.0  0.01696  0.73931  0.98725  1.0000
  S   S92       1.0  0.06774  0.79955  0.51928  1.0000
  C   C282      1.0  0.11469  0.85178  0.97299  1.0000
  H   H286      1.0  0.99568  0.66876  0.65183  1.0000
  C   C283      1.0  0.12948  0.87953  0.98418  1.0000
  C   C284      1.0  0.08691  0.83717  0.52113  1.0000
  C   C285      1.0  0.36183  0.96686  0.79001  1.0000
  H   H287      1.0  0.00151  0.70614  0.77937  1.0000
  S   S93       1.0  0.26701  0.98219  0.58630  1.0000
  H   H288      1.0  0.99912  0.70977  0.83491  1.0000
  C   C286      1.0  0.11640  0.85081  0.52411  1.0000
  S   S94       1.0  0.16572  0.90117  0.97463  1.0000
  C   C287      1.0  0.99147  0.66654  0.75918  1.0000
  Fe  Fe47      1.0  0.02094  0.76848  0.51115  1.0000
  S   S95       1.0  0.00920  0.72227  0.50727  1.0000
  C   C288      1.0  0.01011  0.69718  0.83615  1.0000
  N   N24       1.0  0.31294  0.97753  0.52911  1.0000
  C   C289      1.0  0.09040  0.88354  0.51764  1.0000
  S   S96       1.0  0.21678  0.98498  0.96116  1.0000
  H   H289      1.0  0.26053  0.90942  0.52975  1.0000
  Fe  Fe48      1.0  0.19766  0.94586  0.99046  1.0000
  H   H290      1.0  0.08016  0.89612  0.51504  1.0000
  H   H291      1.0  0.35414  0.98042  0.84495  1.0000
  H   H292      1.0  0.05132  0.84363  0.51611  1.0000
  H   H293      1.0  0.34272  0.96921  0.79076  1.0000
  N   N25       1.0  0.65442  0.99049  0.19227  1.0000
  H   H294      1.0  0.91316  0.18959  0.08105  1.0000
  H   H295      1.0  0.94201  0.25138  0.15118  1.0000
  C   C290      1.0  0.87429  0.11520  0.48619  1.0000
  S   S97       1.0  0.94981  0.23521  0.02942  1.0000
  N   N26       1.0  0.96763  0.23273  0.14213  1.0000
  H   H296      1.0  0.84973  0.02700  0.45888  1.0000
  H   H297      1.0  0.97071  0.31765  0.14341  1.0000
  H   H298      1.0  0.87333  0.05093  0.48609  1.0000
  C   C291      1.0  0.92496  0.22108  0.11563  1.0000
  H   H299      1.0  0.88307  0.09447  0.05461  1.0000
  S   S98       1.0  0.80438  0.03803  0.47409  1.0000
  H   H300      1.0  0.90711  0.22429  0.11187  1.0000
  C   C292      1.0  0.85317  0.08972  0.47362  1.0000
  C   C293      1.0  0.87255  0.10026  0.03779  1.0000
  S   S99       1.0  0.96754  0.20133  0.47699  1.0000
  H   H301      1.0  0.85518  0.08481  0.45064  1.0000
  Fe  Fe49      1.0  0.76267  0.00494  0.49475  1.0000
  H   H302      1.0  0.65205  0.01896  0.16139  1.0000
  C   C294      1.0  0.92836  0.20169  0.09830  1.0000
  S   S100      1.0  0.92155  0.15177  0.03682  1.0000
  H   H303      1.0  0.69291  0.99331  0.17757  1.0000
  C   C295      1.0  0.94479  0.23635  0.13776  1.0000
  S   S101      1.0  0.71981  0.00864  0.02048  1.0000
  C   C296      1.0  0.84478  0.08040  0.02929  1.0000
  H   H304      1.0  0.65872  0.99266  0.14457  1.0000
  Fe  Fe50      1.0  0.97287  0.24516  0.47732  1.0000
  Fe  Fe51      1.0  0.95217  0.19602  0.01883  1.0000
  C   C297      1.0  0.88665  0.12748  0.02489  1.0000
  H   H305      1.0  0.95542  0.12336  0.02552  1.0000
  H   H306      1.0  0.83421  0.05963  0.03952  1.0000
  C   C298      1.0  0.64768  0.98684  0.46761  1.0000
  H   H307      1.0  0.87795  0.02203  0.47365  1.0000
  S   S102      1.0  0.96934  0.26301  0.43181  1.0000
  H   H308      1.0  0.95456  0.18327  0.08937  1.0000
  C   C299      1.0  0.96617  0.13295  0.00466  1.0000
  H   H309      1.0  0.89229  0.12966  0.47292  1.0000
  C   C300      1.0  0.67905  0.99005  0.19638  1.0000
  Fe  Fe52      1.0  0.76329  0.01745  0.00725  1.0000
  C   C301      1.0  0.86206  0.02836  0.47924  1.0000
  C   C302      1.0  0.82953  0.07064  0.49048  1.0000
  H   H310      1.0  0.67575  0.03155  0.46428  1.0000
  C   C303      1.0  0.95168  0.19815  0.10294  1.0000
  C   C304      1.0  0.66389  0.01396  0.47944  1.0000
  H   H311      1.0  0.97604  0.29198  0.10008  1.0000
  C   C305      1.0  0.97129  0.21401  0.12499  1.0000
  H   H312      1.0  0.96638  0.27497  0.36970  1.0000
  C   C306      1.0  0.83067  0.08760  0.00783  1.0000
  S   S103      1.0  0.72273  0.00741  0.49228  1.0000
  C   C307      1.0  0.64711  0.99660  0.16264  1.0000
  C   C308      1.0  0.87269  0.13458  0.00319  1.0000
  S   S104      1.0  0.96679  0.20860  0.97123  1.0000
  H   H313      1.0  0.88315  0.15540  0.99308  1.0000
  H   H314      1.0  0.77415  0.09494  0.88908  1.0000
  H   H315      1.0  0.92131  0.30612  0.86483  1.0000
  S   S105      1.0  0.94516  0.26822  0.95366  1.0000
  C   C309      1.0  0.86957  0.23940  0.88991  1.0000
  Fe  Fe53      1.0  0.85391  0.28245  0.77055  1.0000
  S   S106      1.0  0.81221  0.25031  0.79164  1.0000
  S   S107      1.0  0.88369  0.26785  0.75536  1.0000
  Fe  Fe54      1.0  0.66605  0.05526  0.79325  1.0000
  S   S108      1.0  0.66129  0.09421  0.79219  1.0000
  S   S109      1.0  0.69184  0.04638  0.82808  1.0000
  Fe  Fe55      1.0  0.64556  0.04037  0.72794  1.0000
  S   S110      1.0  0.63903  0.07797  0.72271  1.0000
  S   S111      1.0  0.63726  0.00698  0.69224  1.0000
  Fe  Fe56      1.0  0.68069  0.10224  0.74647  1.0000
  S   S112      1.0  0.71397  0.14357  0.72559  1.0000
  Fe  Fe57      1.0  0.61947  0.06711  0.76875  1.0000
  S   S113      1.0  0.58370  0.07559  0.78407  1.0000
  S   S114      1.0  0.68816  0.06533  0.74855  1.0000
  S   S115      1.0  0.62326  0.02743  0.77286  1.0000
  C   C310      1.0  0.88980  0.21889  0.85734  1.0000
  C   C311      1.0  0.68974  0.04860  0.96762  1.0000
  S   S116      1.0  0.70962  0.02062  0.57428  1.0000
  Fe  Fe58      1.0  0.91533  0.30226  0.78503  1.0000
  C   C312      1.0  0.49311  0.05628  0.75853  1.0000
  Fe  Fe59      1.0  0.89681  0.30102  0.71936  1.0000
  H   H316      1.0  0.70197  0.99524  0.70111  1.0000
  H   H317      1.0  0.69479  0.18688  0.75181  1.0000
  C   C313      1.0  0.76057  0.07505  0.93232  1.0000
  C   C314      1.0  0.96475  0.14575  0.95319  1.0000
  C   C315      1.0  0.65814  0.01101  0.65999  1.0000
  Fe  Fe60      1.0  0.93913  0.19176  0.51692  1.0000
  C   C316      1.0  0.73818  0.06284  0.95262  1.0000
  C   C317      1.0  0.69007  0.01577  0.60784  1.0000
  C   C318      1.0  0.69561  0.03973  0.62477  1.0000
  C   C319      1.0  0.67998  0.03738  0.65080  1.0000
  S   S117      1.0  0.97540  0.20618  0.54912  1.0000
  C   C320      1.0  0.88400  0.22434  0.88618  1.0000
  H   H318      1.0  0.71215  0.06034  0.61768  1.0000
  H   H319      1.0  0.68455  0.05607  0.66347  1.0000
  C   C321      1.0  0.54872  0.06752  0.77354  1.0000
  C   C322      1.0  0.53594  0.08107  0.78853  1.0000
  C   C323      1.0  0.50848  0.07564  0.78106  1.0000
  H   H320      1.0  0.69145  0.03290  0.98221  1.0000
  C   C324      1.0  0.50592  0.04277  0.74352  1.0000
  C   C325      1.0  0.53350  0.04845  0.75076  1.0000
  H   H321      1.0  0.54737  0.09592  0.80614  1.0000
  H   H322      1.0  0.66918  0.03673  0.95596  1.0000
  H   H323      1.0  0.54280  0.03777  0.73892  1.0000
  C   C326      1.0  0.92334  0.28747  0.64771  1.0000
  C   C327      1.0  0.91708  0.27930  0.61756  1.0000
  C   C328      1.0  0.93557  0.27448  0.59964  1.0000
  Fe  Fe61      1.0  0.71662  0.99292  0.54062  1.0000
  H   H324      1.0  0.78033  0.07573  0.93755  1.0000
  H   H325      1.0  0.68975  0.06528  0.98181  1.0000
  H   H326      1.0  0.93025  0.26789  0.57664  1.0000
  H   H327      1.0  0.66696  0.17942  0.77794  1.0000
  C   C329      1.0  0.75715  0.08594  0.90529  1.0000
  C   C330      1.0  0.78611  0.21991  0.77301  1.0000
  C   C331      1.0  0.76461  0.19803  0.78990  1.0000
  C   C332      1.0  0.74291  0.17399  0.77583  1.0000
  C   C333      1.0  0.74220  0.17195  0.74462  1.0000
  C   C334      1.0  0.76372  0.19380  0.72775  1.0000
  C   C335      1.0  0.78575  0.21752  0.74186  1.0000
  H   H328      1.0  0.76470  0.19972  0.81401  1.0000
  H   H329      1.0  0.72654  0.15732  0.78910  1.0000
  H   H330      1.0  0.76332  0.19243  0.70360  1.0000
  H   H331      1.0  0.80210  0.23425  0.72859  1.0000
  C   C336      1.0  0.94459  0.28544  0.85218  1.0000
  C   C337      1.0  0.94666  0.27574  0.91458  1.0000
  C   C338      1.0  0.93307  0.29028  0.90373  1.0000
  C   C339      1.0  0.93192  0.29501  0.87276  1.0000
  H   H332      1.0  0.84636  0.10772  0.55569  1.0000
  C   C340      1.0  0.86644  0.24312  0.83726  1.0000
  C   C341      1.0  0.96100  0.27847  0.61146  1.0000
  C   C342      1.0  0.73155  0.08473  0.89899  1.0000
  C   C343      1.0  0.70644  0.02197  0.87362  1.0000
  C   C344      1.0  0.68465  0.02540  0.86107  1.0000
  C   C345      1.0  0.65862  0.01323  0.87570  1.0000
  H   H333      1.0  0.67972  0.15465  0.77306  1.0000
  H   H334      1.0  0.64161  0.01559  0.86635  1.0000
  H   H335      1.0  0.72662  0.03111  0.86243  1.0000
  N   N27       1.0  0.66536  0.01814  0.50971  1.0000
  H   H336      1.0  0.72160  0.01747  0.73178  1.0000
  S   S118      1.0  0.94284  0.28966  0.81275  1.0000
  C   C346      1.0  0.95873  0.27146  0.86308  1.0000
  H   H337      1.0  0.88630  0.22520  0.81017  1.0000
  N   N28       1.0  0.65370  0.15485  0.73812  1.0000
  C   C347      1.0  0.62615  0.13794  0.74614  1.0000
  C   C348      1.0  0.66175  0.15673  0.70882  1.0000
  C   C349      1.0  0.60574  0.12281  0.72449  1.0000
  C   C350      1.0  0.64194  0.14159  0.68665  1.0000
  C   C351      1.0  0.61374  0.12457  0.69460  1.0000
  C   C352      1.0  0.67478  0.16975  0.76139  1.0000
  H   H338      1.0  0.61983  0.13564  0.76948  1.0000
  H   H339      1.0  0.68372  0.16950  0.70252  1.0000
  H   H340      1.0  0.58396  0.10920  0.73104  1.0000
  H   H341      1.0  0.64858  0.14267  0.66359  1.0000
  H   H342      1.0  0.59817  0.11234  0.67778  1.0000
  C   C353      1.0  0.84237  0.02077  0.53016  1.0000
  C   C354      1.0  0.65129  0.99574  0.52886  1.0000
  C   C355      1.0  0.70955  0.07225  0.91977  1.0000
  N   N29       1.0  0.92489  0.20902  0.62669  1.0000
  C   C356      1.0  0.94874  0.29141  0.65956  1.0000
  C   C357      1.0  0.91110  0.21713  0.64644  1.0000
  H   H343      1.0  0.67847  0.04825  0.54532  1.0000
  C   C358      1.0  0.88480  0.21406  0.63924  1.0000
  C   C359      1.0  0.84839  0.10279  0.53273  1.0000
  H   H344      1.0  0.49919  0.08631  0.79290  1.0000
  H   H345      1.0  0.95400  0.29781  0.68262  1.0000
  H   H346      1.0  0.92078  0.22684  0.66755  1.0000
  C   C360      1.0  0.88092  0.22825  0.83269  1.0000
  S   S119      1.0  0.74809  0.98784  0.96785  1.0000
  H   H347      1.0  0.85496  0.04328  0.53436  1.0000
  H   H348      1.0  0.85238  0.20030  0.60566  1.0000
  C   C361      1.0  0.70268  0.00746  0.90099  1.0000
  Fe  Fe62      1.0  0.96655  0.24892  0.98214  1.0000
  H   H349      1.0  0.65295  0.99889  0.55289  1.0000
  S   S120      1.0  0.94137  0.23431  0.51507  1.0000
  S   S121      1.0  0.75756  0.99247  0.54318  1.0000
  S   S122      1.0  0.79533  0.06392  0.99667  1.0000
  C   C362      1.0  0.67685  0.99574  0.91595  1.0000
  H   H350      1.0  0.92338  0.19013  0.58450  1.0000
  H   H351      1.0  0.71982  0.00545  0.91056  1.0000
  C   C363      1.0  0.87255  0.20240  0.61175  1.0000
  H   H352      1.0  0.69831  0.01519  0.77898  1.0000
  H   H353      1.0  0.96883  0.26418  0.84741  1.0000
  H   H354      1.0  0.68945  0.07062  0.91431  1.0000
  H   H355      1.0  0.95260  0.14602  0.93411  1.0000
  H   H356      1.0  0.87725  0.18446  0.57055  1.0000
  H   H357      1.0  0.92315  0.29775  0.91941  1.0000
  C   C364      1.0  0.91274  0.19703  0.59997  1.0000
  H   H358      1.0  0.86380  0.28867  0.86782  1.0000
  C   C365      1.0  0.88651  0.19368  0.59201  1.0000
  N   N30       1.0  0.71295  0.06121  0.94601  1.0000
  H   H359      1.0  0.86642  0.24475  0.91239  1.0000
  H   H360      1.0  0.83128  0.26120  0.85235  1.0000
  H   H361      1.0  0.86025  0.25094  0.81801  1.0000
  H   H362      1.0  0.69728  0.02462  0.71120  1.0000
  H   H363      1.0  0.83708  0.26210  0.89184  1.0000
  C   C366      1.0  0.84762  0.26597  0.86972  1.0000
  S   S123      1.0  0.89847  0.29193  0.66945  1.0000
  H   H364      1.0  0.89756  0.27628  0.60807  1.0000
  C   C367      1.0  0.95965  0.26649  0.89402  1.0000
  H   H365      1.0  0.68101  0.06264  0.50845  1.0000
  H   H366      1.0  0.87447  0.22155  0.65452  1.0000
  S   S124      1.0  0.88495  0.31543  0.80212  1.0000
  C   C368      1.0  0.68349  0.04660  0.52154  1.0000
  S   S125      1.0  0.86431  0.31349  0.73247  1.0000
  H   H367      1.0  0.74107  0.05437  0.97351  1.0000
  S   S126      1.0  0.89807  0.15346  0.53335  1.0000
  H   H368      1.0  0.80923  0.06297  0.53344  1.0000
  H   H369      1.0  0.90215  0.20846  0.85409  1.0000
  H   H370      1.0  0.72832  0.09235  0.87764  1.0000
  C   C369      1.0  0.96754  0.28721  0.64143  1.0000
  H   H371      1.0  0.89194  0.21832  0.90553  1.0000
  N   N31       1.0  0.86089  0.24846  0.86558  1.0000
  C   C370      1.0  0.87204  0.12190  0.51589  1.0000
  C   C371      1.0  0.70089  0.00761  0.72028  1.0000
  H   H372      1.0  0.70585  0.05165  0.52066  1.0000
  C   C372      1.0  0.84487  0.11479  0.99484  1.0000
  C   C373      1.0  0.66854  0.98929  0.61729  1.0000
  C   C374      1.0  0.95225  0.21205  0.63482  1.0000
  H   H373      1.0  0.83419  0.12067  0.97829  1.0000
  C   C375      1.0  0.82724  0.07737  0.52014  1.0000
  H   H374      1.0  0.94925  0.19313  0.64741  1.0000
  H   H375      1.0  0.97029  0.25540  0.90193  1.0000
  N   N32       1.0  0.67797  0.98971  0.74084  1.0000
  H   H376      1.0  0.63462  0.98927  0.91421  1.0000
  C   C376      1.0  0.82496  0.00305  0.55297  1.0000
  H   H377      1.0  0.82405  0.01176  0.57445  1.0000
  C   C377      1.0  0.95067  0.13260  0.97969  1.0000
  H   H378      1.0  0.92791  0.12284  0.98120  1.0000
  C   C378      1.0  0.67975  0.99679  0.77041  1.0000
  C   C379      1.0  0.65476  0.99841  0.90292  1.0000
  H   H379      1.0  0.96518  0.21480  0.61456  1.0000
  H   H380      1.0  0.96467  0.23133  0.64848  1.0000
  H   H381      1.0  0.49439  0.02771  0.72610  1.0000
  C   C380      1.0  0.65258  0.98700  0.64309  1.0000
  N   N33       1.0  0.84314  0.00994  0.50282  1.0000
  H   H382      1.0  0.51801  0.57831  0.21303  1.0000
  C   C381      1.0  0.59172  0.57239  0.24438  1.0000
  H   H383      1.0  0.65960  0.63130  0.48332  1.0000
  C   C382      1.0  0.55079  0.55087  0.27640  1.0000
  C   C383      1.0  0.57946  0.56075  0.27201  1.0000
  H   H384      1.0  0.54098  0.54199  0.29782  1.0000
  Fe  Fe63      1.0  0.53386  0.62502  0.25992  1.0000
  S   S127      1.0  0.49498  0.58350  0.27595  1.0000
  S   S128      1.0  0.57676  0.62824  0.26386  1.0000
  S   S129      1.0  0.54221  0.64413  0.21369  1.0000
  H   H385      1.0  0.97170  0.61956  0.22682  1.0000
  N   N34       1.0  0.54726  0.56550  0.22651  1.0000
  C   C384      1.0  0.96132  0.59705  0.21985  1.0000
  C   C385      1.0  0.97429  0.60415  0.16685  1.0000
  C   C386      1.0  0.57515  0.57443  0.22166  1.0000
  C   C387      1.0  0.53029  0.56899  0.20323  1.0000
  H   H386      1.0  0.51264  0.54561  0.25680  1.0000
  H   H387      1.0  0.95674  0.64084  0.42958  1.0000
  H   H388      1.0  0.60878  0.64728  0.35445  1.0000
  H   H389      1.0  0.58496  0.58386  0.20041  1.0000
  H   H390      1.0  0.61402  0.58035  0.24072  1.0000
  C   C388      1.0  0.53487  0.55316  0.25315  1.0000
  H   H391      1.0  0.51550  0.54819  0.19330  1.0000
  H   H392      1.0  0.59218  0.55960  0.29004  1.0000
  H   H393      1.0  0.90684  0.62879  0.42950  1.0000
  H   H394      1.0  0.96108  0.58417  0.23937  1.0000
  H   H395      1.0  0.54364  0.58365  0.18518  1.0000
  H   H396      1.0  0.96195  0.61471  0.16420  1.0000
  S   S130      1.0  0.60014  0.63724  0.17590  1.0000
  N   N35       1.0  0.97639  0.59401  0.19425  1.0000
  H   H397      1.0  0.95955  0.33889  0.35733  1.0000
  H   H398      1.0  0.93914  0.59014  0.21378  1.0000
  H   H399      1.0  0.88251  0.62521  0.47779  1.0000
  C   C389      1.0  0.91787  0.63196  0.45056  1.0000
  H   H400      1.0  0.97068  0.33092  0.40922  1.0000
  H   H401      1.0  0.62733  0.64004  0.40261  1.0000
  C   C390      1.0  0.94614  0.63882  0.45075  1.0000
  H   H402      1.0  0.61365  0.63505  0.11408  1.0000
  C   C391      1.0  0.90431  0.63010  0.47759  1.0000
  Fe  Fe64      1.0  0.58556  0.64948  0.21841  1.0000
  N   N36       1.0  0.96068  0.64426  0.47706  1.0000
  C   C392      1.0  0.63150  0.65317  0.12390  1.0000
  Fe  Fe65      1.0  0.91331  0.58382  0.79202  1.0000
  S   S131      1.0  0.86951  0.54699  0.78626  1.0000
  S   S132      1.0  0.93193  0.59616  0.83911  1.0000
  Fe  Fe66      1.0  0.92171  0.59451  0.72387  1.0000
  S   S133      1.0  0.87857  0.55836  0.71362  1.0000
  S   S134      1.0  0.95535  0.62615  0.69150  1.0000
  Fe  Fe67      1.0  0.86388  0.57443  0.75220  1.0000
  S   S135      1.0  0.83131  0.58910  0.75021  1.0000
  Fe  Fe68      1.0  0.88766  0.53320  0.74855  1.0000
  S   S136      1.0  0.87254  0.48558  0.74123  1.0000
  S   S137      1.0  0.90671  0.61201  0.76051  1.0000
  S   S138      1.0  0.93191  0.56856  0.75633  1.0000
  N   N37       1.0  0.86749  0.58683  0.87299  1.0000
  H   H403      1.0  0.81889  0.60743  0.68392  1.0000
  H   H404      1.0  0.61168  0.59171  0.88827  1.0000
  H   H405      1.0  0.88740  0.41386  0.68470  1.0000
  H   H406      1.0  0.86169  0.36667  0.66042  1.0000
  C   C393      1.0  0.92374  0.40958  0.69501  1.0000
  Fe  Fe69      1.0  0.89774  0.34568  0.76271  1.0000
  S   S139      1.0  0.91222  0.39342  0.76720  1.0000
  S   S140      1.0  0.93087  0.33470  0.74758  1.0000
  Fe  Fe70      1.0  0.65822  0.59261  0.78492  1.0000
  S   S141      1.0  0.64089  0.54691  0.79798  1.0000
  S   S142      1.0  0.66800  0.63081  0.81456  1.0000
  Fe  Fe71      1.0  0.66059  0.58086  0.71745  1.0000
  S   S143      1.0  0.64267  0.53406  0.72620  1.0000
  S   S144      1.0  0.67821  0.59626  0.67005  1.0000
  Fe  Fe72      1.0  0.61187  0.53615  0.75803  1.0000
  S   S145      1.0  0.56345  0.50644  0.76124  1.0000
  Fe  Fe73      1.0  0.67284  0.54793  0.76502  1.0000
  S   S146      1.0  0.69888  0.52609  0.77173  1.0000
  S   S147      1.0  0.62761  0.58235  0.74651  1.0000
  S   S148      1.0  0.69206  0.59416  0.75488  1.0000
  C   C394      1.0  0.68381  0.62655  0.64888  1.0000
  C   C395      1.0  0.69834  0.63235  0.62143  1.0000
  H   H407      1.0  0.59287  0.63195  0.80321  1.0000
  H   H408      1.0  0.49938  0.34197  0.82504  1.0000
  C   C396      1.0  0.49681  0.41076  0.75187  1.0000
  C   C397      1.0  0.53847  0.46937  0.75711  1.0000
  C   C398      1.0  0.54648  0.44875  0.75328  1.0000
  C   C399      1.0  0.52586  0.41979  0.75077  1.0000
  H   H409      1.0  0.65314  0.59933  0.57299  1.0000
  H   H410      1.0  0.61920  0.62650  0.78481  1.0000
  C   C400      1.0  0.50940  0.46032  0.75828  1.0000
  H   H411      1.0  0.56861  0.45508  0.75230  1.0000
  H   H412      1.0  0.53255  0.40425  0.74787  1.0000
  H   H413      1.0  0.50275  0.47589  0.76108  1.0000
  H   H414      1.0  0.82657  0.56519  0.81109  1.0000
  H   H415      1.0  0.97259  0.38901  0.70128  1.0000
  H   H416      1.0  0.95908  0.64737  0.52465  1.0000
  C   C401      1.0  0.67364  0.64441  0.65810  1.0000
  C   C402      1.0  0.92465  0.63177  0.64436  1.0000
  H   H417      1.0  0.90598  0.61562  0.65545  1.0000
  C   C403      1.0  0.88380  0.46027  0.74961  1.0000
  C   C404      1.0  0.86567  0.43146  0.74307  1.0000
  C   C405      1.0  0.87359  0.41068  0.74884  1.0000
  C   C406      1.0  0.90003  0.41834  0.76104  1.0000
  C   C407      1.0  0.91820  0.44714  0.76749  1.0000
  C   C408      1.0  0.91018  0.46789  0.76196  1.0000
  H   H418      1.0  0.84519  0.42515  0.73360  1.0000
  H   H419      1.0  0.85925  0.38874  0.74373  1.0000
  H   H420      1.0  0.93871  0.45351  0.77692  1.0000
  H   H421      1.0  0.92449  0.48982  0.76714  1.0000
  C   C409      1.0  0.79494  0.57113  0.75892  1.0000
  C   C410      1.0  0.77966  0.54188  0.76345  1.0000
  C   C411      1.0  0.75028  0.52840  0.76790  1.0000
  C   C412      1.0  0.73599  0.54399  0.76775  1.0000
  C   C413      1.0  0.75144  0.57328  0.76372  1.0000
  C   C414      1.0  0.78074  0.58675  0.75943  1.0000
  H   H422      1.0  0.79030  0.52957  0.76291  1.0000
  H   H423      1.0  0.73849  0.50571  0.77105  1.0000
  H   H424      1.0  0.74082  0.58558  0.76380  1.0000
  H   H425      1.0  0.79238  0.60938  0.75590  1.0000
  H   H426      1.0  0.69729  0.54506  0.66951  1.0000
  C   C415      1.0  0.87808  0.57549  0.89638  1.0000
  C   C416      1.0  0.67200  0.61687  0.87404  1.0000
  C   C417      1.0  0.67549  0.63785  0.85346  1.0000
  C   C418      1.0  0.48137  0.34391  0.83193  1.0000
  H   H427      1.0  0.66586  0.59583  0.86620  1.0000
  C   C419      1.0  0.94035  0.62727  0.85960  1.0000
  C   C420      1.0  0.94977  0.62949  0.88930  1.0000
  H   H428      1.0  0.58268  0.60576  0.77443  1.0000
  H   H429      1.0  0.86030  0.55902  0.90959  1.0000
  C   C421      1.0  0.67566  0.62291  0.90498  1.0000
  N   N38       1.0  0.93573  0.39267  0.69373  1.0000
  H   H430      1.0  0.88854  0.62897  0.88994  1.0000
  N   N39       1.0  0.59407  0.59484  0.81630  1.0000
  H   H431      1.0  0.57166  0.52496  0.82378  1.0000
  H   H432      1.0  0.84026  0.61593  0.80979  1.0000
  N   N40       1.0  0.73775  0.56564  0.68949  1.0000
  C   C422      1.0  0.75275  0.55162  0.69101  1.0000
  C   C423      1.0  0.75114  0.59422  0.68475  1.0000
  C   C424      1.0  0.78210  0.56641  0.68847  1.0000
  C   C425      1.0  0.78051  0.60972  0.68247  1.0000
  C   C426      1.0  0.65063  0.61302  0.55701  1.0000
  C   C427      1.0  0.70706  0.54996  0.69206  1.0000
  C   C428      1.0  0.48879  0.43140  0.75552  1.0000
  C   C429      1.0  0.58229  0.56689  0.80892  1.0000
  C   C430      1.0  0.60284  0.58439  0.86619  1.0000
  H   H433      1.0  0.88394  0.33627  0.65794  1.0000
  H   H434      1.0  0.87149  0.64803  0.84968  1.0000
  H   H435      1.0  0.66243  0.64032  0.67911  1.0000
  C   C431      1.0  0.86510  0.62572  0.85016  1.0000
  C   C432      1.0  0.59726  0.61574  0.79354  1.0000
  H   H436      1.0  0.73907  0.60519  0.68322  1.0000
  C   C433      1.0  0.84766  0.60778  0.82782  1.0000
  C   C434      1.0  0.68348  0.65011  0.91575  1.0000
  C   C435      1.0  0.64153  0.63162  0.56669  1.0000
  H   H437      1.0  0.79410  0.55548  0.69100  1.0000
  H   H438      1.0  0.57456  0.55980  0.78645  1.0000
  C   C436      1.0  0.89508  0.35710  0.66799  1.0000
  C   C437      1.0  0.96305  0.40206  0.70809  1.0000
  C   C438      1.0  0.58053  0.54700  0.83004  1.0000
  C   C439      1.0  0.59098  0.55588  0.85881  1.0000
  H   H439      1.0  0.95175  0.61232  0.89913  1.0000
  H   H440      1.0  0.61491  0.62604  0.84993  1.0000
  H   H441      1.0  0.90179  0.63621  0.60721  1.0000
  C   C440      1.0  0.60439  0.60372  0.84447  1.0000
  C   C441      1.0  0.79604  0.59567  0.68454  1.0000
  C   C442      1.0  0.92176  0.36671  0.68044  1.0000
  C   C443      1.0  0.87468  0.61477  0.87289  1.0000
  C   C444      1.0  0.89707  0.40062  0.68283  1.0000
  H   H442      1.0  0.84486  0.54702  0.85113  1.0000
  H   H443      1.0  0.63699  0.63196  0.59026  1.0000
  C   C445      1.0  0.84000  0.57925  0.82849  1.0000
  H   H444      1.0  0.69965  0.53007  0.70515  1.0000
  H   H445      1.0  0.74214  0.52902  0.69521  1.0000
  C   C446      1.0  0.92236  0.64352  0.61691  1.0000
  H   H446      1.0  0.89267  0.59220  0.91194  1.0000
  H   H447      1.0  0.59032  0.54078  0.87520  1.0000
  H   H448      1.0  0.89003  0.56606  0.88598  1.0000
  N   N41       1.0  0.63949  0.64986  0.54697  1.0000
  H   H449      1.0  0.93433  0.42970  0.70655  1.0000
  H   H450      1.0  0.67230  0.60635  0.92071  1.0000
  H   H451      1.0  0.96030  0.40042  0.73283  1.0000
  C   C447      1.0  0.88264  0.37414  0.66936  1.0000
  H   H452      1.0  0.69955  0.56275  0.70413  1.0000
  C   C448      1.0  0.85032  0.56910  0.85124  1.0000
  H   H453      1.0  0.70632  0.61873  0.61400  1.0000
  H   H454      1.0  0.93097  0.35301  0.67976  1.0000
  C   C449      1.0  0.95108  0.64069  0.65719  1.0000
  H   H455      1.0  0.49566  0.38355  0.80924  1.0000
  H   H456      1.0  0.66483  0.59899  0.51911  1.0000
  C   C450      1.0  0.65722  0.61288  0.52688  1.0000
  C   C451      1.0  0.91912  0.63513  0.50437  1.0000
  H   H457      1.0  0.79113  0.63248  0.67961  1.0000
  H   H458      1.0  0.90892  0.63410  0.52554  1.0000
  C   C452      1.0  0.93812  0.64973  0.84714  1.0000
  H   H459      1.0  0.73532  0.65029  0.96904  1.0000
  C   C453      1.0  0.64535  0.64944  0.51729  1.0000
  H   H460      1.0  0.77750  0.64962  0.98920  1.0000
  H   H461      1.0  0.93095  0.64837  0.82431  1.0000
  C   C454      1.0  0.65431  0.63099  0.50680  1.0000
  C   C455      1.0  0.47916  0.36744  0.82306  1.0000
  H   H462      1.0  0.97802  0.42440  0.70210  1.0000
  C   C456      1.0  0.94756  0.64255  0.50370  1.0000
  Fe  Fe74      1.0  0.94502  0.72865  0.01660  1.0000
  S   S149      1.0  0.69761  0.94077  0.01149  1.0000
  H   H463      1.0  0.69408  0.89706  0.46132  1.0000
  C   C457      1.0  0.65543  0.67004  0.10609  1.0000
  C   C458      1.0  0.68810  0.82151  0.44967  1.0000
  Fe  Fe75      1.0  0.70116  0.96126  0.47972  1.0000
  H   H464      1.0  0.77414  0.91264  0.09240  1.0000
  S   S150      1.0  0.79754  0.71303  0.49963  1.0000
  C   C459      1.0  0.63055  0.65950  0.15424  1.0000
  Fe  Fe76      1.0  0.71905  0.71899  0.04724  1.0000
  S   S151      1.0  0.70993  0.71514  0.09764  1.0000
  S   S152      1.0  0.75196  0.76300  0.03300  1.0000
  S   S153      1.0  0.76100  0.98380  0.03855  1.0000
  H   H465      1.0  0.63205  0.75535  0.28934  1.0000
  H   H466      1.0  0.69152  0.85969  0.43143  1.0000
  H   H467      1.0  0.73081  0.93073  0.07861  1.0000
  C   C460      1.0  0.75100  0.86366  0.48737  1.0000
  H   H468      1.0  0.63024  0.70701  0.05283  1.0000
  Fe  Fe77      1.0  0.70441  0.70843  0.47541  1.0000
  S   S154      1.0  0.74786  0.74345  0.46409  1.0000
  S   S155      1.0  0.66942  0.67773  0.44393  1.0000
  H   H469      1.0  0.94687  0.76726  0.07655  1.0000
  H   H470      1.0  0.61804  0.80060  0.26335  1.0000
  N   N42       1.0  0.73636  0.89576  0.06727  1.0000
  Fe  Fe78      1.0  0.57602  0.90402  0.22083  1.0000
  S   S156      1.0  0.53096  0.87029  0.22976  1.0000
  S   S157      1.0  0.58993  0.91862  0.17240  1.0000
  Fe  Fe79      1.0  0.58866  0.91670  0.28824  1.0000
  S   S158      1.0  0.54449  0.88465  0.30178  1.0000
  S   S159      1.0  0.62591  0.94797  0.31708  1.0000
  Fe  Fe80      1.0  0.54947  0.85691  0.26744  1.0000
  S   S160      1.0  0.53511  0.81170  0.28231  1.0000
  Fe  Fe81      1.0  0.52867  0.90007  0.26315  1.0000
  H   H471      1.0  0.60991  0.70212  0.17207  1.0000
  S   S161      1.0  0.59454  0.88821  0.25604  1.0000
  S   S162      1.0  0.57279  0.93449  0.25210  1.0000
  Fe  Fe82      1.0  0.56039  0.68644  0.23638  1.0000
  S   S163      1.0  0.56153  0.72474  0.21441  1.0000
  S   S164      1.0  0.60398  0.69249  0.23828  1.0000
  C   C461      1.0  0.61490  0.70413  0.09810  1.0000
  C   C462      1.0  0.54143  0.78737  0.26228  1.0000
  C   C463      1.0  0.53312  0.76068  0.27502  1.0000
  C   C464      1.0  0.53933  0.74136  0.26078  1.0000
  C   C465      1.0  0.55346  0.74839  0.23332  1.0000
  C   C466      1.0  0.56152  0.77494  0.22041  1.0000
  C   C467      1.0  0.55574  0.79446  0.23492  1.0000
  H   H472      1.0  0.52201  0.75504  0.29618  1.0000
  H   H473      1.0  0.53283  0.72091  0.27083  1.0000
  H   H474      1.0  0.57233  0.78048  0.19909  1.0000
  H   H475      1.0  0.56227  0.81494  0.22490  1.0000
  C   C468      1.0  0.63585  0.69237  0.35408  1.0000
  C   C469      1.0  0.65719  0.71537  0.36982  1.0000
  C   C470      1.0  0.66784  0.71133  0.39714  1.0000
  C   C471      1.0  0.65718  0.68415  0.40923  1.0000
  H   H476      1.0  0.67322  0.98471  0.35366  1.0000
  C   C472      1.0  0.92349  0.81449  0.01046  1.0000
  H   H477      1.0  0.66569  0.73649  0.36074  1.0000
  H   H478      1.0  0.68434  0.72923  0.40879  1.0000
  H   H479      1.0  0.77478  0.93436  0.06111  1.0000
  H   H480      1.0  0.62101  0.94274  0.47798  1.0000
  H   H481      1.0  0.81344  0.72237  0.03968  1.0000
  C   C473      1.0  0.83271  0.72911  0.02721  1.0000
  H   H482      1.0  0.89973  0.79138  0.04901  1.0000
  C   C474      1.0  0.89446  0.75736  0.49281  1.0000
  S   S165      1.0  0.62314  0.69909  0.31985  1.0000
  S   S166      1.0  0.74948  0.81238  0.48602  1.0000
  C   C475      1.0  0.63503  0.71571  0.07524  1.0000
  C   C476      1.0  0.63629  0.94337  0.35365  1.0000
  C   C477      1.0  0.66097  0.96544  0.36633  1.0000
  C   C478      1.0  0.67002  0.96280  0.39523  1.0000
  C   C479      1.0  0.65438  0.93802  0.41193  1.0000
  C   C480      1.0  0.62969  0.91600  0.39930  1.0000
  C   C481      1.0  0.62071  0.91859  0.37037  1.0000
  H   H483      1.0  0.88828  0.71512  0.49252  1.0000
  S   S167      1.0  0.74164  0.95975  0.47823  1.0000
  H   H484      1.0  0.61731  0.89677  0.41198  1.0000
  H   H485      1.0  0.60165  0.90148  0.36106  1.0000
  H   H486      1.0  0.58325  0.73883  0.33275  1.0000
  C   C482      1.0  0.72064  0.90846  0.07308  1.0000
  C   C483      1.0  0.61096  0.75055  0.28109  1.0000
  C   C484      1.0  0.68735  0.84684  0.45142  1.0000
  C   C485      1.0  0.67898  0.69311  0.11867  1.0000
  C   C486      1.0  0.67806  0.69928  0.14907  1.0000
  C   C487      1.0  0.65390  0.68285  0.16667  1.0000
  C   C488      1.0  0.60004  0.70222  0.15036  1.0000
  N   N43       1.0  0.68226  0.85567  0.47816  1.0000
  H   H487      1.0  0.69622  0.71695  0.15909  1.0000
  C   C489      1.0  0.96587  0.80612  0.03382  1.0000
  H   H488      1.0  0.57523  0.81354  0.33663  1.0000
  S   S168      1.0  0.49581  0.91535  0.26177  1.0000
  H   H489      1.0  0.97634  0.67791  0.36175  1.0000
  C   C490      1.0  0.82654  0.98170  0.49727  1.0000
  C   C491      1.0  0.76713  0.91232  0.06904  1.0000
  H   H490      1.0  0.68840  0.94004  0.15809  1.0000
  C   C492      1.0  0.69126  0.89309  0.07150  1.0000
  C   C493      1.0  0.67124  0.94697  0.11749  1.0000
  C   C494      1.0  0.64703  0.94467  0.10417  1.0000
  C   C495      1.0  0.62207  0.93493  0.12108  1.0000
  C   C496      1.0  0.62089  0.92723  0.15141  1.0000
  C   C497      1.0  0.64484  0.92863  0.16444  1.0000
  C   C498      1.0  0.66986  0.93853  0.14759  1.0000
  H   H491      1.0  0.58441  0.67977  0.14569  1.0000
  H   H492      1.0  0.60367  0.93389  0.11070  1.0000
  H   H493      1.0  0.64427  0.92271  0.18769  1.0000
  H   H494      1.0  0.65367  0.68782  0.19004  1.0000
  S   S169      1.0  0.73779  0.69816  0.01872  1.0000
  C   C499      1.0  0.57807  0.77529  0.33825  1.0000
  H   H495      1.0  0.77712  0.90352  0.05406  1.0000
  C   C500      1.0  0.60734  0.79363  0.28471  1.0000
  C   C501      1.0  0.59849  0.81060  0.29930  1.0000
  C   C502      1.0  0.68313  0.80502  0.47534  1.0000
  H   H496      1.0  0.60189  0.83024  0.28918  1.0000
  H   H497      1.0  0.75615  0.86477  0.46385  1.0000
  S   S170      1.0  0.94584  0.70939  0.49148  1.0000
  C   C503      1.0  0.64735  0.73673  0.13298  1.0000
  H   H498      1.0  0.67367  0.97582  0.27118  1.0000
  C   C504      1.0  0.66801  0.74869  0.11069  1.0000
  H   H499      1.0  0.64767  0.95101  0.08107  1.0000
  Fe  Fe83      1.0  0.59169  0.67154  0.28370  1.0000
  H   H500      1.0  0.65256  0.74470  0.15563  1.0000
  C   C505      1.0  0.93668  0.78061  0.07711  1.0000
  H   H501      1.0  0.68911  0.76531  0.11607  1.0000
  Fe  Fe84      1.0  0.74043  0.76804  0.50049  1.0000
  C   C506      1.0  0.69416  0.85152  0.05894  1.0000
  S   S171      1.0  0.54853  0.66743  0.28254  1.0000
  S   S172      1.0  0.90295  0.72119  0.03592  1.0000
  C   C507      1.0  0.58755  0.75902  0.32327  1.0000
  C   C508      1.0  0.66858  0.98029  0.24901  1.0000
  S   S173      1.0  0.70412  0.96174  0.09835  1.0000
  C   C509      1.0  0.91978  0.79989  0.03746  1.0000
  H   H502      1.0  0.65526  0.85253  0.06211  1.0000
  Fe  Fe85      1.0  0.76403  0.72692  0.50122  1.0000
  N   N44       1.0  0.62133  0.71446  0.12661  1.0000
  C   C510      1.0  0.87785  0.72995  0.02125  1.0000
  H   H503      1.0  0.73593  0.85740  0.05620  1.0000
  C   C511      1.0  0.58345  0.80116  0.32602  1.0000
  C   C512      1.0  0.84849  0.71479  0.49381  1.0000
  C   C513      1.0  0.68630  0.98454  0.22471  1.0000
  H   H504      1.0  0.84845  0.70886  0.05723  1.0000
  H   H505      1.0  0.56611  0.76764  0.35884  1.0000
  C   C514      1.0  0.88072  0.77351  0.49276  1.0000
  C   C515      1.0  0.67799  0.86450  0.06408  1.0000
  H   H506      1.0  0.63032  0.97869  0.26359  1.0000
  H   H507      1.0  0.59432  0.68644  0.09305  1.0000
  H   H508      1.0  0.67895  0.90347  0.07563  1.0000
  H   H509      1.0  0.65987  0.87841  0.47854  1.0000
  S   S174      1.0  0.66422  0.93350  0.44880  1.0000
  C   C516      1.0  0.72350  0.86751  0.06094  1.0000
  H   H510      1.0  0.68484  0.78595  0.47454  1.0000
  C   C517      1.0  0.85105  0.76041  0.49372  1.0000
  N   N45       1.0  0.60149  0.76805  0.29657  1.0000
  H   H511      1.0  0.61166  0.75377  0.25645  1.0000
  H   H512      1.0  0.68419  0.82944  0.05253  1.0000
  H   H513      1.0  0.69148  0.89352  0.50109  1.0000
  H   H514      1.0  0.65586  0.66493  0.08281  1.0000
  H   H515      1.0  0.62429  0.98251  0.15814  1.0000
  C   C518      1.0  0.97027  0.82072  0.00673  1.0000
  C   C519      1.0  0.85261  0.72142  0.03707  1.0000
  H   H516      1.0  0.59615  0.72776  0.28517  1.0000
  C   C520      1.0  0.66177  0.73806  0.08167  1.0000
  H   H517      1.0  0.94566  0.79600  0.09567  1.0000
  Fe  Fe86      1.0  0.96053  0.75534  0.49747  1.0000
  H   H518      1.0  0.83609  0.69197  0.49435  1.0000
  H   H519      1.0  0.58889  0.71454  0.15293  1.0000
  H   H520      1.0  0.67791  0.74662  0.06442  1.0000
  C   C521      1.0  0.63579  0.66116  0.39353  1.0000
  N   N46       1.0  0.94070  0.79553  0.04855  1.0000
  H   H521      1.0  0.61742  0.98666  0.21275  1.0000
  H   H522      1.0  0.91398  0.76584  0.08155  1.0000
  C   C522      1.0  0.62522  0.66518  0.36614  1.0000
  C   C523      1.0  0.87812  0.72787  0.49285  1.0000
  H   H523      1.0  0.69328  0.81503  0.42879  1.0000
  H   H524      1.0  0.75064  0.90329  0.48686  1.0000
  Fe  Fe87      1.0  0.71609  0.97249  0.04872  1.0000
  S   S175      1.0  0.93189  0.77496  0.49510  1.0000
  C   C524      1.0  0.68184  0.88238  0.47984  1.0000
  S   S176      1.0  0.68799  0.71492  0.01208  1.0000
  H   H525      1.0  0.68907  0.97993  0.40450  1.0000
  C   C525      1.0  0.63313  0.96394  0.48696  1.0000
  C   C526      1.0  0.83475  0.73092  0.49472  1.0000
  C   C527      1.0  0.63702  0.98647  0.21600  1.0000
  H   H526      1.0  0.89313  0.79633  0.49254  1.0000
  H   H527      1.0  0.84084  0.77313  0.49428  1.0000
  H   H528      1.0  0.64690  0.98340  0.44363  1.0000
  C   C528      1.0  0.74788  0.88555  0.50037  1.0000
  C   C529      1.0  0.64402  0.98166  0.24472  1.0000
  H   H529      1.0  0.82678  0.97322  0.47543  1.0000
  H   H530      1.0  0.70544  0.98345  0.22777  1.0000
  H   H531      1.0  0.48701  0.88875  0.19806  1.0000
  H   H532      1.0  0.64359  0.66379  0.50160  1.0000
  C   C530      1.0  0.67731  0.81386  0.50234  1.0000
  C   C531      1.0  0.80931  0.70599  0.94199  1.0000
  C   C532      1.0  0.90977  0.72349  0.56471  1.0000
  H   H533      1.0  0.88703  0.79450  0.56545  1.0000
  H   H534      1.0  0.91714  0.72551  0.54122  1.0000
  H   H535      1.0  0.79379  0.74825  0.92526  1.0000
  S   S177      1.0  0.96588  0.70859  0.91345  1.0000
  C   C533      1.0  0.67771  0.66749  0.63995  1.0000
  C   C534      1.0  0.75977  0.68667  0.94084  1.0000
  Fe  Fe88      1.0  0.70896  0.69751  0.98192  1.0000
  C   C535      1.0  0.95685  0.65381  0.90646  1.0000
  S   S178      1.0  0.73992  0.74036  0.96372  1.0000
  H   H536      1.0  0.82524  0.68589  0.97200  1.0000
  S   S179      1.0  0.73691  0.91127  0.54830  1.0000
  S   S180      1.0  0.69191  0.94700  0.52803  1.0000
  N   N47       1.0  0.78604  0.70644  0.93139  1.0000
  H   H537      1.0  0.63567  0.96649  0.64987  1.0000
  S   S181      1.0  0.94187  0.67795  0.56702  1.0000
  Fe  Fe89      1.0  0.71586  0.71704  0.54362  1.0000
  S   S182      1.0  0.75977  0.75388  0.53689  1.0000
  S   S183      1.0  0.69467  0.70132  0.58946  1.0000
  H   H538      1.0  0.81899  0.70888  0.56638  1.0000
  Fe  Fe90      1.0  0.76812  0.74169  0.00167  1.0000
  Fe  Fe91      1.0  0.97016  0.71282  0.53362  1.0000
  C   C536      1.0  0.87956  0.77199  0.56692  1.0000
  C   C537      1.0  0.63498  0.96833  0.51779  1.0000
  H   H539      1.0  0.64412  0.69095  0.54780  1.0000
  C   C538      1.0  0.94887  0.82479  0.99495  1.0000
  C   C539      1.0  0.74125  0.88436  0.53076  1.0000
  C   C540      1.0  0.85073  0.75280  0.56745  1.0000
  S   S184      1.0  0.70421  0.78883  0.98970  1.0000
  C   C541      1.0  0.72071  0.82646  0.99031  1.0000
  H   H540      1.0  0.79430  0.96014  0.56492  1.0000
  H   H541      1.0  0.60818  0.66199  0.55044  1.0000
  S   S185      1.0  0.69621  0.73339  0.51000  1.0000
  H   H542      1.0  0.62426  0.95058  0.53305  1.0000
  H   H543      1.0  0.85361  0.69200  0.56613  1.0000
  H   H544      1.0  0.90212  0.75285  0.98275  1.0000
  C   C542      1.0  0.80663  0.68546  0.96278  1.0000
  Fe  Fe92      1.0  0.97501  0.72020  0.96326  1.0000
  S   S186      1.0  0.81413  0.75687  0.98834  1.0000
  C   C543      1.0  0.97280  0.67359  0.61487  1.0000
  C   C544      1.0  0.68781  0.67130  0.89508  1.0000
  H   H545      1.0  0.69362  0.69228  0.90292  1.0000
  C   C545      1.0  0.63129  0.95078  0.74886  1.0000
  C   C546      1.0  0.76167  0.87342  0.99513  1.0000
  C   C547      1.0  0.94534  0.67411  0.86426  1.0000
  C   C548      1.0  0.89867  0.76188  0.56641  1.0000
  C   C549      1.0  0.86108  0.71449  0.56722  1.0000
  H   H546      1.0  0.73278  0.85996  0.57144  1.0000
  C   C550      1.0  0.77989  0.66526  0.97257  1.0000
  C   C551      1.0  0.73776  0.86104  0.54787  1.0000
  C   C552      1.0  0.69215  0.67323  0.61246  1.0000
  H   H547      1.0  0.96438  0.65533  0.92916  1.0000
  C   C553      1.0  0.84138  0.72387  0.56759  1.0000
  Fe  Fe93      1.0  0.73340  0.94753  0.52660  1.0000
  N   N48       1.0  0.88932  0.73346  0.56690  1.0000
  H   H548      1.0  0.83561  0.76026  0.56636  1.0000
  C   C554      1.0  0.86329  0.75443  0.98576  1.0000
  H   H549      1.0  0.65890  0.98648  0.81341  1.0000
  H   H550      1.0  0.94382  0.69150  0.85432  1.0000
  Fe  Fe94      1.0  0.72151  0.75833  0.99678  1.0000
  S   S187      1.0  0.96729  0.75587  0.97695  1.0000
  C   C555      1.0  0.71586  0.86905  0.98800  1.0000
  H   H551      1.0  0.86770  0.76746  0.96595  1.0000
  C   C556      1.0  0.65745  0.98074  0.79001  1.0000
  H   H552      1.0  0.73748  0.82102  0.54815  1.0000
  H   H553      1.0  0.66391  0.97066  0.60451  1.0000
  H   H554      1.0  0.95195  0.83583  0.97379  1.0000
  H   H555      1.0  0.70264  0.87858  0.98552  1.0000
  S   S188      1.0  0.67141  0.97856  0.95133  1.0000
  H   H556      1.0  0.67437  0.80162  0.52260  1.0000
  C   C557      1.0  0.63026  0.66952  0.55731  1.0000
  S   S189      1.0  0.68646  0.65613  0.95515  1.0000
  H   H557      1.0  0.68153  0.82628  0.98347  1.0000
  H   H558      1.0  0.83018  0.72226  0.93532  1.0000
  C   C558      1.0  0.68355  0.66510  0.86422  1.0000
  C   C559      1.0  0.94637  0.66450  0.60195  1.0000
  C   C560      1.0  0.63305  0.95769  0.77909  1.0000
  C   C561      1.0  0.78944  0.72949  0.91157  1.0000
  C   C562      1.0  0.95492  0.67641  0.89395  1.0000
  C   C563      1.0  0.75626  0.66567  0.96136  1.0000
  H   H559      1.0  0.65223  0.96214  0.70630  1.0000
  H   H560      1.0  0.71371  0.65960  0.58231  1.0000
  C   C564      1.0  0.74969  0.84371  0.99447  1.0000
  C   C565      1.0  0.74046  0.83892  0.53475  1.0000
  H   H561      1.0  0.67339  0.84664  0.52466  1.0000
  H   H562      1.0  0.66949  0.68096  0.64724  1.0000
  H   H563      1.0  0.90070  0.70105  0.57182  1.0000
  H   H564      1.0  0.68625  0.68151  0.84858  1.0000
  H   H565      1.0  0.92829  0.73616  0.57923  1.0000
  C   C566      1.0  0.70264  0.65558  0.60340  1.0000
  H   H566      1.0  0.74139  0.68737  0.93287  1.0000
  H   H567      1.0  0.80713  0.73546  0.89569  1.0000
  H   H568      1.0  0.61216  0.93338  0.73990  1.0000
  H   H569      1.0  0.77013  0.72335  0.89813  1.0000
  H   H570      1.0  0.61541  0.94550  0.79399  1.0000
  H   H571      1.0  0.78415  0.88651  0.99809  1.0000
  H   H572      1.0  0.92100  0.77687  0.56433  1.0000
  C   C567      1.0  0.70394  0.83936  0.98693  1.0000
  Fe  Fe95      1.0  0.70476  0.97797  0.98206  1.0000
  C   C568      1.0  0.97510  0.66168  0.64223  1.0000
  C   C569      1.0  0.65413  0.96704  0.72998  1.0000
  C   C570      1.0  0.88285  0.74613  0.99520  1.0000
  C   C571      1.0  0.74485  0.88630  0.99215  1.0000
  H   H573      1.0  0.90654  0.81724  0.00142  1.0000
  H   H574      1.0  0.63199  0.67200  0.58205  1.0000
  S   S190      1.0  0.72081  0.68964  0.50986  1.0000
  C   C572      1.0  0.83807  0.74596  0.00165  1.0000
  H   H575      1.0  0.76292  0.83419  0.99691  1.0000
  S   S191      1.0  0.76106  0.92378  0.99505  1.0000
  C   C573      1.0  0.80826  0.97415  0.54762  1.0000
  C   C574      1.0  0.74708  0.84009  0.50436  1.0000
  Fe  Fe96      1.0  0.74241  0.95322  0.00022  1.0000
  C   C575      1.0  0.80891  0.96339  0.51958  1.0000
  H   H576      1.0  0.79565  0.94100  0.51519  1.0000
  S   S192      1.0  0.95089  0.69215  0.00213  1.0000
  C   C576      1.0  0.67692  0.83939  0.50336  1.0000
