data_image0
_chemical_formula_structural       HS4C2SCFeSHFeS2FeCFeH2C2H2C6H4CH2C3HCHC3HCH2CHCHSHCHCSH3CHS2CHCS2NC2NCH2C2H2CFe2HFeC2H2CFeCFeS2CSHFeSHFeCH2SHSC6H4SCHN2CH5CHNHCHC2H3CSH4C2SCHC3HC3SC2H2CH2C3H2C3NCFeHSFeS2C2HS2H2CHC2H3CH2S2FeS2C2HC2HC6H5C2HFeCFeNHSC2H2C2H3CH2SH2FeC3H3FeHC2SC3H2SFeHCSFeHNCHC2FeC3HSCH2N2FeS2HS2C2FeC11H4NH2CSH4SHCH3C6HCNHCH8CHFeH2C2SHCSHCSC2H2CFeS2FeS2FeSFeS4HCSFeS2FeS2FeSFeS3HC7H4C2H3C6H4C6H4C6H4C6H6C2HNC6H10C2H2C3HC2SH2CH2FeCHC2H2S2HNH2C3H4CHSHNH2CHCNHFeHNHC2H2CHFeHC3HCSCNCHC3H3SHFeS2FeS2FeSFeS3HSFeS2FeS2FeSFeS3CSC6H4C6H4C2H3C6H4C6H4C6H4C3H7CHCHCNHCH2NH2CH3C4HNH2CHC2H3CH6CH2SH2C2NHC2H2C5H2CNC3HCHCH2C2H3CNCHCSFeHCH2CFeH4NFeSC2HSH2C3HSH2FeS2FeS2FeSFeS3HCFeS2FeS2FeSFeS3CSC6H4CH3C7H4C6H4C3H2C6H4C6H4NC6H10NC2HCNC5H2NHCH2CH2FeCHNC6H2SH4FeCHSH3CHC2SH2C2HCH3CNCSHSH4FeSHC2HCNCHSHCH2C2SC2HFeS2FeS2FeSFeS3FeS2FeS2FeSFeS5C6H4C6H4C4HC6H4C3HNC6H4C6H6C3H5CH3CHCH3CH2CHCNC2NSH3CH2FeH4C2HC3H5NH4CHFeNC6H2CH2SH2SFeC5H3C3SH2NFeSHSFeS2FeS2C2SHSC3HC6H5CHC6HCFeCFeHFeSH2CNCHSHCHCHNHCFeHCH4CHC2HCHSH3FeHC2H2C2HFeSC2SFeSH2CH2SC2HSH2C8H5CH5SHSHCH2C2HC2HNC2HNCSHSCHFeCSHFeC3HSC2H3CSCHFeCHSHNHFeCSC3HSFeS2HSFeNSCFeC2FeH2SH2SHSNFeS2FeH4C7H4C4H2CHCSH2C2HFeHCH2C2HFeCHC3H3CS2CH2CSHC2HCHSH2C5H3CFeS2FeCSCSHCH4C6H4CNCHSCH2C2SHSC4HNFeHFeNC4SH2CSFeCH4C2H2C2H3FeHSHCH2C
_chemical_formula_sum              "H576 S192 C576 Fe96 N48"
_cell_length_a       50.4839
_cell_length_b       50.47
_cell_length_c       50.6654
_cell_angle_alpha    90.389
_cell_angle_beta     90.1728
_cell_angle_gamma    89.9773

_space_group_name_H-M_alt    "P 1"
_space_group_IT_number       1

loop_
  _space_group_symop_operation_xyz
  'x, y, z'

loop_
  _atom_site_type_symbol
  _atom_site_label
  _atom_site_symmetry_multiplicity
  _atom_site_fract_x
  _atom_site_fract_y
  _atom_site_fract_z
  _atom_site_occupancy
  H   H1        1.0  0.15764  0.32815  0.38322  1.0000
  S   S1        1.0  0.11014  0.35398  0.48953  1.0000
  S   S2        1.0  0.13213  0.48756  0.27653  1.0000
  S   S3        1.0  0.29988  0.12854  0.46012  1.0000
  S   S4        1.0  0.17347  0.33624  0.49173  1.0000
  C   C1        1.0  0.22446  0.35406  0.44287  1.0000
  C   C2        1.0  0.03096  0.33242  0.49120  1.0000
  S   S5        1.0  0.11379  0.49705  0.33879  1.0000
  C   C3        1.0  0.32111  0.02968  0.46312  1.0000
  Fe  Fe1       1.0  0.14066  0.46965  0.31654  1.0000
  S   S6        1.0  0.13784  0.42584  0.32524  1.0000
  H   H2        1.0  0.28443  0.48092  0.22490  1.0000
  Fe  Fe2       1.0  0.14543  0.35509  0.46270  1.0000
  S   S7        1.0  0.13569  0.31664  0.44249  1.0000
  S   S8        1.0  0.15812  0.39387  0.44448  1.0000
  Fe  Fe3       1.0  0.10222  0.31401  0.47176  1.0000
  C   C4        1.0  0.23065  0.22909  0.45487  1.0000
  Fe  Fe4       1.0  0.16137  0.29718  0.47354  1.0000
  H   H3        1.0  0.22626  0.22829  0.43397  1.0000
  H   H4        1.0  0.19659  0.38154  0.38863  1.0000
  C   C5        1.0  0.03639  0.49121  0.30013  1.0000
  C   C6        1.0  0.21676  0.32783  0.43861  1.0000
  H   H5        1.0  0.26184  0.19960  0.45231  1.0000
  H   H6        1.0  0.05457  0.47984  0.29949  1.0000
  C   C7        1.0  0.14160  0.41760  0.35886  1.0000
  C   C8        1.0  0.15335  0.43542  0.37660  1.0000
  C   C9        1.0  0.15763  0.42808  0.40297  1.0000
  C   C10       1.0  0.14972  0.40309  0.41199  1.0000
  C   C11       1.0  0.13727  0.38548  0.39448  1.0000
  C   C12       1.0  0.13352  0.39261  0.36789  1.0000
  H   H7        1.0  0.15958  0.45474  0.36989  1.0000
  H   H8        1.0  0.16726  0.44179  0.41640  1.0000
  H   H9        1.0  0.13082  0.36633  0.40139  1.0000
  H   H10       1.0  0.12417  0.37886  0.35431  1.0000
  C   C13       1.0  0.22821  0.13973  0.47667  1.0000
  H   H11       1.0  0.20802  0.15385  0.44179  1.0000
  H   H12       1.0  0.00706  0.28663  0.44787  1.0000
  C   C14       1.0  0.22187  0.24695  0.49830  1.0000
  C   C15       1.0  0.01183  0.47820  0.30242  1.0000
  C   C16       1.0  0.21585  0.24613  0.47133  1.0000
  H   H13       1.0  0.19290  0.48663  0.22205  1.0000
  C   C17       1.0  0.17776  0.33333  0.37603  1.0000
  H   H14       1.0  0.21737  0.47312  0.18162  1.0000
  C   C18       1.0  0.26791  0.43654  0.20050  1.0000
  C   C19       1.0  0.32523  0.48220  0.21319  1.0000
  C   C20       1.0  0.03124  0.31273  0.47164  1.0000
  H   H15       1.0  0.18383  0.18937  0.46609  1.0000
  C   C21       1.0  0.22458  0.48959  0.19337  1.0000
  H   H16       1.0  0.22169  0.31270  0.45296  1.0000
  H   H17       1.0  0.32684  0.04781  0.45337  1.0000
  C   C22       1.0  0.25091  0.21278  0.46521  1.0000
  H   H18       1.0  0.18617  0.31608  0.36522  1.0000
  C   C23       1.0  0.19691  0.17594  0.47658  1.0000
  H   H19       1.0  0.02219  0.48406  0.23728  1.0000
  S   S9        1.0  0.17725  0.49393  0.32380  1.0000
  H   H20       1.0  0.01134  0.45681  0.30362  1.0000
  C   C24       1.0  0.21062  0.15614  0.46294  1.0000
  H   H21       1.0  0.30943  0.41842  0.17389  1.0000
  C   C25       1.0  0.31385  0.43611  0.18534  1.0000
  S   S10       1.0  0.33019  0.47852  0.04090  1.0000
  H   H22       1.0  0.17561  0.34995  0.36186  1.0000
  H   H23       1.0  0.23516  0.35952  0.46069  1.0000
  H   H24       1.0  0.19496  0.30111  0.41361  1.0000
  C   C26       1.0  0.00704  0.30184  0.46302  1.0000
  H   H25       1.0  0.25830  0.43930  0.18093  1.0000
  S   S11       1.0  0.32614  0.47070  0.11673  1.0000
  S   S12       1.0  0.18955  0.26506  0.45722  1.0000
  C   C27       1.0  0.25661  0.21326  0.49226  1.0000
  H   H26       1.0  0.22242  0.39399  0.42815  1.0000
  C   C28       1.0  0.29990  0.47096  0.21381  1.0000
  S   S13       1.0  0.06133  0.29933  0.45939  1.0000
  S   S14       1.0  0.26524  0.49134  0.15707  1.0000
  N   N1        1.0  0.19473  0.34049  0.39852  1.0000
  C   C29       1.0  0.20164  0.32140  0.41629  1.0000
  C   C30       1.0  0.20267  0.36617  0.40225  1.0000
  N   N2        1.0  0.29457  0.44808  0.20013  1.0000
  C   C31       1.0  0.21754  0.37335  0.42452  1.0000
  H   H27       1.0  0.26887  0.41507  0.20502  1.0000
  H   H28       1.0  0.25509  0.44618  0.21559  1.0000
  C   C32       1.0  0.32636  0.00497  0.45114  1.0000
  C   C33       1.0  0.30794  0.03088  0.48733  1.0000
  H   H29       1.0  0.27525  0.49758  0.04483  1.0000
  H   H30       1.0  0.04938  0.34117  0.49781  1.0000
  C   C34       1.0  0.21061  0.49719  0.21636  1.0000
  Fe  Fe5       1.0  0.30908  0.16060  0.48995  1.0000
  Fe  Fe6       1.0  0.31875  0.10023  0.48877  1.0000
  H   H31       1.0  0.23893  0.12454  0.46587  1.0000
  Fe  Fe7       1.0  0.33119  0.49753  0.08177  1.0000
  C   C35       1.0  0.33181  0.49697  0.01131  1.0000
  C   C36       1.0  0.00515  0.49715  0.23670  1.0000
  H   H32       1.0  0.27181  0.46647  0.00963  1.0000
  H   H33       1.0  0.32925  0.50062  0.22360  1.0000
  C   C37       1.0  0.30046  0.00714  0.49963  1.0000
  Fe  Fe8       1.0  0.16665  0.49886  0.68480  1.0000
  C   C38       1.0  0.01275  0.47888  0.68507  1.0000
  Fe  Fe9       1.0  0.14802  0.48242  0.62896  1.0000
  S   S15       1.0  0.15819  0.46217  0.59018  1.0000
  S   S16       1.0  0.14167  0.46501  0.66898  1.0000
  C   C39       1.0  0.02764  0.30480  0.55507  1.0000
  S   S17       1.0  0.28023  0.19148  0.50696  1.0000
  H   H34       1.0  0.17072  0.43835  0.72386  1.0000
  Fe  Fe10      1.0  0.10679  0.49288  0.67198  1.0000
  S   S18       1.0  0.13459  0.34174  0.56060  1.0000
  H   H35       1.0  0.07953  0.32815  0.53676  1.0000
  Fe  Fe11      1.0  0.13721  0.33226  0.51701  1.0000
  C   C40       1.0  0.07552  0.31234  0.55138  1.0000
  H   H36       1.0  0.08195  0.49468  0.73845  1.0000
  H   H37       1.0  0.24582  0.46665  0.74082  1.0000
  S   S19       1.0  0.20052  0.48626  0.71277  1.0000
  H   H38       1.0  0.27281  0.45741  0.96155  1.0000
  S   S20       1.0  0.30303  0.49118  0.87421  1.0000
  C   C41       1.0  0.15072  0.42873  0.58262  1.0000
  C   C42       1.0  0.15495  0.41953  0.55675  1.0000
  C   C43       1.0  0.14971  0.39303  0.54984  1.0000
  C   C44       1.0  0.14052  0.37534  0.56885  1.0000
  C   C45       1.0  0.13619  0.38449  0.59475  1.0000
  C   C46       1.0  0.14112  0.41118  0.60160  1.0000
  H   H39       1.0  0.16247  0.43291  0.54198  1.0000
  H   H40       1.0  0.15312  0.38623  0.52984  1.0000
  H   H41       1.0  0.12910  0.37092  0.60955  1.0000
  H   H42       1.0  0.13785  0.41806  0.62158  1.0000
  S   S21       1.0  0.30082  0.06158  0.50297  1.0000
  C   C47       1.0  0.20094  0.17913  0.50365  1.0000
  H   H43       1.0  0.09295  0.29890  0.55204  1.0000
  N   N3        1.0  0.13893  0.45947  0.74158  1.0000
  N   N4        1.0  0.23214  0.14311  0.50323  1.0000
  C   C48       1.0  0.23980  0.48475  0.75068  1.0000
  H   H44       1.0  0.02658  0.32068  0.56954  1.0000
  H   H45       1.0  0.19110  0.19510  0.51422  1.0000
  H   H46       1.0  0.14468  0.48339  0.53748  1.0000
  H   H47       1.0  0.07108  0.27430  0.51499  1.0000
  H   H48       1.0  0.24633  0.23126  0.52958  1.0000
  C   C49       1.0  0.05252  0.27881  0.52477  1.0000
  H   H49       1.0  0.21079  0.25996  0.51125  1.0000
  N   N5        1.0  0.05140  0.29788  0.54405  1.0000
  H   H50       1.0  0.15235  0.42031  0.74860  1.0000
  C   C50       1.0  0.15369  0.47614  0.75711  1.0000
  H   H51       1.0  0.11700  0.49846  0.57479  1.0000
  C   C51       1.0  0.21817  0.49922  0.74062  1.0000
  C   C52       1.0  0.24210  0.23062  0.50864  1.0000
  H   H52       1.0  0.07400  0.32177  0.57120  1.0000
  H   H53       1.0  0.13873  0.42548  0.71597  1.0000
  H   H54       1.0  0.26122  0.11193  0.50432  1.0000
  C   C53       1.0  0.14324  0.50029  0.76592  1.0000
  S   S22       1.0  0.32521  0.13162  0.51988  1.0000
  H   H55       1.0  0.26584  0.13831  0.52779  1.0000
  H   H56       1.0  0.01347  0.45831  0.69089  1.0000
  H   H57       1.0  0.22268  0.16582  0.53756  1.0000
  H   H58       1.0  0.10140  0.45239  0.72330  1.0000
  C   C54       1.0  0.21883  0.16253  0.51672  1.0000
  C   C55       1.0  0.15067  0.43459  0.73213  1.0000
  S   S23       1.0  0.06728  0.47637  0.68614  1.0000
  C   C56       1.0  0.00687  0.34009  0.50296  1.0000
  H   H59       1.0  0.17400  0.47114  0.76209  1.0000
  C   C57       1.0  0.26604  0.49814  0.95106  1.0000
  C   C58       1.0  0.25062  0.12599  0.51761  1.0000
  C   C59       1.0  0.11326  0.46565  0.73543  1.0000
  H   H60       1.0  0.23981  0.11415  0.53249  1.0000
  C   C60       1.0  0.10209  0.48955  0.74408  1.0000
  C   C61       1.0  0.00520  0.27270  0.52746  1.0000
  C   C62       1.0  0.00421  0.29225  0.54703  1.0000
  S   S24       1.0  0.12692  0.29161  0.50122  1.0000
  C   C63       1.0  0.03655  0.49270  0.68080  1.0000
  C   C64       1.0  0.25370  0.49335  0.77344  1.0000
  H   H61       1.0  0.27020  0.48189  0.78086  1.0000
  H   H62       1.0  0.03038  0.25165  0.50012  1.0000
  C   C65       1.0  0.02950  0.26585  0.51628  1.0000
  H   H63       1.0  0.00699  0.35466  0.51872  1.0000
  H   H64       1.0  0.29021  0.00787  0.51834  1.0000
  C   C66       1.0  0.26909  0.47733  0.96880  1.0000
  C   C67       1.0  0.26853  0.48261  0.99596  1.0000
  C   C68       1.0  0.33250  0.49707  0.96300  1.0000
  H   H65       1.0  0.26759  0.49459  0.92995  1.0000
  H   H66       1.0  0.33366  0.48632  0.94448  1.0000
  C   C69       1.0  0.33416  0.48340  0.98711  1.0000
  C   C70       1.0  0.00514  0.71438  0.46715  1.0000
  C   C71       1.0  0.06483  0.60212  0.36965  1.0000
  N   N6        1.0  0.20576  0.58843  0.31804  1.0000
  C   C72       1.0  0.20124  0.59272  0.28979  1.0000
  Fe  Fe12      1.0  0.16739  0.51396  0.28531  1.0000
  H   H67       1.0  0.27408  0.53516  0.19503  1.0000
  S   S25       1.0  0.30555  0.52944  0.09949  1.0000
  Fe  Fe13      1.0  0.13963  0.67398  0.45147  1.0000
  S   S26       1.0  0.11995  0.71164  0.46557  1.0000
  S   S27       1.0  0.13734  0.66177  0.40844  1.0000
  C   C73       1.0  0.01350  0.53325  0.29867  1.0000
  C   C74       1.0  0.00931  0.52451  0.23544  1.0000
  H   H68       1.0  0.24926  0.54902  0.23517  1.0000
  S   S28       1.0  0.20228  0.52974  0.26062  1.0000
  S   S29       1.0  0.17729  0.68085  0.47437  1.0000
  H   H69       1.0  0.09644  0.53630  0.39192  1.0000
  H   H70       1.0  0.21843  0.74179  0.46590  1.0000
  C   C75       1.0  0.21602  0.55874  0.35350  1.0000
  H   H71       1.0  0.18237  0.58319  0.28356  1.0000
  C   C76       1.0  0.08708  0.55463  0.38571  1.0000
  C   C77       1.0  0.03004  0.70648  0.47712  1.0000
  H   H72       1.0  0.05479  0.58131  0.33337  1.0000
  H   H73       1.0  0.25984  0.76501  0.45313  1.0000
  H   H74       1.0  0.20034  0.61409  0.28479  1.0000
  C   C78       1.0  0.21932  0.51870  0.23165  1.0000
  H   H75       1.0  0.12981  0.79642  0.49886  1.0000
  H   H76       1.0  0.08174  0.64192  0.40033  1.0000
  S   S30       1.0  0.32840  0.87348  0.44076  1.0000
  S   S31       1.0  0.28222  0.81567  0.46635  1.0000
  Fe  Fe14      1.0  0.14949  0.52301  0.34290  1.0000
  S   S32       1.0  0.15877  0.54063  0.38301  1.0000
  S   S33       1.0  0.14199  0.54500  0.30547  1.0000
  C   C79       1.0  0.21192  0.56354  0.32665  1.0000
  C   C80       1.0  0.21373  0.57957  0.37158  1.0000
  H   H77       1.0  0.32707  0.53521  0.02976  1.0000
  C   C81       1.0  0.31897  0.98121  0.46343  1.0000
  C   C82       1.0  0.25645  0.52449  0.20079  1.0000
  H   H78       1.0  0.21590  0.57586  0.39256  1.0000
  C   C83       1.0  0.14368  0.62819  0.40137  1.0000
  C   C84       1.0  0.13899  0.61831  0.37582  1.0000
  C   C85       1.0  0.14324  0.59138  0.36995  1.0000
  C   C86       1.0  0.15245  0.57431  0.38958  1.0000
  C   C87       1.0  0.15721  0.58424  0.41508  1.0000
  C   C88       1.0  0.15274  0.61108  0.42101  1.0000
  H   H79       1.0  0.13187  0.63149  0.36061  1.0000
  H   H80       1.0  0.13947  0.58388  0.35027  1.0000
  H   H81       1.0  0.16449  0.57114  0.43029  1.0000
  H   H82       1.0  0.15654  0.61860  0.44072  1.0000
  H   H83       1.0  0.06189  0.77323  0.48616  1.0000
  C   C89       1.0  0.32875  0.52451  0.01126  1.0000
  C   C90       1.0  0.03730  0.51877  0.29769  1.0000
  H   H84       1.0  0.21752  0.58366  0.27802  1.0000
  Fe  Fe15      1.0  0.30849  0.85212  0.47454  1.0000
  C   C91       1.0  0.07673  0.62368  0.41149  1.0000
  Fe  Fe16      1.0  0.10762  0.51695  0.29990  1.0000
  N   N7        1.0  0.07665  0.60044  0.39394  1.0000
  H   H85       1.0  0.04801  0.71196  0.46696  1.0000
  S   S34       1.0  0.06736  0.53554  0.29101  1.0000
  C   C92       1.0  0.20297  0.60890  0.33571  1.0000
  C   C93       1.0  0.08748  0.57702  0.40217  1.0000
  H   H86       1.0  0.21335  0.54714  0.31277  1.0000
  H   H87       1.0  0.21994  0.53879  0.36037  1.0000
  C   C94       1.0  0.07512  0.55621  0.36092  1.0000
  C   C95       1.0  0.20710  0.60483  0.36271  1.0000
  H   H88       1.0  0.19719  0.62846  0.32910  1.0000
  H   H89       1.0  0.20422  0.62091  0.37678  1.0000
  H   H90       1.0  0.05607  0.62061  0.36321  1.0000
  C   C96       1.0  0.24233  0.53227  0.22364  1.0000
  H   H91       1.0  0.01399  0.55458  0.29682  1.0000
  H   H92       1.0  0.09709  0.57567  0.42128  1.0000
  S   S35       1.0  0.12086  0.64840  0.48210  1.0000
  H   H93       1.0  0.27493  0.53220  0.03839  1.0000
  H   H94       1.0  0.09195  0.62198  0.42731  1.0000
  Fe  Fe17      1.0  0.32735  0.91008  0.46668  1.0000
  C   C97       1.0  0.06396  0.58006  0.35275  1.0000
  C   C98       1.0  0.20445  0.77355  0.49070  1.0000
  C   C99       1.0  0.22260  0.76137  0.47369  1.0000
  H   H95       1.0  0.30020  0.96424  0.49744  1.0000
  H   H96       1.0  0.02933  0.53241  0.23532  1.0000
  H   H97       1.0  0.07452  0.53902  0.34797  1.0000
  Fe  Fe18      1.0  0.15666  0.71684  0.49093  1.0000
  H   H98       1.0  0.05701  0.62620  0.42085  1.0000
  C   C100      1.0  0.25199  0.80020  0.47620  1.0000
  C   C101      1.0  0.24765  0.50307  0.18544  1.0000
  S   S36       1.0  0.32632  0.95073  0.44747  1.0000
  C   C102      1.0  0.11330  0.78541  0.48917  1.0000
  C   C103      1.0  0.30612  0.98238  0.48784  1.0000
  C   C104      1.0  0.24613  0.77463  0.46648  1.0000
  H   H99       1.0  0.12216  0.77133  0.47472  1.0000
  H   H100      1.0  0.14866  0.55974  0.48307  1.0000
  S   S37       1.0  0.17403  0.75813  0.50005  1.0000
  Fe  Fe19      1.0  0.30355  0.50420  0.13622  1.0000
  H   H101      1.0  0.10101  0.80009  0.47843  1.0000
  C   C105      1.0  0.23395  0.81233  0.49340  1.0000
  S   S38       1.0  0.30395  0.88980  0.49877  1.0000
  Fe  Fe20      1.0  0.10368  0.68627  0.49800  1.0000
  H   H102      1.0  0.00410  0.72586  0.44923  1.0000
  N   N8        1.0  0.26515  0.50796  0.00514  1.0000
  C   C106      1.0  0.26464  0.51327  0.03364  1.0000
  H   H103      1.0  0.24387  0.51434  0.04070  1.0000
  C   C107      1.0  0.01062  0.53211  0.67091  1.0000
  C   C108      1.0  0.31288  0.78470  0.51976  1.0000
  Fe  Fe21      1.0  0.15663  0.65820  0.50659  1.0000
  C   C109      1.0  0.10982  0.76059  0.53049  1.0000
  C   C110      1.0  0.11709  0.53940  0.56278  1.0000
  C   C111      1.0  0.11729  0.50706  0.75920  1.0000
  H   H104      1.0  0.19414  0.53398  0.74620  1.0000
  S   S39       1.0  0.17524  0.51448  0.64402  1.0000
  C   C112      1.0  0.21062  0.52254  0.75369  1.0000
  H   H105      1.0  0.27970  0.81001  0.52764  1.0000
  H   H106      1.0  0.05347  0.53025  0.67016  1.0000
  N   N9        1.0  0.09767  0.77079  0.50860  1.0000
  N   N10       1.0  0.31369  0.57030  0.77997  1.0000
  Fe  Fe22      1.0  0.13809  0.53847  0.64883  1.0000
  S   S40       1.0  0.13066  0.58058  0.63540  1.0000
  S   S41       1.0  0.13105  0.52540  0.69092  1.0000
  H   H107      1.0  0.32353  0.55933  0.98724  1.0000
  S   S42       1.0  0.13849  0.69441  0.52489  1.0000
  S   S43       1.0  0.17777  0.62516  0.52819  1.0000
  C   C113      1.0  0.03534  0.51933  0.67341  1.0000
  C   C114      1.0  0.30006  0.80552  0.53285  1.0000
  Fe  Fe23      1.0  0.32737  0.52393  0.89229  1.0000
  C   C115      1.0  0.26157  0.52839  0.98786  1.0000
  C   C116      1.0  0.29667  0.58397  0.79605  1.0000
  C   C117      1.0  0.26209  0.52381  0.96060  1.0000
  C   C118      1.0  0.30586  0.60479  0.81200  1.0000
  C   C119      1.0  0.22431  0.53096  0.77665  1.0000
  C   C120      1.0  0.14404  0.59256  0.60556  1.0000
  C   C121      1.0  0.16538  0.58001  0.59312  1.0000
  C   C122      1.0  0.17590  0.59051  0.56969  1.0000
  C   C123      1.0  0.16484  0.61328  0.55825  1.0000
  C   C124      1.0  0.14325  0.62558  0.57047  1.0000
  C   C125      1.0  0.13308  0.61539  0.59417  1.0000
  H   H108      1.0  0.17405  0.56248  0.60177  1.0000
  H   H109      1.0  0.19262  0.58088  0.56037  1.0000
  H   H110      1.0  0.13451  0.64307  0.56182  1.0000
  H   H111      1.0  0.11660  0.62522  0.60371  1.0000
  N   N11       1.0  0.14080  0.54868  0.52282  1.0000
  H   H112      1.0  0.21810  0.54891  0.78667  1.0000
  H   H113      1.0  0.19650  0.80880  0.51365  1.0000
  C   C126      1.0  0.00801  0.68517  0.51358  1.0000
  S   S44       1.0  0.26235  0.52816  0.81583  1.0000
  H   H114      1.0  0.30994  0.84948  0.58220  1.0000
  H   H115      1.0  0.12102  0.57808  0.54605  1.0000
  H   H116      1.0  0.16021  0.51583  0.50444  1.0000
  H   H117      1.0  0.28277  0.55051  0.75871  1.0000
  S   S45       1.0  0.11151  0.50771  0.63083  1.0000
  H   H118      1.0  0.15542  0.51382  0.77743  1.0000
  C   C127      1.0  0.09541  0.74580  0.54875  1.0000
  H   H119      1.0  0.29885  0.85978  0.55019  1.0000
  H   H120      1.0  0.00998  0.55286  0.66576  1.0000
  H   H121      1.0  0.10528  0.73703  0.56563  1.0000
  C   C128      1.0  0.05625  0.75184  0.52211  1.0000
  C   C129      1.0  0.24589  0.51642  0.78674  1.0000
  C   C130      1.0  0.12352  0.51263  0.56020  1.0000
  C   C131      1.0  0.15081  0.56764  0.50346  1.0000
  C   C132      1.0  0.33260  0.61173  0.81125  1.0000
  C   C133      1.0  0.12581  0.55725  0.54368  1.0000
  H   H122      1.0  0.10905  0.52595  0.76539  1.0000
  C   C134      1.0  0.06844  0.74155  0.54456  1.0000
  N   N12       1.0  0.31319  0.82043  0.55136  1.0000
  H   H123      1.0  0.17208  0.57179  0.50751  1.0000
  C   C135      1.0  0.30396  0.54784  0.76421  1.0000
  H   H124      1.0  0.05723  0.72922  0.55799  1.0000
  H   H125      1.0  0.10597  0.54640  0.57979  1.0000
  H   H126      1.0  0.26070  0.54022  0.94691  1.0000
  H   H127      1.0  0.03548  0.74774  0.51826  1.0000
  H   H128      1.0  0.27588  0.57857  0.79690  1.0000
  H   H129      1.0  0.13086  0.76347  0.53375  1.0000
  H   H130      1.0  0.30247  0.77344  0.50459  1.0000
  H   H131      1.0  0.29238  0.61518  0.82511  1.0000
  C   C136      1.0  0.13900  0.50411  0.53905  1.0000
  H   H132      1.0  0.27898  0.83721  0.56946  1.0000
  Fe  Fe24      1.0  0.30070  0.51618  0.83739  1.0000
  H   H133      1.0  0.30569  0.52931  0.77580  1.0000
  H   H134      1.0  0.00902  0.67416  0.53180  1.0000
  C   C137      1.0  0.29952  0.84278  0.56397  1.0000
  C   C138      1.0  0.32676  0.53814  0.98715  1.0000
  S   S46       1.0  0.06226  0.68388  0.51559  1.0000
  H   H135      1.0  0.31529  0.54557  0.74557  1.0000
  C   C139      1.0  0.14771  0.52254  0.52053  1.0000
  S   S47       1.0  0.32213  0.55040  0.85696  1.0000
  H   H136      1.0  0.14003  0.58685  0.50451  1.0000
  C   C140      1.0  0.32817  0.52445  0.96292  1.0000
  S   S48       1.0  0.32175  0.54184  0.93330  1.0000
  C   C141      1.0  0.07134  0.76616  0.50402  1.0000
  C   C142      1.0  0.21036  0.79910  0.50053  1.0000
  H   H137      1.0  0.25920  0.54852  0.99508  1.0000
  H   H138      1.0  0.23797  0.83203  0.50092  1.0000
  C   C143      1.0  0.03156  0.69204  0.50057  1.0000
  Fe  Fe25      1.0  0.52058  0.32840  0.07756  1.0000
  S   S49       1.0  0.50434  0.36758  0.09097  1.0000
  S   S50       1.0  0.53927  0.32211  0.03725  1.0000
  Fe  Fe26      1.0  0.51422  0.30282  0.13257  1.0000
  S   S51       1.0  0.49749  0.34040  0.15016  1.0000
  S   S52       1.0  0.52734  0.26436  0.15277  1.0000
  Fe  Fe27      1.0  0.47409  0.34342  0.11239  1.0000
  S   S53       1.0  0.43088  0.35488  0.10899  1.0000
  Fe  Fe28      1.0  0.52914  0.36176  0.12729  1.0000
  S   S54       1.0  0.55025  0.39679  0.14587  1.0000
  S   S55       1.0  0.48841  0.30417  0.09613  1.0000
  S   S56       1.0  0.54780  0.32429  0.11262  1.0000
  S   S57       1.0  0.39766  0.46901  0.15062  1.0000
  H   H139      1.0  0.62487  0.23661  0.44224  1.0000
  C   C144      1.0  0.43872  0.07116  0.35447  1.0000
  S   S58       1.0  0.61197  0.15010  0.45151  1.0000
  Fe  Fe29      1.0  0.50306  0.16787  0.28178  1.0000
  S   S59       1.0  0.52152  0.18019  0.32057  1.0000
  S   S60       1.0  0.48707  0.20058  0.25439  1.0000
  Fe  Fe30      1.0  0.49944  0.10897  0.29953  1.0000
  S   S61       1.0  0.51789  0.11781  0.33883  1.0000
  S   S62       1.0  0.47949  0.06863  0.29497  1.0000
  Fe  Fe31      1.0  0.49180  0.15354  0.33977  1.0000
  S   S63       1.0  0.47266  0.16463  0.37857  1.0000
  Fe  Fe32      1.0  0.54609  0.14329  0.31650  1.0000
  S   S64       1.0  0.58929  0.14156  0.32849  1.0000
  S   S65       1.0  0.47134  0.14365  0.30188  1.0000
  S   S66       1.0  0.52971  0.13211  0.27622  1.0000
  H   H140      1.0  0.63273  0.02320  0.47892  1.0000
  C   C145      1.0  0.46372  0.07752  0.36466  1.0000
  C   C146      1.0  0.43965  0.15546  0.38489  1.0000
  C   C147      1.0  0.42960  0.15890  0.41045  1.0000
  C   C148      1.0  0.40316  0.15254  0.41612  1.0000
  C   C149      1.0  0.38640  0.14329  0.39607  1.0000
  C   C150      1.0  0.39637  0.14003  0.37041  1.0000
  C   C151      1.0  0.42306  0.14573  0.36490  1.0000
  H   H141      1.0  0.44233  0.16645  0.42600  1.0000
  H   H142      1.0  0.39570  0.15499  0.43598  1.0000
  H   H143      1.0  0.38351  0.13271  0.35488  1.0000
  H   H144      1.0  0.43064  0.14300  0.34514  1.0000
  C   C152      1.0  0.41918  0.08501  0.39571  1.0000
  C   C153      1.0  0.49601  0.03757  0.29348  1.0000
  H   H145      1.0  0.46023  0.01553  0.30079  1.0000
  H   H146      1.0  0.53814  0.28847  0.21787  1.0000
  H   H147      1.0  0.60506  0.20709  0.43649  1.0000
  C   C154      1.0  0.60576  0.14538  0.41752  1.0000
  C   C155      1.0  0.58072  0.15213  0.40752  1.0000
  C   C156      1.0  0.57538  0.15039  0.38034  1.0000
  C   C157      1.0  0.59512  0.14204  0.36287  1.0000
  C   C158      1.0  0.62010  0.13491  0.37288  1.0000
  C   C159      1.0  0.62539  0.13642  0.40017  1.0000
  H   H148      1.0  0.56544  0.15904  0.42083  1.0000
  H   H149      1.0  0.55610  0.15600  0.37284  1.0000
  H   H150      1.0  0.63540  0.12831  0.35945  1.0000
  H   H151      1.0  0.64476  0.13117  0.40770  1.0000
  C   C160      1.0  0.51588  0.24716  0.18128  1.0000
  C   C161      1.0  0.53121  0.22621  0.19143  1.0000
  C   C162      1.0  0.52302  0.21196  0.21392  1.0000
  C   C163      1.0  0.49918  0.21834  0.22649  1.0000
  C   C164      1.0  0.48395  0.23943  0.21643  1.0000
  C   C165      1.0  0.49224  0.25381  0.19408  1.0000
  H   H152      1.0  0.54950  0.22076  0.18173  1.0000
  H   H153      1.0  0.53495  0.19578  0.22128  1.0000
  H   H154      1.0  0.46544  0.24456  0.22586  1.0000
  H   H155      1.0  0.48009  0.26973  0.18652  1.0000
  C   C166      1.0  0.42142  0.38604  0.12180  1.0000
  C   C167      1.0  0.39590  0.39581  0.11652  1.0000
  C   C168      1.0  0.38842  0.42129  0.12509  1.0000
  C   C169      1.0  0.40620  0.43687  0.13964  1.0000
  C   C170      1.0  0.43150  0.42689  0.14538  1.0000
  C   C171      1.0  0.43924  0.40171  0.13619  1.0000
  H   H156      1.0  0.38207  0.38379  0.10531  1.0000
  H   H157      1.0  0.36890  0.42877  0.12050  1.0000
  H   H158      1.0  0.44535  0.43882  0.15667  1.0000
  H   H159      1.0  0.45896  0.39438  0.14033  1.0000
  C   C172      1.0  0.58215  0.40621  0.13504  1.0000
  C   C173      1.0  0.59198  0.43128  0.14215  1.0000
  C   C174      1.0  0.61797  0.43873  0.13559  1.0000
  C   C175      1.0  0.63465  0.42085  0.12252  1.0000
  C   C176      1.0  0.62487  0.39572  0.11544  1.0000
  C   C177      1.0  0.59858  0.38854  0.12133  1.0000
  H   H160      1.0  0.57944  0.44500  0.15285  1.0000
  H   H161      1.0  0.62524  0.45813  0.14114  1.0000
  H   H162      1.0  0.63761  0.38184  0.10520  1.0000
  H   H163      1.0  0.59122  0.36919  0.11572  1.0000
  H   H164      1.0  0.36487  0.47836  0.19776  1.0000
  H   H165      1.0  0.48094  0.07459  0.35221  1.0000
  C   C178      1.0  0.39646  0.44712  0.06076  1.0000
  C   C179      1.0  0.41633  0.07491  0.37015  1.0000
  H   H166      1.0  0.48285  0.31914  0.02395  1.0000
  N   N13       1.0  0.42453  0.20377  0.30546  1.0000
  C   C180      1.0  0.44829  0.21165  0.31595  1.0000
  C   C181      1.0  0.40301  0.20025  0.32144  1.0000
  C   C182      1.0  0.45083  0.21669  0.34300  1.0000
  C   C183      1.0  0.40480  0.20533  0.34859  1.0000
  C   C184      1.0  0.42889  0.21361  0.35936  1.0000
  C   C185      1.0  0.42265  0.19814  0.27708  1.0000
  H   H167      1.0  0.46557  0.21369  0.30346  1.0000
  H   H168      1.0  0.38438  0.19316  0.31337  1.0000
  H   H169      1.0  0.46994  0.22193  0.35140  1.0000
  H   H170      1.0  0.38793  0.20186  0.36137  1.0000
  H   H171      1.0  0.44878  0.45764  0.10018  1.0000
  H   H172      1.0  0.43359  0.17961  0.27228  1.0000
  H   H173      1.0  0.40183  0.19590  0.27032  1.0000
  H   H174      1.0  0.43172  0.21449  0.26559  1.0000
  H   H175      1.0  0.62142  0.33934  0.15645  1.0000
  H   H176      1.0  0.55120  0.35799  0.19999  1.0000
  C   C186      1.0  0.48124  0.01421  0.29686  1.0000
  C   C187      1.0  0.56473  0.34316  0.19224  1.0000
  H   H177      1.0  0.52992  0.32241  0.22461  1.0000
  H   H178      1.0  0.40179  0.08875  0.40777  1.0000
  C   C188      1.0  0.43424  0.46517  0.08548  1.0000
  C   C189      1.0  0.59841  0.30597  0.16983  1.0000
  C   C190      1.0  0.60423  0.33287  0.16750  1.0000
  H   H179      1.0  0.48542  0.25314  0.06061  1.0000
  C   C191      1.0  0.53543  0.30825  0.20867  1.0000
  C   C192      1.0  0.39636  0.40218  0.04419  1.0000
  S   S67       1.0  0.35956  0.10416  0.47212  1.0000
  H   H180      1.0  0.52361  0.25397  0.08701  1.0000
  H   H181      1.0  0.55326  0.24179  0.07175  1.0000
  C   C193      1.0  0.57592  0.29819  0.18388  1.0000
  H   H182      1.0  0.44636  0.10052  0.42455  1.0000
  H   H183      1.0  0.43092  0.21647  0.38053  1.0000
  Fe  Fe33      1.0  0.65192  0.14286  0.47059  1.0000
  C   C194      1.0  0.49256  0.09498  0.39984  1.0000
  H   H184      1.0  0.61102  0.29121  0.16060  1.0000
  C   C195      1.0  0.34515  0.46978  0.19863  1.0000
  C   C196      1.0  0.52312  0.03557  0.28817  1.0000
  H   H185      1.0  0.50863  0.08400  0.38953  1.0000
  H   H186      1.0  0.41963  0.47717  0.09682  1.0000
  S   S68       1.0  0.65683  0.10820  0.49761  1.0000
  S   S69       1.0  0.35323  0.13500  0.40278  1.0000
  H   H187      1.0  0.44462  0.47807  0.07121  1.0000
  N   N14       1.0  0.46635  0.08744  0.38975  1.0000
  H   H188      1.0  0.49437  0.09068  0.42124  1.0000
  H   H189      1.0  0.46331  0.25192  0.01694  1.0000
  C   C197      1.0  0.65616  0.03267  0.44482  1.0000
  C   C198      1.0  0.42167  0.39865  0.05473  1.0000
  C   C199      1.0  0.38368  0.42661  0.04707  1.0000
  H   H190      1.0  0.38636  0.46599  0.06295  1.0000
  H   H191      1.0  0.61664  0.20039  0.39124  1.0000
  H   H192      1.0  0.43152  0.37955  0.05318  1.0000
  H   H193      1.0  0.45335  0.41642  0.07686  1.0000
  C   C200      1.0  0.53758  0.25714  0.07038  1.0000
  H   H194      1.0  0.64971  0.18511  0.35876  1.0000
  S   S70       1.0  0.66090  0.49997  0.08572  1.0000
  H   H195      1.0  0.35476  0.43709  0.17285  1.0000
  N   N15       1.0  0.55950  0.31672  0.19499  1.0000
  H   H196      1.0  0.49579  0.11653  0.39685  1.0000
  H   H197      1.0  0.51880  0.30678  0.19434  1.0000
  C   C201      1.0  0.58749  0.35157  0.17907  1.0000
  H   H198      1.0  0.59171  0.37255  0.17726  1.0000
  C   C202      1.0  0.64397  0.01540  0.46241  1.0000
  N   N16       1.0  0.42109  0.44332  0.07147  1.0000
  H   H199      1.0  0.39676  0.07056  0.36235  1.0000
  Fe  Fe34      1.0  0.36263  0.49020  0.13258  1.0000
  H   H200      1.0  0.53471  0.05337  0.28543  1.0000
  N   N17       1.0  0.52437  0.25574  0.04456  1.0000
  H   H201      1.0  0.57143  0.27723  0.18546  1.0000
  C   C203      1.0  0.43390  0.41961  0.06823  1.0000
  C   C204      1.0  0.44445  0.09157  0.40510  1.0000
  H   H202      1.0  0.38655  0.38595  0.03399  1.0000
  H   H203      1.0  0.62976  0.20684  0.46153  1.0000
  C   C205      1.0  0.65600  0.19074  0.37854  1.0000
  H   H204      1.0  0.36400  0.42970  0.03893  1.0000
  Fe  Fe35      1.0  0.34178  0.13512  0.44593  1.0000
  H   H205      1.0  0.54676  0.27699  0.07309  1.0000
  C   C206      1.0  0.48474  0.25287  0.01824  1.0000
  C   C207      1.0  0.33947  0.44661  0.18457  1.0000
  C   C208      1.0  0.63733  0.19941  0.39705  1.0000
  H   H206      1.0  0.43684  0.06371  0.33437  1.0000
  C   C209      1.0  0.62517  0.21464  0.44153  1.0000
  S   S71       1.0  0.34971  0.16920  0.47361  1.0000
  C   C210      1.0  0.49738  0.25370  0.04288  1.0000
  N   N18       1.0  0.64486  0.20539  0.42237  1.0000
  C   C211      1.0  0.53510  0.01044  0.28552  1.0000
  H   H207      1.0  0.55594  0.00914  0.28079  1.0000
  C   C212      1.0  0.49417  0.31916  0.00586  1.0000
  C   C213      1.0  0.52174  0.32170  0.00690  1.0000
  C   C214      1.0  0.53933  0.25726  0.02214  1.0000
  H   H208      1.0  0.56057  0.26023  0.02350  1.0000
  H   H209      1.0  0.36586  0.01061  0.49499  1.0000
  H   H210      1.0  0.65449  0.05397  0.44760  1.0000
  S   S72       1.0  0.66809  0.42895  0.11606  1.0000
  H   H211      1.0  0.33614  0.00428  0.43217  1.0000
  Fe  Fe36      1.0  0.49666  0.31921  0.88821  1.0000
  S   S73       1.0  0.51463  0.35966  0.88438  1.0000
  S   S74       1.0  0.47954  0.30666  0.92769  1.0000
  Fe  Fe37      1.0  0.50231  0.30582  0.82890  1.0000
  S   S75       1.0  0.52094  0.34553  0.82137  1.0000
  S   S76       1.0  0.49391  0.28367  0.78995  1.0000
  Fe  Fe38      1.0  0.54410  0.33915  0.85838  1.0000
  S   S77       1.0  0.58756  0.34916  0.86146  1.0000
  Fe  Fe39      1.0  0.48980  0.36290  0.84778  1.0000
  S   S78       1.0  0.47233  0.40174  0.83398  1.0000
  S   S79       1.0  0.52815  0.29793  0.86452  1.0000
  S   S80       1.0  0.46927  0.32393  0.85307  1.0000
  H   H212      1.0  0.44917  0.19256  0.62847  1.0000
  S   S81       1.0  0.61523  0.46724  0.83009  1.0000
  Fe  Fe40      1.0  0.52103  0.09904  0.66866  1.0000
  S   S82       1.0  0.50488  0.11400  0.63036  1.0000
  S   S83       1.0  0.54139  0.05885  0.67020  1.0000
  Fe  Fe41      1.0  0.51222  0.15253  0.69742  1.0000
  S   S84       1.0  0.49526  0.17159  0.66105  1.0000
  S   S85       1.0  0.51936  0.16946  0.73911  1.0000
  Fe  Fe42      1.0  0.47330  0.13329  0.65476  1.0000
  S   S86       1.0  0.43027  0.13333  0.64195  1.0000
  Fe  Fe43      1.0  0.52801  0.15094  0.63885  1.0000
  S   S87       1.0  0.54648  0.16992  0.60306  1.0000
  S   S88       1.0  0.48753  0.11535  0.69294  1.0000
  S   S89       1.0  0.54695  0.13480  0.67542  1.0000
  C   C215      1.0  0.57478  0.07918  0.60610  1.0000
  S   S90       1.0  0.40549  0.14077  0.51962  1.0000
  C   C216      1.0  0.42319  0.13203  0.60779  1.0000
  C   C217      1.0  0.44355  0.13137  0.58917  1.0000
  C   C218      1.0  0.43767  0.13285  0.56213  1.0000
  C   C219      1.0  0.41138  0.13491  0.55341  1.0000
  C   C220      1.0  0.39085  0.13460  0.57189  1.0000
  C   C221      1.0  0.39678  0.13327  0.59904  1.0000
  H   H213      1.0  0.46392  0.13062  0.59557  1.0000
  H   H214      1.0  0.45365  0.13311  0.54795  1.0000
  H   H215      1.0  0.37050  0.13625  0.56536  1.0000
  H   H216      1.0  0.38090  0.13376  0.61334  1.0000
  C   C222      1.0  0.57915  0.16107  0.59433  1.0000
  C   C223      1.0  0.59595  0.14827  0.61216  1.0000
  C   C224      1.0  0.62175  0.14110  0.60448  1.0000
  C   C225      1.0  0.63066  0.14600  0.57874  1.0000
  C   C226      1.0  0.61375  0.15857  0.56084  1.0000
  C   C227      1.0  0.58821  0.16639  0.56874  1.0000
  H   H217      1.0  0.58921  0.14416  0.63194  1.0000
  H   H218      1.0  0.63472  0.13133  0.61839  1.0000
  H   H219      1.0  0.62038  0.16234  0.54093  1.0000
  H   H220      1.0  0.57531  0.17626  0.55483  1.0000
  C   C228      1.0  0.49774  0.02702  0.68081  1.0000
  C   C229      1.0  0.52455  0.02822  0.67395  1.0000
  H   H221      1.0  0.55156  0.46368  0.87805  1.0000
  H   H222      1.0  0.48638  0.04512  0.68268  1.0000
  H   H223      1.0  0.59243  0.05858  0.63894  1.0000
  C   C230      1.0  0.50103  0.25160  0.77649  1.0000
  C   C231      1.0  0.51253  0.23132  0.79138  1.0000
  C   C232      1.0  0.51804  0.20645  0.77958  1.0000
  C   C233      1.0  0.51204  0.20137  0.75282  1.0000
  C   C234      1.0  0.50054  0.22166  0.73796  1.0000
  C   C235      1.0  0.49511  0.24654  0.74973  1.0000
  H   H224      1.0  0.51693  0.23464  0.81204  1.0000
  H   H225      1.0  0.52684  0.19094  0.79135  1.0000
  H   H226      1.0  0.49576  0.21815  0.71741  1.0000
  H   H227      1.0  0.48613  0.26196  0.73797  1.0000
  C   C236      1.0  0.44066  0.41177  0.84469  1.0000
  C   C237      1.0  0.42490  0.39537  0.86027  1.0000
  C   C238      1.0  0.39878  0.40294  0.86638  1.0000
  C   C239      1.0  0.38836  0.42693  0.85705  1.0000
  C   C240      1.0  0.40449  0.44379  0.84232  1.0000
  C   C241      1.0  0.43050  0.43611  0.83601  1.0000
  H   H228      1.0  0.43260  0.37663  0.86714  1.0000
  H   H229      1.0  0.38640  0.38988  0.87786  1.0000
  H   H230      1.0  0.39657  0.46225  0.83495  1.0000
  H   H231      1.0  0.44257  0.44877  0.82382  1.0000
  C   C242      1.0  0.59571  0.38155  0.85166  1.0000
  C   C243      1.0  0.62135  0.39137  0.85611  1.0000
  C   C244      1.0  0.62786  0.41750  0.84910  1.0000
  C   C245      1.0  0.60880  0.43377  0.83735  1.0000
  C   C246      1.0  0.58344  0.42361  0.83216  1.0000
  C   C247      1.0  0.57684  0.39767  0.83947  1.0000
  H   H232      1.0  0.63610  0.37888  0.86531  1.0000
  H   H233      1.0  0.64758  0.42502  0.85278  1.0000
  H   H234      1.0  0.56864  0.43609  0.82302  1.0000
  H   H235      1.0  0.55703  0.39032  0.83593  1.0000
  C   C248      1.0  0.52330  0.31836  0.95871  1.0000
  C   C249      1.0  0.49585  0.31472  0.95770  1.0000
  C   C250      1.0  0.48133  0.31541  0.98135  1.0000
  H   H236      1.0  0.53471  0.31776  0.94067  1.0000
  H   H237      1.0  0.46009  0.31261  0.98072  1.0000
  H   H238      1.0  0.38449  0.19003  0.56078  1.0000
  H   H239      1.0  0.54422  0.34237  0.74242  1.0000
  H   H240      1.0  0.51430  0.02066  0.73602  1.0000
  H   H241      1.0  0.41298  0.32180  0.81958  1.0000
  H   H242      1.0  0.51249  0.11660  0.75637  1.0000
  C   C251      1.0  0.59569  0.06703  0.61956  1.0000
  H   H243      1.0  0.47326  0.04118  0.75392  1.0000
  C   C252      1.0  0.57370  0.40806  0.90840  1.0000
  H   H244      1.0  0.53914  0.25869  0.97949  1.0000
  C   C253      1.0  0.62445  0.07693  0.58298  1.0000
  N   N19       1.0  0.57872  0.09018  0.58181  1.0000
  H   H245      1.0  0.58429  0.26743  0.80918  1.0000
  C   C254      1.0  0.41551  0.38147  0.79068  1.0000
  H   H246      1.0  0.35587  0.38487  0.82150  1.0000
  H   H247      1.0  0.40713  0.19830  0.60420  1.0000
  N   N20       1.0  0.42542  0.19863  0.56628  1.0000
  H   H248      1.0  0.61300  0.40306  0.92376  1.0000
  H   H249      1.0  0.36980  0.33953  0.83465  1.0000
  C   C255      1.0  0.60305  0.08878  0.57001  1.0000
  H   H250      1.0  0.47259  0.08956  0.76431  1.0000
  H   H251      1.0  0.46483  0.35711  0.79875  1.0000
  H   H252      1.0  0.39420  0.22381  0.55376  1.0000
  C   C256      1.0  0.44864  0.19681  0.55248  1.0000
  C   C257      1.0  0.57446  0.35312  0.77070  1.0000
  C   C258      1.0  0.40027  0.20272  0.55231  1.0000
  C   C259      1.0  0.55444  0.30975  0.76786  1.0000
  H   H253      1.0  0.55371  0.12180  0.73499  1.0000
  N   N21       1.0  0.42290  0.35640  0.79769  1.0000
  H   H254      1.0  0.49168  0.18961  0.60369  1.0000
  H   H255      1.0  0.44850  0.19716  0.53108  1.0000
  C   C260      1.0  0.44855  0.34607  0.78882  1.0000
  H   H256      1.0  0.45101  0.32466  0.79334  1.0000
  C   C261      1.0  0.40681  0.34138  0.81333  1.0000
  C   C262      1.0  0.39108  0.39184  0.79867  1.0000
  H   H257      1.0  0.55751  0.32354  0.98386  1.0000
  H   H258      1.0  0.56758  0.09469  0.71676  1.0000
  H   H259      1.0  0.53652  0.41841  0.89014  1.0000
  C   C263      1.0  0.37438  0.37656  0.81429  1.0000
  H   H260      1.0  0.56772  0.38788  0.91277  1.0000
  H   H261      1.0  0.63434  0.47073  0.92297  1.0000
  H   H262      1.0  0.45059  0.34828  0.76714  1.0000
  H   H263      1.0  0.40177  0.19706  0.53110  1.0000
  H   H264      1.0  0.37411  0.05057  0.54988  1.0000
  H   H265      1.0  0.63726  0.05711  0.61829  1.0000
  C   C264      1.0  0.55642  0.10260  0.56802  1.0000
  H   H266      1.0  0.60356  0.35781  0.80162  1.0000
  H   H267      1.0  0.57361  0.09754  0.75197  1.0000
  S   S91       1.0  0.35445  0.43399  0.86149  1.0000
  H   H268      1.0  0.55542  0.07993  0.61537  1.0000
  H   H269      1.0  0.54019  0.29644  0.75868  1.0000
  C   C265      1.0  0.62072  0.06607  0.60794  1.0000
  C   C266      1.0  0.51304  0.09552  0.75200  1.0000
  N   N22       1.0  0.53522  0.08418  0.74131  1.0000
  H   H270      1.0  0.59853  0.31206  0.81769  1.0000
  C   C267      1.0  0.49081  0.05319  0.75092  1.0000
  C   C268      1.0  0.51383  0.04165  0.74093  1.0000
  H   H271      1.0  0.55347  0.04856  0.72750  1.0000
  H   H272      1.0  0.57615  0.37344  0.76402  1.0000
  C   C269      1.0  0.55872  0.10035  0.73608  1.0000
  C   C270      1.0  0.58987  0.34438  0.79179  1.0000
  C   C271      1.0  0.53597  0.05755  0.73617  1.0000
  C   C272      1.0  0.58705  0.31836  0.80069  1.0000
  C   C273      1.0  0.53618  0.32161  0.98322  1.0000
  H   H273      1.0  0.56231  0.26017  0.78223  1.0000
  H   H274      1.0  0.64601  0.45137  0.89533  1.0000
  C   C274      1.0  0.56631  0.27442  0.79862  1.0000
  N   N23       1.0  0.56973  0.30133  0.78852  1.0000
  C   C275      1.0  0.49041  0.08027  0.75668  1.0000
  C   C276      1.0  0.55659  0.33573  0.75861  1.0000
  C   C277      1.0  0.35818  0.04153  0.53761  1.0000
  H   H275      1.0  0.49120  0.19167  0.55486  1.0000
  C   C278      1.0  0.55622  0.42516  0.89562  1.0000
  H   H276      1.0  0.59714  0.47802  0.88904  1.0000
  C   C279      1.0  0.38231  0.35122  0.82183  1.0000
  H   H277      1.0  0.60639  0.09774  0.55089  1.0000
  H   H278      1.0  0.42886  0.39384  0.77941  1.0000
  C   C280      1.0  0.59038  0.45861  0.89526  1.0000
  C   C281      1.0  0.56459  0.45059  0.88893  1.0000
  H   H279      1.0  0.56337  0.11678  0.55284  1.0000
  H   H280      1.0  0.38555  0.41200  0.79375  1.0000
  H   H281      1.0  0.64476  0.43728  0.92784  1.0000
  C   C282      1.0  0.59934  0.41675  0.91448  1.0000
  N   N24       1.0  0.60726  0.44185  0.90814  1.0000
  C   C283      1.0  0.42555  0.19752  0.59326  1.0000
  H   H282      1.0  0.54395  0.08719  0.55842  1.0000
  C   C284      1.0  0.44933  0.19439  0.60713  1.0000
  S   S92       1.0  0.66229  0.13466  0.56914  1.0000
  Fe  Fe44      1.0  0.65319  0.48727  0.84323  1.0000
  H   H283      1.0  0.54927  0.27401  0.81242  1.0000
  C   C285      1.0  0.47281  0.19365  0.56575  1.0000
  H   H284      1.0  0.54410  0.11426  0.58208  1.0000
  H   H285      1.0  0.64398  0.07695  0.57400  1.0000
  C   C286      1.0  0.47309  0.19248  0.59324  1.0000
  Fe  Fe45      1.0  0.34219  0.47695  0.85790  1.0000
  H   H286      1.0  0.33854  0.04703  0.54591  1.0000
  H   H287      1.0  0.35914  0.05042  0.51759  1.0000
  H   H288      1.0  0.35620  0.00890  0.57842  1.0000
  H   H289      1.0  0.46066  0.49611  0.83293  1.0000
  N   N25       1.0  0.36098  0.01260  0.53680  1.0000
  Fe  Fe46      1.0  0.36476  0.13764  0.50104  1.0000
  S   S93       1.0  0.66600  0.17283  0.50046  1.0000
  C   C287      1.0  0.63436  0.45063  0.91386  1.0000
  C   C288      1.0  0.52735  0.25641  0.99720  1.0000
  H   H290      1.0  0.55970  0.00515  0.66627  1.0000
  S   S94       1.0  0.33809  0.49935  0.81980  1.0000
  H   H291      1.0  0.49029  0.25462  0.97605  1.0000
  H   H292      1.0  0.33662  0.46210  0.98693  1.0000
  C   C289      1.0  0.49988  0.25419  0.99529  1.0000
  C   C290      1.0  0.53896  0.00450  0.67155  1.0000
  C   C291      1.0  0.48581  0.00236  0.68616  1.0000
  H   H293      1.0  0.54083  0.76048  0.05435  1.0000
  S   S95       1.0  0.35509  0.58809  0.11400  1.0000
  H   H294      1.0  0.42103  0.67782  0.06742  1.0000
  H   H295      1.0  0.47683  0.93082  0.41916  1.0000
  Fe  Fe47      1.0  0.48828  0.66012  0.13283  1.0000
  S   S96       1.0  0.46796  0.69668  0.11823  1.0000
  S   S97       1.0  0.47118  0.62206  0.14881  1.0000
  Fe  Fe48      1.0  0.54247  0.67981  0.11711  1.0000
  S   S98       1.0  0.52668  0.71829  0.10076  1.0000
  S   S99       1.0  0.58596  0.66849  0.11751  1.0000
  Fe  Fe49      1.0  0.50142  0.71962  0.13756  1.0000
  S   S100      1.0  0.49035  0.75911  0.15757  1.0000
  Fe  Fe50      1.0  0.49458  0.69291  0.08288  1.0000
  S   S101      1.0  0.47419  0.69530  0.04290  1.0000
  S   S102      1.0  0.51964  0.68291  0.15507  1.0000
  S   S103      1.0  0.51243  0.65468  0.09619  1.0000
  H   H296      1.0  0.42064  0.66779  0.03321  1.0000
  C   C292      1.0  0.63233  0.61320  0.05872  1.0000
  Fe  Fe51      1.0  0.51891  0.85620  0.28580  1.0000
  S   S104      1.0  0.49979  0.84782  0.32488  1.0000
  S   S105      1.0  0.53208  0.82010  0.26127  1.0000
  Fe  Fe52      1.0  0.51942  0.91643  0.29731  1.0000
  S   S106      1.0  0.49996  0.91210  0.33670  1.0000
  S   S107      1.0  0.53591  0.95593  0.28346  1.0000
  Fe  Fe53      1.0  0.52758  0.87779  0.34260  1.0000
  S   S108      1.0  0.54304  0.87105  0.38401  1.0000
  Fe  Fe54      1.0  0.47393  0.88262  0.31601  1.0000
  S   S109      1.0  0.43019  0.88152  0.32463  1.0000
  S   S110      1.0  0.54911  0.88370  0.30448  1.0000
  S   S111      1.0  0.49097  0.88943  0.27550  1.0000
  C   C293      1.0  0.51957  0.69635  0.01229  1.0000
  S   S112      1.0  0.40515  0.85126  0.44291  1.0000
  C   C294      1.0  0.42280  0.87152  0.35697  1.0000
  C   C295      1.0  0.39677  0.87344  0.36638  1.0000
  C   C296      1.0  0.39089  0.86672  0.39261  1.0000
  C   C297      1.0  0.41097  0.85760  0.40934  1.0000
  C   C298      1.0  0.43673  0.85462  0.39954  1.0000
  C   C299      1.0  0.44271  0.86191  0.37357  1.0000
  H   H297      1.0  0.38123  0.88074  0.35359  1.0000
  H   H298      1.0  0.37092  0.86890  0.39994  1.0000
  H   H299      1.0  0.45231  0.84743  0.41235  1.0000
  H   H300      1.0  0.46283  0.86029  0.36656  1.0000
  C   C300      1.0  0.52029  0.98708  0.28870  1.0000
  H   H301      1.0  0.60768  0.53409  0.06771  1.0000
  H   H302      1.0  0.37745  0.92717  0.43272  1.0000
  H   H303      1.0  0.59935  0.63857  0.17768  1.0000
  C   C301      1.0  0.58962  0.88473  0.25058  1.0000
  C   C302      1.0  0.63120  0.88021  0.40488  1.0000
  C   C303      1.0  0.61277  0.87306  0.42413  1.0000
  C   C304      1.0  0.58582  0.87040  0.41744  1.0000
  C   C305      1.0  0.57708  0.87482  0.39150  1.0000
  C   C306      1.0  0.59548  0.88206  0.37226  1.0000
  C   C307      1.0  0.62246  0.88472  0.37895  1.0000
  H   H304      1.0  0.61930  0.86925  0.44407  1.0000
  H   H305      1.0  0.57170  0.86471  0.43234  1.0000
  H   H306      1.0  0.58897  0.88550  0.35223  1.0000
  H   H307      1.0  0.63662  0.89019  0.36397  1.0000
  C   C308      1.0  0.50207  0.77546  0.18674  1.0000
  C   C309      1.0  0.48996  0.79935  0.19480  1.0000
  C   C310      1.0  0.49868  0.81322  0.21755  1.0000
  C   C311      1.0  0.51977  0.80338  0.23257  1.0000
  C   C312      1.0  0.53190  0.77954  0.22451  1.0000
  C   C313      1.0  0.52310  0.76562  0.20183  1.0000
  H   H308      1.0  0.47372  0.80721  0.18326  1.0000
  H   H309      1.0  0.48920  0.83159  0.22327  1.0000
  H   H310      1.0  0.54827  0.77173  0.23589  1.0000
  H   H311      1.0  0.53270  0.74736  0.19593  1.0000
  C   C314      1.0  0.57602  0.86449  0.23729  1.0000
  C   C315      1.0  0.52678  0.76105  0.03811  1.0000
  C   C316      1.0  0.61646  0.59070  0.05533  1.0000
  H   H312      1.0  0.60648  0.87965  0.26287  1.0000
  H   H313      1.0  0.53065  0.69663  0.03060  1.0000
  C   C317      1.0  0.60769  0.58033  0.11961  1.0000
  C   C318      1.0  0.58145  0.58820  0.11502  1.0000
  C   C319      1.0  0.57471  0.61514  0.11418  1.0000
  C   C320      1.0  0.59418  0.63451  0.11773  1.0000
  C   C321      1.0  0.62054  0.62666  0.12201  1.0000
  C   C322      1.0  0.62733  0.59960  0.12295  1.0000
  H   H314      1.0  0.56615  0.57337  0.11257  1.0000
  H   H315      1.0  0.55436  0.62084  0.11111  1.0000
  H   H316      1.0  0.63573  0.64156  0.12486  1.0000
  H   H317      1.0  0.64761  0.59368  0.12663  1.0000
  C   C323      1.0  0.38661  0.59770  0.12584  1.0000
  C   C324      1.0  0.39469  0.62417  0.12330  1.0000
  C   C325      1.0  0.42051  0.63194  0.13047  1.0000
  C   C326      1.0  0.43827  0.61332  0.14065  1.0000
  C   C327      1.0  0.42997  0.58699  0.14384  1.0000
  C   C328      1.0  0.40428  0.57913  0.13629  1.0000
  H   H318      1.0  0.38105  0.63865  0.11538  1.0000
  H   H319      1.0  0.42660  0.65233  0.12822  1.0000
  H   H320      1.0  0.44354  0.57251  0.15186  1.0000
  H   H321      1.0  0.39821  0.55870  0.13841  1.0000
  N   N26       1.0  0.44996  0.80385  0.30181  1.0000
  C   C329      1.0  0.46170  0.79258  0.32339  1.0000
  C   C330      1.0  0.42547  0.81528  0.30387  1.0000
  C   C331      1.0  0.44867  0.79225  0.34775  1.0000
  C   C332      1.0  0.41172  0.81491  0.32780  1.0000
  C   C333      1.0  0.42347  0.80340  0.34988  1.0000
  C   C334      1.0  0.46414  0.80510  0.27664  1.0000
  H   H322      1.0  0.48152  0.78436  0.32202  1.0000
  H   H323      1.0  0.41669  0.82536  0.28714  1.0000
  H   H324      1.0  0.45827  0.78391  0.36499  1.0000
  H   H325      1.0  0.39260  0.82459  0.32951  1.0000
  H   H326      1.0  0.41340  0.80395  0.36880  1.0000
  H   H327      1.0  0.47177  0.82547  0.27350  1.0000
  H   H328      1.0  0.48133  0.79129  0.27607  1.0000
  H   H329      1.0  0.45089  0.79961  0.25991  1.0000
  H   H330      1.0  0.54256  0.85495  0.21255  1.0000
  H   H331      1.0  0.47570  0.90525  0.39407  1.0000
  N   N27       1.0  0.58125  0.91046  0.24883  1.0000
  C   C335      1.0  0.45293  0.60571  0.07614  1.0000
  C   C336      1.0  0.43440  0.58522  0.07513  1.0000
  H   H332      1.0  0.62025  0.52768  0.03501  1.0000
  C   C337      1.0  0.65460  0.56385  0.04934  1.0000
  N   N28       1.0  0.56692  0.61134  0.17884  1.0000
  C   C338      1.0  0.54028  0.60855  0.17447  1.0000
  C   C339      1.0  0.58298  0.58951  0.17991  1.0000
  C   C340      1.0  0.52923  0.58346  0.17025  1.0000
  C   C341      1.0  0.57258  0.56412  0.17573  1.0000
  C   C342      1.0  0.54555  0.56114  0.17075  1.0000
  H   H333      1.0  0.62335  0.63232  0.06295  1.0000
  H   H334      1.0  0.52740  0.62576  0.17390  1.0000
  N   N29       1.0  0.62767  0.56647  0.05046  1.0000
  H   H335      1.0  0.50814  0.58145  0.16641  1.0000
  C   C343      1.0  0.55362  0.87065  0.22237  1.0000
  H   H336      1.0  0.61693  0.92881  0.26225  1.0000
  H   H337      1.0  0.56789  0.65278  0.17105  1.0000
  C   C344      1.0  0.61085  0.54290  0.04793  1.0000
  H   H338      1.0  0.57611  0.64345  0.20451  1.0000
  H   H339      1.0  0.40245  0.94607  0.35413  1.0000
  Fe  Fe55      1.0  0.36662  0.86459  0.46125  1.0000
  C   C345      1.0  0.49334  0.98908  0.29475  1.0000
  H   H340      1.0  0.55213  0.93695  0.23341  1.0000
  N   N30       1.0  0.43823  0.92170  0.40508  1.0000
  C   C346      1.0  0.41884  0.92057  0.42389  1.0000
  C   C347      1.0  0.43265  0.93128  0.38047  1.0000
  C   C348      1.0  0.39298  0.92873  0.41808  1.0000
  C   C349      1.0  0.40695  0.93945  0.37397  1.0000
  C   C350      1.0  0.38702  0.93815  0.39296  1.0000
  C   C351      1.0  0.46537  0.91358  0.41164  1.0000
  H   H341      1.0  0.42305  0.91247  0.44324  1.0000
  H   H342      1.0  0.44787  0.93182  0.36539  1.0000
  S   S113      1.0  0.65184  0.89736  0.48631  1.0000
  H   H343      1.0  0.39387  0.57480  0.06624  1.0000
  H   H344      1.0  0.56434  0.84730  0.48029  1.0000
  H   H345      1.0  0.45976  0.64710  0.06956  1.0000
  H   H346      1.0  0.47275  0.60214  0.08367  1.0000
  Fe  Fe56      1.0  0.34392  0.54481  0.11692  1.0000
  C   C352      1.0  0.49193  0.69478  0.01281  1.0000
  H   H347      1.0  0.52732  0.90180  0.20984  1.0000
  S   S114      1.0  0.66520  0.88376  0.41264  1.0000
  H   H348      1.0  0.49255  0.75680  0.06313  1.0000
  H   H349      1.0  0.39079  0.66610  0.05294  1.0000
  H   H350      1.0  0.38152  0.62007  0.05303  1.0000
  C   C353      1.0  0.55922  0.91666  0.23429  1.0000
  H   H351      1.0  0.58979  0.95128  0.25715  1.0000
  C   C354      1.0  0.44538  0.63119  0.06849  1.0000
  C   C355      1.0  0.40872  0.59036  0.06626  1.0000
  S   S115      1.0  0.36695  0.90206  0.48502  1.0000
  H   H352      1.0  0.58218  0.84397  0.23929  1.0000
  H   H353      1.0  0.48165  0.97129  0.29703  1.0000
  C   C356      1.0  0.59513  0.93106  0.26401  1.0000
  C   C357      1.0  0.54507  0.89687  0.22087  1.0000
  H   H354      1.0  0.58940  0.92980  0.28516  1.0000
  C   C358      1.0  0.40179  0.61615  0.05901  1.0000
  H   H355      1.0  0.59132  0.54790  0.03915  1.0000
  H   H356      1.0  0.53734  0.54160  0.16704  1.0000
  H   H357      1.0  0.46078  0.75693  0.02570  1.0000
  C   C359      1.0  0.57811  0.63779  0.18341  1.0000
  N   N31       1.0  0.41998  0.63623  0.06053  1.0000
  C   C360      1.0  0.41261  0.66326  0.05308  1.0000
  S   S116      1.0  0.61439  0.54626  0.12253  1.0000
  H   H358      1.0  0.60414  0.59165  0.18309  1.0000
  S   S117      1.0  0.34022  0.52191  0.15469  1.0000
  H   H359      1.0  0.58560  0.54698  0.17548  1.0000
  H   H360      1.0  0.46543  0.89771  0.42677  1.0000
  H   H361      1.0  0.59515  0.59268  0.05714  1.0000
  H   H362      1.0  0.36686  0.94400  0.38821  1.0000
  Fe  Fe57      1.0  0.65543  0.52829  0.11962  1.0000
  S   S118      1.0  0.36940  0.51470  0.09654  1.0000
  H   H363      1.0  0.43966  0.56560  0.08196  1.0000
  C   C361      1.0  0.65983  0.61068  0.05759  1.0000
  C   C362      1.0  0.49969  0.75914  0.04307  1.0000
  H   H364      1.0  0.55672  0.76422  0.00827  1.0000
  C   C363      1.0  0.64775  0.98806  0.45949  1.0000
  N   N32       1.0  0.66301  0.97822  0.43943  1.0000
  C   C364      1.0  0.48180  0.75935  0.02203  1.0000
  H   H365      1.0  0.36931  0.96186  0.49360  1.0000
  S   S119      1.0  0.34747  0.84110  0.49330  1.0000
  H   H366      1.0  0.64810  0.93883  0.43670  1.0000
  C   C365      1.0  0.53561  0.76306  0.01203  1.0000
  H   H367      1.0  0.66349  0.54461  0.04577  1.0000
  H   H368      1.0  0.63929  0.97478  0.47398  1.0000
  C   C366      1.0  0.66733  0.94955  0.43759  1.0000
  C   C367      1.0  0.55874  0.85573  0.49924  1.0000
  S   S120      1.0  0.39316  0.55312  0.82173  1.0000
  C   C368      1.0  0.59843  0.61991  0.78453  1.0000
  C   C369      1.0  0.56621  0.68627  0.79253  1.0000
  H   H369      1.0  0.48726  0.82382  0.79781  1.0000
  Fe  Fe58      1.0  0.47214  0.67841  0.85906  1.0000
  S   S121      1.0  0.48838  0.71849  0.87113  1.0000
  S   S122      1.0  0.42900  0.66684  0.86259  1.0000
  Fe  Fe59      1.0  0.52612  0.65505  0.84851  1.0000
  S   S123      1.0  0.54687  0.69276  0.85950  1.0000
  S   S124      1.0  0.54284  0.61544  0.83531  1.0000
  Fe  Fe60      1.0  0.51863  0.69494  0.89377  1.0000
  S   S125      1.0  0.53604  0.70421  0.93429  1.0000
  Fe  Fe61      1.0  0.51524  0.71375  0.83576  1.0000
  S   S126      1.0  0.53144  0.74776  0.81037  1.0000
  S   S127      1.0  0.50037  0.65563  0.88443  1.0000
  S   S128      1.0  0.49659  0.67537  0.82213  1.0000
  Fe  Fe62      1.0  0.50044  0.90904  0.67578  1.0000
  S   S129      1.0  0.51736  0.90572  0.63521  1.0000
  S   S130      1.0  0.48522  0.94814  0.69270  1.0000
  Fe  Fe63      1.0  0.50363  0.84874  0.68550  1.0000
  S   S131      1.0  0.52104  0.84107  0.64516  1.0000
  S   S132      1.0  0.48834  0.81553  0.71240  1.0000
  Fe  Fe64      1.0  0.54604  0.87701  0.65306  1.0000
  S   S133      1.0  0.58891  0.88230  0.64138  1.0000
  Fe  Fe65      1.0  0.49105  0.87024  0.62989  1.0000
  S   S134      1.0  0.47407  0.86267  0.58899  1.0000
  S   S135      1.0  0.53116  0.88284  0.69474  1.0000
  S   S136      1.0  0.47154  0.87549  0.66929  1.0000
  S   S137      1.0  0.62902  0.83867  0.53075  1.0000
  S   S138      1.0  0.35387  0.88459  0.55849  1.0000
  C   C370      1.0  0.44055  0.86906  0.58117  1.0000
  C   C371      1.0  0.42260  0.87838  0.60007  1.0000
  C   C372      1.0  0.39601  0.88310  0.59299  1.0000
  C   C373      1.0  0.38730  0.87867  0.56699  1.0000
  C   C374      1.0  0.40525  0.86940  0.54811  1.0000
  C   C375      1.0  0.43174  0.86458  0.55521  1.0000
  H   H370      1.0  0.42920  0.88188  0.62013  1.0000
  H   H371      1.0  0.38221  0.89023  0.60771  1.0000
  H   H372      1.0  0.39875  0.86580  0.52803  1.0000
  H   H373      1.0  0.44548  0.85730  0.54050  1.0000
  C   C376      1.0  0.59956  0.87018  0.61046  1.0000
  C   C377      1.0  0.58725  0.84844  0.59834  1.0000
  C   C378      1.0  0.59654  0.83885  0.57394  1.0000
  C   C379      1.0  0.61790  0.85118  0.56133  1.0000
  C   C380      1.0  0.63008  0.87305  0.57331  1.0000
  C   C381      1.0  0.62111  0.88231  0.59795  1.0000
  H   H374      1.0  0.57086  0.83873  0.60800  1.0000
  H   H375      1.0  0.58706  0.82188  0.56478  1.0000
  H   H376      1.0  0.64651  0.88276  0.56372  1.0000
  H   H377      1.0  0.63073  0.89913  0.60725  1.0000
  C   C382      1.0  0.50029  0.97862  0.68388  1.0000
  C   C383      1.0  0.52758  0.76556  0.96437  1.0000
  C   C384      1.0  0.52684  0.97981  0.67618  1.0000
  C   C385      1.0  0.61373  0.66156  0.80470  1.0000
  H   H378      1.0  0.53827  0.96173  0.67445  1.0000
  C   C386      1.0  0.51938  0.76568  0.78249  1.0000
  C   C387      1.0  0.53493  0.78633  0.77214  1.0000
  C   C388      1.0  0.52620  0.80133  0.75029  1.0000
  C   C389      1.0  0.50171  0.79586  0.73844  1.0000
  C   C390      1.0  0.48627  0.77507  0.74868  1.0000
  C   C391      1.0  0.49496  0.76013  0.77056  1.0000
  H   H379      1.0  0.55388  0.79082  0.78112  1.0000
  H   H380      1.0  0.53833  0.81724  0.74277  1.0000
  H   H381      1.0  0.46730  0.77061  0.73971  1.0000
  H   H382      1.0  0.48276  0.74432  0.77816  1.0000
  C   C392      1.0  0.51875  0.69842  0.96404  1.0000
  C   C393      1.0  0.49115  0.69615  0.96455  1.0000
  C   C394      1.0  0.53288  0.69837  0.98799  1.0000
  H   H383      1.0  0.48005  0.69632  0.94623  1.0000
  N   N33       1.0  0.47627  0.56675  0.85846  1.0000
  C   C395      1.0  0.62895  0.59301  0.85306  1.0000
  C   C396      1.0  0.61114  0.57406  0.84334  1.0000
  C   C397      1.0  0.58451  0.58092  0.83891  1.0000
  C   C398      1.0  0.57542  0.60665  0.84446  1.0000
  C   C399      1.0  0.59299  0.62535  0.85503  1.0000
  C   C400      1.0  0.61974  0.61860  0.85907  1.0000
  H   H384      1.0  0.61808  0.55431  0.83856  1.0000
  H   H385      1.0  0.57109  0.56637  0.83061  1.0000
  H   H386      1.0  0.58617  0.64520  0.85945  1.0000
  H   H387      1.0  0.63340  0.63328  0.86677  1.0000
  C   C401      1.0  0.40322  0.58439  0.83386  1.0000
  C   C402      1.0  0.42531  0.59679  0.82261  1.0000
  C   C403      1.0  0.43360  0.62190  0.83156  1.0000
  C   C404      1.0  0.41959  0.63496  0.85156  1.0000
  C   C405      1.0  0.39733  0.62264  0.86262  1.0000
  C   C406      1.0  0.38931  0.59731  0.85401  1.0000
  H   H388      1.0  0.43605  0.58698  0.80688  1.0000
  H   H389      1.0  0.45051  0.63142  0.82262  1.0000
  H   H390      1.0  0.38637  0.63268  0.87806  1.0000
  H   H391      1.0  0.37224  0.58794  0.86280  1.0000
  H   H392      1.0  0.53351  0.87034  0.58804  1.0000
  H   H393      1.0  0.58126  0.89858  0.54599  1.0000
  C   C407      1.0  0.49435  0.55371  0.84308  1.0000
  C   C408      1.0  0.56802  0.88464  0.53626  1.0000
  C   C409      1.0  0.48912  0.52805  0.83376  1.0000
  H   H394      1.0  0.55444  0.89853  0.58370  1.0000
  H   H395      1.0  0.46563  0.60270  0.87883  1.0000
  H   H396      1.0  0.65813  0.78855  0.53228  1.0000
  H   H397      1.0  0.52026  0.89967  0.57281  1.0000
  H   H398      1.0  0.44470  0.80627  0.78047  1.0000
  C   C410      1.0  0.35270  0.79476  0.54431  1.0000
  H   H399      1.0  0.59359  0.88020  0.50238  1.0000
  H   H400      1.0  0.37349  0.79122  0.54851  1.0000
  H   H401      1.0  0.45641  0.69332  0.98907  1.0000
  C   C411      1.0  0.53542  0.84777  0.51161  1.0000
  H   H402      1.0  0.34018  0.62760  0.82374  1.0000
  C   C412      1.0  0.45289  0.55486  0.86514  1.0000
  H   H403      1.0  0.43831  0.56535  0.87695  1.0000
  H   H404      1.0  0.42063  0.83084  0.74539  1.0000
  H   H405      1.0  0.47731  0.76070  0.97993  1.0000
  C   C413      1.0  0.58626  0.70072  0.80500  1.0000
  H   H406      1.0  0.35000  0.82789  0.57096  1.0000
  H   H407      1.0  0.51088  0.85205  0.54604  1.0000
  C   C414      1.0  0.49131  0.76128  0.99620  1.0000
  H   H408      1.0  0.54748  0.69578  0.78786  1.0000
  C   C415      1.0  0.47780  0.69447  0.98886  1.0000
  N   N34       1.0  0.59391  0.64751  0.79254  1.0000
  C   C416      1.0  0.57035  0.65949  0.78651  1.0000
  C   C417      1.0  0.53812  0.88690  0.57444  1.0000
  N   N35       1.0  0.54534  0.87638  0.54844  1.0000
  S   S139      1.0  0.65073  0.51363  0.87887  1.0000
  H   H409      1.0  0.52254  0.83328  0.50224  1.0000
  H   H410      1.0  0.36022  0.95981  0.57784  1.0000
  H   H411      1.0  0.50509  0.89835  0.74586  1.0000
  C   C418      1.0  0.61012  0.68828  0.81133  1.0000
  H   H412      1.0  0.60489  0.61903  0.76363  1.0000
  H   H413      1.0  0.47828  0.90005  0.72298  1.0000
  Fe  Fe66      1.0  0.34423  0.87957  0.51518  1.0000
  H   H414      1.0  0.36683  0.93616  0.53539  1.0000
  H   H415      1.0  0.42803  0.52027  0.86071  1.0000
  H   H416      1.0  0.47431  0.91399  0.75548  1.0000
  H   H417      1.0  0.58005  0.60802  0.78686  1.0000
  C   C419      1.0  0.46521  0.51585  0.84027  1.0000
  C   C420      1.0  0.44698  0.52929  0.85607  1.0000
  H   H418      1.0  0.58306  0.72142  0.81009  1.0000
  C   C421      1.0  0.34003  0.57663  0.77956  1.0000
  C   C422      1.0  0.33936  0.77930  0.52557  1.0000
  C   C423      1.0  0.33926  0.81547  0.55700  1.0000
  H   H419      1.0  0.48626  0.60663  0.85042  1.0000
  H   H420      1.0  0.50022  0.59359  0.88041  1.0000
  H   H421      1.0  0.37061  0.60282  0.79415  1.0000
  H   H422      1.0  0.55449  0.64828  0.77724  1.0000
  H   H423      1.0  0.55424  0.70015  0.98775  1.0000
  N   N36       1.0  0.51794  0.76289  0.99149  1.0000
  H   H424      1.0  0.61382  0.61038  0.79706  1.0000
  H   H425      1.0  0.34966  0.76358  0.51510  1.0000
  H   H426      1.0  0.50341  0.51782  0.82140  1.0000
  H   H427      1.0  0.51361  0.75638  0.94992  1.0000
  C   C424      1.0  0.48230  0.59366  0.86761  1.0000
  H   H428      1.0  0.51286  0.56330  0.83781  1.0000
  Fe  Fe67      1.0  0.35945  0.53182  0.84194  1.0000
  N   N37       1.0  0.47294  0.87197  0.75376  1.0000
  C   C425      1.0  0.48628  0.85860  0.77310  1.0000
  C   C426      1.0  0.44939  0.86249  0.74417  1.0000
  C   C427      1.0  0.47613  0.83499  0.78326  1.0000
  C   C428      1.0  0.43873  0.83886  0.75379  1.0000
  C   C429      1.0  0.45222  0.82509  0.77348  1.0000
  C   C430      1.0  0.48317  0.89731  0.74418  1.0000
  H   H429      1.0  0.50515  0.86585  0.78041  1.0000
  H   H430      1.0  0.43907  0.87283  0.72850  1.0000
  C   C431      1.0  0.34974  0.59778  0.79471  1.0000
  H   H431      1.0  0.62565  0.69925  0.82143  1.0000
  H   H432      1.0  0.63232  0.65198  0.80974  1.0000
  S   S140      1.0  0.66298  0.58571  0.85630  1.0000
  H   H433      1.0  0.35382  0.56516  0.76771  1.0000
  H   H434      1.0  0.65564  0.81066  0.57402  1.0000
  S   S141      1.0  0.36650  0.50802  0.87851  1.0000
  Fe  Fe68      1.0  0.66132  0.86118  0.50973  1.0000
  C   C432      1.0  0.36706  0.97203  0.51241  1.0000
  C   C433      1.0  0.36160  0.97097  0.55964  1.0000
  C   C434      1.0  0.52896  0.85841  0.53636  1.0000
  C   C435      1.0  0.36538  0.95763  0.53575  1.0000
  C   C436      1.0  0.57509  0.87439  0.51154  1.0000
  H   H435      1.0  0.54672  0.75492  0.96171  1.0000
  H   H436      1.0  0.53025  0.78677  0.95944  1.0000
  H   H437      1.0  0.46524  0.00164  0.69204  1.0000
  C   C437      1.0  0.35937  0.99864  0.55981  1.0000
  C   C438      1.0  0.36497  0.99967  0.51331  1.0000
  C   C439      1.0  0.67092  0.20385  0.42968  1.0000
  S   S142      1.0  0.72023  0.48708  0.11058  1.0000
  H   H438      1.0  0.95603  0.45313  0.24630  1.0000
  H   H439      1.0  0.68228  0.03587  0.41154  1.0000
  N   N38       1.0  0.98003  0.48710  0.23827  1.0000
  Fe  Fe69      1.0  0.69804  0.10564  0.48148  1.0000
  S   S143      1.0  0.71480  0.06623  0.46699  1.0000
  H   H440      1.0  0.90995  0.46025  0.39608  1.0000
  S   S144      1.0  0.69190  0.13852  0.45201  1.0000
  Fe  Fe70      1.0  0.86569  0.48670  0.33520  1.0000
  S   S145      1.0  0.84797  0.46940  0.37228  1.0000
  S   S146      1.0  0.88153  0.46715  0.29862  1.0000
  Fe  Fe71      1.0  0.87419  0.34190  0.45182  1.0000
  S   S147      1.0  0.89389  0.30441  0.46604  1.0000
  S   S148      1.0  0.87629  0.35250  0.40853  1.0000
  C   C440      1.0  0.69012  0.19530  0.41168  1.0000
  C   C441      1.0  0.97629  0.45832  0.23943  1.0000
  S   S149      1.0  0.72927  0.20412  0.47144  1.0000
  H   H441      1.0  0.91289  0.41900  0.42206  1.0000
  S   S150      1.0  0.89440  0.36804  0.48145  1.0000
  C   C442      1.0  0.70889  0.46306  0.20027  1.0000
  C   C443      1.0  0.70806  0.03587  0.48305  1.0000
  C   C444      1.0  0.92411  0.42059  0.40392  1.0000
  H   H442      1.0  0.96416  0.38495  0.36450  1.0000
  C   C445      1.0  0.85564  0.43670  0.38185  1.0000
  C   C446      1.0  0.86697  0.41856  0.36420  1.0000
  C   C447      1.0  0.87281  0.39264  0.37250  1.0000
  C   C448      1.0  0.86772  0.38482  0.39855  1.0000
  C   C449      1.0  0.85664  0.40304  0.41627  1.0000
  C   C450      1.0  0.85044  0.42883  0.40786  1.0000
  H   H443      1.0  0.87097  0.42439  0.34411  1.0000
  H   H444      1.0  0.88137  0.37862  0.35871  1.0000
  H   H445      1.0  0.85258  0.39717  0.43635  1.0000
  H   H446      1.0  0.84161  0.44272  0.42159  1.0000
  H   H447      1.0  0.73092  0.43105  0.12862  1.0000
  C   C451      1.0  0.80865  0.24513  0.49357  1.0000
  H   H448      1.0  0.99024  0.44953  0.25397  1.0000
  C   C452      1.0  0.98289  0.30974  0.47457  1.0000
  C   C453      1.0  0.75416  0.43593  0.18514  1.0000
  C   C454      1.0  0.94057  0.37510  0.41008  1.0000
  C   C455      1.0  0.75454  0.45140  0.20816  1.0000
  C   C456      1.0  0.69864  0.49151  0.01038  1.0000
  C   C457      1.0  0.71798  0.01210  0.47229  1.0000
  H   H449      1.0  0.67698  0.20888  0.44966  1.0000
  C   C458      1.0  0.92241  0.44402  0.38937  1.0000
  Fe  Fe72      1.0  0.86236  0.50082  0.27617  1.0000
  C   C459      1.0  0.93611  0.44601  0.36562  1.0000
  Fe  Fe73      1.0  0.67826  0.47262  0.11577  1.0000
  H   H450      1.0  0.69529  0.48016  0.02810  1.0000
  Fe  Fe74      1.0  0.91673  0.49416  0.30394  1.0000
  S   S151      1.0  0.83733  0.33649  0.47611  1.0000
  H   H451      1.0  0.96122  0.37155  0.41682  1.0000
  H   H452      1.0  0.73222  0.47831  0.23267  1.0000
  C   C460      1.0  0.73124  0.41779  0.14604  1.0000
  N   N39       1.0  0.93893  0.39970  0.39492  1.0000
  C   C461      1.0  0.98279  0.32844  0.49507  1.0000
  H   H453      1.0  0.79610  0.27519  0.46637  1.0000
  S   S152      1.0  0.95757  0.47499  0.30187  1.0000
  H   H454      1.0  0.73063  0.01278  0.45511  1.0000
  C   C462      1.0  0.98797  0.49258  0.30250  1.0000
  H   H455      1.0  0.92752  0.37555  0.42773  1.0000
  C   C463      1.0  0.76713  0.24354  0.46881  1.0000
  H   H456      1.0  0.71069  0.19361  0.41782  1.0000
  N   N40       1.0  0.73148  0.43366  0.17039  1.0000
  H   H457      1.0  0.69125  0.44564  0.16566  1.0000
  C   C464      1.0  0.76016  0.21915  0.48031  1.0000
  Fe  Fe75      1.0  0.70701  0.16629  0.48396  1.0000
  H   H458      1.0  0.93382  0.35806  0.39773  1.0000
  C   C465      1.0  0.95129  0.42472  0.35666  1.0000
  H   H459      1.0  0.96453  0.30051  0.46838  1.0000
  H   H460      1.0  0.77225  0.42610  0.17902  1.0000
  H   H461      1.0  0.82182  0.48290  0.18370  1.0000
  H   H462      1.0  0.74877  0.40457  0.14455  1.0000
  C   C466      1.0  0.95247  0.40154  0.37165  1.0000
  H   H463      1.0  0.77269  0.45371  0.21953  1.0000
  C   C467      1.0  0.70905  0.44703  0.17764  1.0000
  C   C468      1.0  0.79117  0.25644  0.47534  1.0000
  H   H464      1.0  0.93485  0.46394  0.35401  1.0000
  C   C469      1.0  0.73178  0.46516  0.21562  1.0000
  H   H465      1.0  0.69716  0.18135  0.37204  1.0000
  S   S153      1.0  0.84336  0.49171  0.23569  1.0000
  H   H466      1.0  0.75384  0.25253  0.45467  1.0000
  H   H467      1.0  0.96188  0.42622  0.33810  1.0000
  H   H468      1.0  0.93864  0.49578  0.23985  1.0000
  Fe  Fe76      1.0  0.85804  0.30067  0.49258  1.0000
  H   H469      1.0  0.71321  0.40514  0.14515  1.0000
  C   C470      1.0  0.77773  0.20778  0.49841  1.0000
  C   C471      1.0  0.80746  0.49462  0.19445  1.0000
  H   H470      1.0  0.77953  0.49583  0.16181  1.0000
  H   H471      1.0  0.69143  0.47451  0.20538  1.0000
  C   C472      1.0  0.68253  0.18851  0.38601  1.0000
  C   C473      1.0  0.67185  0.02247  0.42455  1.0000
  H   H472      1.0  0.97958  0.44930  0.21968  1.0000
  Fe  Fe77      1.0  0.91179  0.33054  0.49752  1.0000
  S   S154      1.0  0.66972  0.49944  0.15001  1.0000
  C   C474      1.0  0.78347  0.50195  0.18194  1.0000
  C   C475      1.0  0.81233  0.33035  0.55110  1.0000
  S   S155      1.0  0.69102  0.46817  0.85607  1.0000
  Fe  Fe78      1.0  0.87902  0.47141  0.65540  1.0000
  S   S156      1.0  0.88177  0.42814  0.64351  1.0000
  H   H473      1.0  0.91004  0.46156  0.58786  1.0000
  H   H474      1.0  0.92981  0.38386  0.53151  1.0000
  C   C476      1.0  0.77834  0.31751  0.52004  1.0000
  H   H475      1.0  0.89925  0.41888  0.51528  1.0000
  H   H476      1.0  0.81622  0.24953  0.55654  1.0000
  S   S157      1.0  0.84046  0.39341  0.52983  1.0000
  C   C477      1.0  0.75430  0.46259  0.90680  1.0000
  C   C478      1.0  0.79509  0.33687  0.53061  1.0000
  H   H477      1.0  0.74386  0.45046  0.92102  1.0000
  S   S158      1.0  0.87794  0.32375  0.52561  1.0000
  H   H478      1.0  0.82665  0.29933  0.57616  1.0000
  H   H479      1.0  0.93695  0.44536  0.62149  1.0000
  C   C479      1.0  0.92584  0.40126  0.54356  1.0000
  C   C480      1.0  0.78391  0.48060  0.76817  1.0000
  C   C481      1.0  0.86909  0.41821  0.61247  1.0000
  C   C482      1.0  0.85281  0.43494  0.59765  1.0000
  C   C483      1.0  0.84369  0.42682  0.57260  1.0000
  C   C484      1.0  0.85133  0.40226  0.56189  1.0000
  C   C485      1.0  0.86766  0.38554  0.57668  1.0000
  C   C486      1.0  0.87623  0.39337  0.60201  1.0000
  H   H480      1.0  0.84719  0.45411  0.60551  1.0000
  H   H481      1.0  0.83102  0.43983  0.56129  1.0000
  H   H482      1.0  0.87373  0.36661  0.56864  1.0000
  H   H483      1.0  0.88879  0.38033  0.61339  1.0000
  H   H484      1.0  0.68430  0.05293  0.51397  1.0000
  C   C487      1.0  0.80282  0.49020  0.75006  1.0000
  H   H485      1.0  0.98703  0.26374  0.52017  1.0000
  H   H486      1.0  0.98523  0.29853  0.55491  1.0000
  H   H487      1.0  0.88980  0.45809  0.54357  1.0000
  H   H488      1.0  0.77894  0.46018  0.84468  1.0000
  H   H489      1.0  0.75631  0.43184  0.87714  1.0000
  S   S159      1.0  0.95380  0.33528  0.51357  1.0000
  H   H490      1.0  0.81519  0.21150  0.51882  1.0000
  S   S160      1.0  0.74562  0.48452  0.80678  1.0000
  H   H491      1.0  0.81479  0.47647  0.73874  1.0000
  C   C488      1.0  0.80180  0.22063  0.50487  1.0000
  H   H492      1.0  0.93529  0.41011  0.62306  1.0000
  H   H493      1.0  0.79511  0.35680  0.52263  1.0000
  C   C489      1.0  0.77408  0.46832  0.86395  1.0000
  C   C490      1.0  0.94280  0.42683  0.61100  1.0000
  H   H494      1.0  0.76598  0.27688  0.52192  1.0000
  C   C491      1.0  0.98799  0.49153  0.68209  1.0000
  C   C492      1.0  0.76128  0.45215  0.88223  1.0000
  H   H495      1.0  0.78116  0.24582  0.55227  1.0000
  N   N41       1.0  0.79586  0.28568  0.55057  1.0000
  C   C493      1.0  0.81267  0.30444  0.56072  1.0000
  C   C494      1.0  0.77885  0.29190  0.53045  1.0000
  H   H496      1.0  0.75386  0.49741  0.93156  1.0000
  N   N42       1.0  0.93154  0.42530  0.58431  1.0000
  C   C495      1.0  0.69384  0.48000  0.98538  1.0000
  S   S161      1.0  0.71622  0.13292  0.51209  1.0000
  H   H497      1.0  0.78155  0.45944  0.77054  1.0000
  S   S162      1.0  0.89320  0.48734  0.69490  1.0000
  C   C496      1.0  0.79673  0.25872  0.56114  1.0000
  H   H498      1.0  0.94977  0.38803  0.57596  1.0000
  Fe  Fe79      1.0  0.85960  0.35956  0.50734  1.0000
  C   C497      1.0  0.93705  0.40373  0.56875  1.0000
  S   S163      1.0  0.69390  0.47800  0.93116  1.0000
  H   H499      1.0  0.77284  0.18899  0.50733  1.0000
  Fe  Fe80      1.0  0.67400  0.13774  0.52613  1.0000
  C   C498      1.0  0.90362  0.44306  0.55021  1.0000
  C   C499      1.0  0.75999  0.48900  0.91275  1.0000
  C   C500      1.0  0.91514  0.44488  0.57530  1.0000
  H   H500      1.0  0.96477  0.42612  0.61024  1.0000
  S   S164      1.0  0.90341  0.49951  0.63177  1.0000
  C   C501      1.0  0.76810  0.49803  0.78322  1.0000
  C   C502      1.0  0.90891  0.42101  0.53434  1.0000
  H   H501      1.0  0.79382  0.25906  0.58285  1.0000
  H   H502      1.0  0.82568  0.34522  0.55915  1.0000
  H   H503      1.0  0.68676  0.45980  0.98413  1.0000
  C   C503      1.0  0.68547  0.01016  0.51660  1.0000
  S   S165      1.0  0.84218  0.49641  0.65419  1.0000
  C   C504      1.0  0.69846  0.49425  0.96208  1.0000
  H   H504      1.0  0.96987  0.48074  0.68571  1.0000
  Fe  Fe81      1.0  0.69010  0.49674  0.89044  1.0000
  C   C505      1.0  0.69192  0.03479  0.50540  1.0000
  H   H505      1.0  0.76534  0.32218  0.50364  1.0000
  S   S166      1.0  0.83827  0.26142  0.50437  1.0000
  H   H506      1.0  0.67291  0.00952  0.53384  1.0000
  N   N43       1.0  0.77966  0.49422  0.86994  1.0000
  H   H507      1.0  0.80093  0.49983  0.83383  1.0000
  Fe  Fe82      1.0  0.71183  0.50026  0.83304  1.0000
  C   C506      1.0  0.82526  0.54276  0.43445  1.0000
  S   S167      1.0  0.69524  0.54737  0.11518  1.0000
  C   C507      1.0  0.82975  0.78766  0.42567  1.0000
  C   C508      1.0  0.98892  0.52024  0.30116  1.0000
  C   C509      1.0  0.77032  0.52491  0.22175  1.0000
  H   H508      1.0  0.82772  0.56620  0.34360  1.0000
  S   S168      1.0  0.73324  0.52575  0.18164  1.0000
  Fe  Fe83      1.0  0.87500  0.65320  0.46968  1.0000
  S   S169      1.0  0.87955  0.69305  0.45097  1.0000
  S   S170      1.0  0.87093  0.61240  0.45110  1.0000
  H   H509      1.0  0.75601  0.53668  0.23252  1.0000
  S   S171      1.0  0.81655  0.73411  0.46832  1.0000
  Fe  Fe84      1.0  0.70177  0.51689  0.08288  1.0000
  N   N44       1.0  0.85407  0.78203  0.44052  1.0000
  S   S172      1.0  0.71709  0.53178  0.04332  1.0000
  C   C510      1.0  0.82015  0.56980  0.43199  1.0000
  Fe  Fe85      1.0  0.67762  0.87922  0.45530  1.0000
  C   C511      1.0  0.89542  0.75867  0.44398  1.0000
  C   C512      1.0  0.85915  0.79480  0.46392  1.0000
  Fe  Fe86      1.0  0.85150  0.70841  0.48235  1.0000
  H   H510      1.0  0.83459  0.79750  0.40677  1.0000
  H   H511      1.0  0.94494  0.54426  0.23778  1.0000
  S   S173      1.0  0.71533  0.89834  0.47007  1.0000
  H   H512      1.0  0.86755  0.75359  0.41228  1.0000
  H   H513      1.0  0.91858  0.76665  0.47887  1.0000
  S   S174      1.0  0.95068  0.71876  0.46778  1.0000
  H   H514      1.0  0.84500  0.80885  0.47200  1.0000
  S   S175      1.0  0.84377  0.51829  0.31272  1.0000
  N   N45       1.0  0.81909  0.56505  0.38476  1.0000
  Fe  Fe87      1.0  0.88160  0.54141  0.31729  1.0000
  S   S176      1.0  0.88088  0.58476  0.32923  1.0000
  S   S177      1.0  0.89909  0.52643  0.27901  1.0000
  Fe  Fe88      1.0  0.91201  0.69981  0.48100  1.0000
  H   H515      1.0  0.81892  0.76888  0.42154  1.0000
  H   H516      1.0  0.71904  0.96929  0.47485  1.0000
  H   H517      1.0  0.82254  0.59770  0.35838  1.0000
  H   H518      1.0  0.99055  0.56288  0.23546  1.0000
  C   C513      1.0  0.79429  0.51759  0.23424  1.0000
  C   C514      1.0  0.87733  0.60597  0.41741  1.0000
  C   C515      1.0  0.88131  0.57964  0.40929  1.0000
  C   C516      1.0  0.88309  0.57307  0.38238  1.0000
  C   C517      1.0  0.88117  0.59282  0.36327  1.0000
  C   C518      1.0  0.87796  0.61931  0.37138  1.0000
  C   C519      1.0  0.87602  0.62590  0.39839  1.0000
  H   H519      1.0  0.88235  0.56413  0.42389  1.0000
  H   H520      1.0  0.88541  0.55264  0.37650  1.0000
  H   H521      1.0  0.87647  0.63472  0.35671  1.0000
  H   H522      1.0  0.87283  0.64624  0.40443  1.0000
  C   C520      1.0  0.79963  0.76255  0.48093  1.0000
  C   C521      1.0  0.77679  0.77155  0.46767  1.0000
  C   C522      1.0  0.76391  0.79523  0.47534  1.0000
  C   C523      1.0  0.70876  0.51724  0.01233  1.0000
  H   H523      1.0  0.76918  0.76028  0.45106  1.0000
  H   H524      1.0  0.74660  0.80197  0.46468  1.0000
  C   C524      1.0  0.82354  0.53839  0.38702  1.0000
  H   H525      1.0  0.81400  0.60188  0.40514  1.0000
  C   C525      1.0  0.90059  0.77129  0.46800  1.0000
  S   S178      1.0  0.68423  0.84107  0.47722  1.0000
  H   H526      1.0  0.90942  0.74431  0.43613  1.0000
  H   H527      1.0  0.79822  0.52373  0.25437  1.0000
  C   C526      1.0  0.88233  0.78942  0.47814  1.0000
  C   C527      1.0  0.82683  0.52689  0.41186  1.0000
  H   H528      1.0  0.97071  0.53155  0.30127  1.0000
  Fe  Fe89      1.0  0.71063  0.51609  0.14325  1.0000
  H   H529      1.0  0.81972  0.58252  0.44937  1.0000
  C   C528      1.0  0.71135  0.98742  0.48336  1.0000
  H   H530      1.0  0.79445  0.57595  0.35262  1.0000
  H   H531      1.0  0.68785  0.98730  0.40669  1.0000
  C   C529      1.0  0.87180  0.76409  0.43055  1.0000
  C   C530      1.0  0.98157  0.70743  0.48018  1.0000
  H   H532      1.0  0.82507  0.52588  0.36959  1.0000
  Fe  Fe90      1.0  0.71998  0.86130  0.49473  1.0000
  C   C531      1.0  0.98756  0.54159  0.23573  1.0000
  H   H533      1.0  0.82839  0.53425  0.45381  1.0000
  C   C532      1.0  0.81700  0.58067  0.40685  1.0000
  C   C533      1.0  0.81559  0.57678  0.35859  1.0000
  C   C534      1.0  0.76464  0.51710  0.19558  1.0000
  H   H534      1.0  0.81600  0.80066  0.43698  1.0000
  H   H535      1.0  0.67860  0.94274  0.45513  1.0000
  H   H536      1.0  0.88597  0.79903  0.49702  1.0000
  C   C535      1.0  0.96200  0.53117  0.23710  1.0000
  S   S179      1.0  0.90210  0.51115  0.34211  1.0000
  S   S180      1.0  0.90940  0.65883  0.49736  1.0000
  C   C536      1.0  0.77388  0.81045  0.49630  1.0000
  H   H537      1.0  0.67868  0.94372  0.41968  1.0000
  H   H538      1.0  0.69247  0.58351  0.05209  1.0000
  C   C537      1.0  0.67507  0.99501  0.42210  1.0000
  S   S181      1.0  0.84452  0.66753  0.49880  1.0000
  H   H539      1.0  0.83093  0.50583  0.41345  1.0000
  C   C538      1.0  0.67109  0.58586  0.05285  1.0000
  C   C539      1.0  0.81307  0.50233  0.22069  1.0000
  H   H540      1.0  0.67242  0.62785  0.06067  1.0000
  C   C540      1.0  0.95856  0.50369  0.23827  1.0000
  H   H541      1.0  0.81958  0.59891  0.62399  1.0000
  S   S182      1.0  0.71407  0.52736  0.86878  1.0000
  H   H542      1.0  0.74947  0.83679  0.56472  1.0000
  H   H543      1.0  0.93926  0.65169  0.57722  1.0000
  C   C541      1.0  0.77629  0.52434  0.68418  1.0000
  C   C542      1.0  0.69489  0.98636  0.50549  1.0000
  C   C543      1.0  0.79163  0.51147  0.85008  1.0000
  C   C544      1.0  0.98683  0.51834  0.67530  1.0000
  C   C545      1.0  0.93950  0.56321  0.60878  1.0000
  H   H544      1.0  0.79339  0.55608  0.76005  1.0000
  H   H545      1.0  0.96217  0.58414  0.63827  1.0000
  H   H546      1.0  0.72977  0.80337  0.53480  1.0000
  C   C546      1.0  0.68690  0.83513  0.58940  1.0000
  Fe  Fe91      1.0  0.86799  0.52602  0.63346  1.0000
  S   S183      1.0  0.85567  0.54475  0.59492  1.0000
  S   S184      1.0  0.88075  0.54614  0.67076  1.0000
  Fe  Fe92      1.0  0.87937  0.67598  0.52511  1.0000
  C   C547      1.0  0.72894  0.83091  0.56725  1.0000
  S   S185      1.0  0.88182  0.66462  0.56823  1.0000
  C   C548      1.0  0.92751  0.56458  0.58400  1.0000
  S   S186      1.0  0.69710  0.87914  0.52884  1.0000
  H   H547      1.0  0.75964  0.53906  0.79132  1.0000
  C   C549      1.0  0.80655  0.51748  0.74708  1.0000
  H   H548      1.0  0.71144  0.53153  0.94629  1.0000
  H   H549      1.0  0.91642  0.54779  0.57631  1.0000
  H   H550      1.0  0.79877  0.56965  0.70049  1.0000
  H   H551      1.0  0.81940  0.60411  0.67290  1.0000
  C   C550      1.0  0.86301  0.57817  0.58814  1.0000
  C   C551      1.0  0.87325  0.59526  0.60750  1.0000
  C   C552      1.0  0.87861  0.62187  0.60133  1.0000
  C   C553      1.0  0.87415  0.63142  0.57572  1.0000
  C   C554      1.0  0.86423  0.61423  0.55634  1.0000
  C   C555      1.0  0.85846  0.58778  0.56261  1.0000
  H   H552      1.0  0.87698  0.58803  0.62720  1.0000
  H   H553      1.0  0.88643  0.63506  0.61637  1.0000
  H   H554      1.0  0.86084  0.62134  0.53651  1.0000
  H   H555      1.0  0.85059  0.57467  0.54751  1.0000
  C   C556      1.0  0.80915  0.77737  0.50239  1.0000
  N   N46       1.0  0.94201  0.60972  0.57982  1.0000
  C   C557      1.0  0.95287  0.58520  0.61892  1.0000
  H   H556      1.0  0.80022  0.55854  0.60355  1.0000
  S   S187      1.0  0.95632  0.53578  0.67304  1.0000
  C   C558      1.0  0.71337  0.84261  0.58684  1.0000
  H   H557      1.0  0.77635  0.52539  0.89842  1.0000
  H   H558      1.0  0.96435  0.62553  0.61208  1.0000
  C   C559      1.0  0.71318  0.53160  0.98903  1.0000
  C   C560      1.0  0.77153  0.52533  0.77993  1.0000
  S   S188      1.0  0.83039  0.53100  0.72490  1.0000
  H   H559      1.0  0.93836  0.54521  0.62026  1.0000
  S   S189      1.0  0.88443  0.71806  0.51100  1.0000
  C   C561      1.0  0.71761  0.81218  0.55015  1.0000
  C   C562      1.0  0.79648  0.80125  0.50984  1.0000
  C   C563      1.0  0.79858  0.56731  0.67918  1.0000
  C   C564      1.0  0.79072  0.53493  0.76211  1.0000
  H   H560      1.0  0.72173  0.85767  0.59978  1.0000
  N   N47       1.0  0.78760  0.54525  0.66771  1.0000
  Fe  Fe93      1.0  0.91507  0.51753  0.67058  1.0000
  H   H561      1.0  0.79132  0.50859  0.68749  1.0000
  Fe  Fe94      1.0  0.85756  0.51449  0.69216  1.0000
  N   N48       1.0  0.69145  0.80558  0.55227  1.0000
  C   C565      1.0  0.98314  0.69258  0.50333  1.0000
  C   C566      1.0  0.92909  0.58810  0.56961  1.0000
  C   C567      1.0  0.95398  0.60845  0.60406  1.0000
  C   C568      1.0  0.81042  0.58398  0.63630  1.0000
  S   S190      1.0  0.75942  0.84130  0.50598  1.0000
  H   H562      1.0  0.96520  0.68728  0.51365  1.0000
  H   H563      1.0  0.96394  0.63634  0.55603  1.0000
  C   C569      1.0  0.94381  0.63421  0.56453  1.0000
  S   S191      1.0  0.68469  0.95594  0.51951  1.0000
  Fe  Fe95      1.0  0.68959  0.91431  0.50265  1.0000
  C   C570      1.0  0.81023  0.58694  0.66369  1.0000
  H   H564      1.0  0.80720  0.52423  0.85903  1.0000
  H   H565      1.0  0.77604  0.52414  0.84110  1.0000
  H   H566      1.0  0.78064  0.52394  0.63183  1.0000
  H   H567      1.0  0.92909  0.63455  0.54817  1.0000
  C   C571      1.0  0.78831  0.54190  0.64090  1.0000
  C   C572      1.0  0.67629  0.81623  0.57202  1.0000
  H   H568      1.0  0.91931  0.58915  0.55054  1.0000
  H   H569      1.0  0.80435  0.81278  0.52616  1.0000
  C   C573      1.0  0.79936  0.56136  0.62480  1.0000
  C   C574      1.0  0.70779  0.52030  0.96402  1.0000
  H   H570      1.0  0.75850  0.51542  0.67475  1.0000
  H   H571      1.0  0.77022  0.53215  0.70384  1.0000
  H   H572      1.0  0.72102  0.55152  0.99033  1.0000
  Fe  Fe96      1.0  0.67414  0.54231  0.85484  1.0000
  H   H573      1.0  0.82661  0.77074  0.51288  1.0000
  S   S192      1.0  0.67353  0.51745  0.81785  1.0000
  H   H574      1.0  0.67446  0.84425  0.60438  1.0000
  C   C575      1.0  0.77269  0.50466  0.89394  1.0000
  H   H575      1.0  0.68795  0.78927  0.51356  1.0000
  H   H576      1.0  0.68471  0.76583  0.54029  1.0000
  C   C576      1.0  0.68000  0.78624  0.53378  1.0000
