data_image0
_chemical_formula_structural       CH2CHNSHFeC5HSHCH3CH2SC2SC2HCSC2H3CHCHCHCH2CFeHNHCHCHC3HC2NFeS2HSFeCHSHFeH3CHC6SH3CSCNH2SCH3NC2HSH2FeC3SC3HSH3FeNSFeSCFeSFeSHNFeS2HSFeSFeS2HCHCSFe2CSCHSCH2C6H4NHC3HSHSHC6H4C3FeHC6H4C4H6C3H5CHCHCH2CH2FeHCSH2CHC2H2CH3C2HCHCHS2H3FeHC3HC2HC3HNCS2CHSHC2HCH2CNCHS3FeS2FeSFeSCSCSH2SFeSFeSCSC2H3CHFeS2FeS3CHSH2FeS2HC2HCH2N2HCNHFeHCHCHCH3CH2CSC2SHNH2C6H4C2H2C7H4CNHCHCHC2H2FeCSCFeSFeHCHC2HSC2H6CHCH2CHC2HFeCHC7HSC2S2FeCHNHC2HC2HC2HFeSH2C5FeC3SCHCH2FeS2FeS2FeSFeS3CHS3HCHCHC6H4C6H4C3H2C6H4C2H5CHCN2C3SH6NC3H3NHNSCHC4H5CHCH2C4H6CH2CHCFeC2H2C7H4S2HCHCH2C2H2CSFeS2FeS2FeSFeS5CH5FeS2C9H4C6H4C6H4C2HCSH5CNCHCHCFeCH2CSHCHCH3C3HCH3CNH2CNCHCHCH2C2H2CHCH3CH3SHC3HC3SCSCHC4H2FeH3NC3HNHSH2CH3CNHCFeCH4FeSHFeS2FeSFeS4FeS2C3NCHC6H4C6H4C3H2C2H4C2NCH3C3HCH4CH3CH4C2H6CH2FeS2FeS2FeSFeNS3FeS2HFeCSH4CH2CHCHC9H4C2S2HC6H4CFeC2H2N2C6H2CH5C7H2CH5CSNC2HCSCH2CHCHCH5CFeS2FeS2FeSFeS3FeSFeCSCH2S2H2CFeS2HCHCH3C6H4C6H4NC3H2C5H2CHC7HNH3CNC2FeHSH3CH3CH2C2NCHNCHCH4CH4C2HCHC2H3C2HCH2CHCHCHC2SH2NCHCHC2HC3H2CSHCHCSH4NH2SFeS2FeS2FeSFeS3HSH2SH2FeS2H4CH2FeS2C3HCFeH2C2H4C7H4CH3C7H4C3H2CHC3H2C7H2CSFeSC3H3SC5NC5H4NC2HCNCHCFeH2CHNCH3NHCSFeCH2CNCH2CHC4H2CHC2HSCSHCH2CHFeHSHCHSH4FeSH2SFeSFeSHFeS2FeS2Fe2SCSFeHFeS2HFeHS2FeS2FeS2FeHS2C2FeHC2H2C6H4C6H3C6H2CHC6H4C4H2CH2CH4SCHCNC6H6CHFeHC3HCSH2CH3FeHC5HCSCHCHC2HN2C7HCHNC2SCH2CFeHNCH2SNHCHS2HCSH7CHC2HSHCHC2H4CSCH4C2HCHFeS2FeSFeHCS2FeS2Fe2SFeS5FeSCFeSFeSCFeSHCSFeSFeCS2H2C6H5C2HCH2CHSCHC3HSHC6H3S2CHC6H4SC2H4CFeH2CHC3HCNC3HCNCH4CHCH4FeHNC5S2H5SHSFeCHFeHSH3CHCH2CHC3HFeHCHNC3H4NH3NHCH4CHCFeCSFeHSHNCS2HSHFeHS2CNCNSHC2HCFeSHCHC3H2C3FeH2CHC4HC6H6C6H4SC2SHCH2C3HCH2CH2CH2FeHCSNCH3C3H2NSHC3H2C2HC2H2FeHCSH2CH2CHFeHSNHC2SHFeH2C2HCFeS2FeS2FeS4CH3FeS2H2CH2FeS2FeSHCSHC4SNFeH2CH4SH3C2HC2H2SC7H2C2FeC7H4CSC2HSHC2NC3SHCHCHC2H4C2H3CNHC2HC2HFeC5FeCHCSHCSNCH2C3H3SCH2CFeSC2SFeSFeS2FeHS2NCHC2H5SFeSCHC6H5C2H2CH3C2H3C3HCH2CH2NCH2CHSC2SFeSFeSC2FeS2HCH3FeCSCHSC7H5C2SH2CNC6H8FeSCFeCHC2FeCSHSNH3CH2
_chemical_formula_sum              "C864 H864 N72 S288 Fe144"
_cell_length_a       71.2272
_cell_length_b       71.2839
_cell_length_c       37.4624
_cell_angle_alpha    90.7744
_cell_angle_beta     90.7977
_cell_angle_gamma    111.73

_space_group_name_H-M_alt    "P 1"
_space_group_IT_number       1

loop_
  _space_group_symop_operation_xyz
  'x, y, z'

loop_
  _atom_site_type_symbol
  _atom_site_label
  _atom_site_symmetry_multiplicity
  _atom_site_fract_x
  _atom_site_fract_y
  _atom_site_fract_z
  _atom_site_occupancy
  C   C1        1.0  0.45986  0.12403  0.18829  1.0000
  H   H1        1.0  0.44990  0.21810  0.05590  1.0000
  H   H2        1.0  0.43933  0.19720  0.10974  1.0000
  C   C2        1.0  0.42366  0.01582  0.14122  1.0000
  H   H3        1.0  0.46756  0.02707  0.09659  1.0000
  N   N1        1.0  0.41728  0.00890  0.07828  1.0000
  S   S1        1.0  0.42094  0.18858  0.00198  1.0000
  H   H4        1.0  0.43861  0.07109  0.43238  1.0000
  Fe  Fe1       1.0  0.42749  0.05732  0.00809  1.0000
  C   C3        1.0  0.44440  0.02209  0.13576  1.0000
  C   C4        1.0  0.45003  0.06729  0.09910  1.0000
  C   C5        1.0  0.43121  0.06586  0.15348  1.0000
  C   C6        1.0  0.44237  0.10100  0.45108  1.0000
  C   C7        1.0  0.46785  0.07291  0.12009  1.0000
  H   H5        1.0  0.46065  0.20668  0.16506  1.0000
  S   S2        1.0  0.47488  0.11895  0.28534  1.0000
  H   H6        1.0  0.43504  0.15614  0.01188  1.0000
  C   C8        1.0  0.40879  0.16192  0.99414  1.0000
  H   H7        1.0  0.41694  0.06299  0.16636  1.0000
  H   H8        1.0  0.41783  0.05954  0.10014  1.0000
  H   H9        1.0  0.39412  0.00440  0.11638  1.0000
  C   C9        1.0  0.43167  0.06388  0.11594  1.0000
  H   H10       1.0  0.41994  0.11907  0.00009  1.0000
  H   H11       1.0  0.46908  0.11912  0.20743  1.0000
  S   S3        1.0  0.44790  0.07341  0.22164  1.0000
  C   C10       1.0  0.46741  0.07512  0.15744  1.0000
  C   C11       1.0  0.43984  0.08081  0.45554  1.0000
  S   S4        1.0  0.45177  0.06455  0.05222  1.0000
  C   C12       1.0  0.41022  0.00913  0.11201  1.0000
  C   C13       1.0  0.45145  0.02157  0.10133  1.0000
  H   H12       1.0  0.44324  0.01509  0.04591  1.0000
  C   C14       1.0  0.44510  0.11366  0.48117  1.0000
  S   S5        1.0  0.39373  0.04574  0.01350  1.0000
  C   C15       1.0  0.43759  0.01488  0.07272  1.0000
  C   C16       1.0  0.44909  0.07152  0.17443  1.0000
  H   H13       1.0  0.44785  0.12950  0.47738  1.0000
  H   H14       1.0  0.44324  0.10702  0.42441  1.0000
  H   H15       1.0  0.38963  0.00579  0.05111  1.0000
  C   C17       1.0  0.40291  0.00129  0.04823  1.0000
  H   H16       1.0  0.44389  0.11393  0.19233  1.0000
  C   C18       1.0  0.41119  0.12833  0.99471  1.0000
  H   H17       1.0  0.46191  0.13990  0.19500  1.0000
  C   C19       1.0  0.45212  0.11607  0.12450  1.0000
  H   H18       1.0  0.46625  0.19028  0.34826  1.0000
  C   C20       1.0  0.41973  0.14942  0.00141  1.0000
  H   H19       1.0  0.44677  0.10844  0.06822  1.0000
  H   H20       1.0  0.43615  0.11160  0.12990  1.0000
  C   C21       1.0  0.45929  0.22204  0.08005  1.0000
  Fe  Fe2       1.0  0.47561  0.09142  0.25635  1.0000
  H   H21       1.0  0.47861  0.16315  0.32971  1.0000
  N   N2        1.0  0.46621  0.12251  0.15169  1.0000
  H   H22       1.0  0.45502  0.02793  0.15802  1.0000
  C   C22       1.0  0.45334  0.21030  0.11036  1.0000
  H   H23       1.0  0.41813  0.01665  0.16782  1.0000
  C   C23       1.0  0.46545  0.21575  0.14147  1.0000
  H   H24       1.0  0.40990  0.00744  0.02248  1.0000
  C   C24       1.0  0.45803  0.11438  0.08951  1.0000
  C   C25       1.0  0.43997  0.07351  0.48986  1.0000
  C   C26       1.0  0.47846  0.11931  0.08250  1.0000
  H   H25       1.0  0.38020  0.16215  0.97536  1.0000
  C   C27       1.0  0.39880  0.09277  0.87817  1.0000
  C   C28       1.0  0.42932  0.11990  0.90217  1.0000
  N   N3        1.0  0.40955  0.11360  0.89090  1.0000
  Fe  Fe3       1.0  0.42493  0.05902  0.92487  1.0000
  S   S6        1.0  0.39085  0.04704  0.92576  1.0000
  S   S7        1.0  0.44544  0.07587  0.87926  1.0000
  H   H26       1.0  0.46936  0.10356  0.82779  1.0000
  S   S8        1.0  0.46008  0.06611  0.71231  1.0000
  Fe  Fe4       1.0  0.39263  0.02442  0.96697  1.0000
  C   C29       1.0  0.47432  0.22212  0.78805  1.0000
  H   H27       1.0  0.44384  0.08101  0.54580  1.0000
  S   S9        1.0  0.42688  0.03564  0.96335  1.0000
  H   H28       1.0  0.39266  0.09258  0.85071  1.0000
  Fe  Fe5       1.0  0.39504  0.06920  0.97206  1.0000
  H   H29       1.0  0.45505  0.14452  0.92426  1.0000
  H   H30       1.0  0.43727  0.10955  0.90201  1.0000
  H   H31       1.0  0.45701  0.22520  0.84884  1.0000
  C   C30       1.0  0.43953  0.13975  0.91462  1.0000
  H   H32       1.0  0.38615  0.08496  0.89627  1.0000
  C   C31       1.0  0.45546  0.06941  0.75834  1.0000
  C   C32       1.0  0.39137  0.11928  0.98125  1.0000
  C   C33       1.0  0.44618  0.22132  0.82570  1.0000
  C   C34       1.0  0.44851  0.07281  0.83251  1.0000
  C   C35       1.0  0.43871  0.05455  0.81383  1.0000
  C   C36       1.0  0.44229  0.05286  0.77709  1.0000
  S   S10       1.0  0.37997  0.09273  0.97153  1.0000
  H   H33       1.0  0.42860  0.04165  0.82777  1.0000
  H   H34       1.0  0.43479  0.03858  0.76312  1.0000
  H   H35       1.0  0.40109  0.15676  0.90533  1.0000
  C   C37       1.0  0.39947  0.12661  0.89181  1.0000
  S   S11       1.0  0.46324  0.09486  0.62133  1.0000
  C   C38       1.0  0.40929  0.14663  0.90367  1.0000
  N   N4        1.0  0.45698  0.22596  0.79193  1.0000
  H   H36       1.0  0.43688  0.16843  0.92605  1.0000
  H   H37       1.0  0.46555  0.12462  0.55427  1.0000
  S   S12       1.0  0.42863  0.08155  0.96977  1.0000
  C   C39       1.0  0.42941  0.15318  0.91533  1.0000
  H   H38       1.0  0.38358  0.12136  0.88420  1.0000
  H   H39       1.0  0.40884  0.08399  0.87735  1.0000
  H   H40       1.0  0.36488  0.12494  0.96456  1.0000
  N   N5        1.0  0.44515  0.10634  0.51476  1.0000
  C   C40       1.0  0.46502  0.08775  0.77690  1.0000
  C   C41       1.0  0.46167  0.08936  0.81372  1.0000
  H   H41       1.0  0.43649  0.20505  0.82629  1.0000
  S   S13       1.0  0.37734  0.98898  0.96806  1.0000
  H   H42       1.0  0.44633  0.13391  0.54041  1.0000
  H   H43       1.0  0.43990  0.11259  0.56881  1.0000
  Fe  Fe6       1.0  0.47819  0.08927  0.67150  1.0000
  C   C42       1.0  0.44275  0.08658  0.51934  1.0000
  C   C43       1.0  0.44941  0.12003  0.54594  1.0000
  C   C44       1.0  0.38028  0.13171  0.97468  1.0000
  S   S14       1.0  0.46994  0.15144  0.61882  1.0000
  C   C45       1.0  0.38894  0.15288  0.98077  1.0000
  C   C46       1.0  0.47678  0.23327  0.72722  1.0000
  C   C47       1.0  0.44926  0.23323  0.76403  1.0000
  H   H44       1.0  0.47510  0.10068  0.76301  1.0000
  S   S15       1.0  0.40749  0.23154  0.94151  1.0000
  H   H45       1.0  0.43657  0.23041  0.82953  1.0000
  H   H46       1.0  0.46922  0.19116  0.60893  1.0000
  H   H47       1.0  0.43900  0.05811  0.49366  1.0000
  Fe  Fe7       1.0  0.41774  0.21907  0.99015  1.0000
  N   N6        1.0  0.07959  0.38517  0.10841  1.0000
  S   S16       1.0  0.13684  0.43834  0.30297  1.0000
  Fe  Fe8       1.0  0.19198  0.46207  0.27178  1.0000
  S   S17       1.0  0.17848  0.43026  0.29054  1.0000
  C   C48       1.0  0.46779  0.26725  0.18659  1.0000
  Fe  Fe9       1.0  0.15133  0.42829  0.25675  1.0000
  S   S18       1.0  0.13558  0.40077  0.21996  1.0000
  Fe  Fe10      1.0  0.16544  0.44321  0.33506  1.0000
  S   S19       1.0  0.17063  0.43522  0.39264  1.0000
  H   H48       1.0  0.18508  0.35828  0.99251  1.0000
  N   N7        1.0  0.24579  0.41848  0.23708  1.0000
  Fe  Fe11      1.0  0.31330  0.45383  0.32243  1.0000
  S   S20       1.0  0.32482  0.42917  0.33391  1.0000
  S   S21       1.0  0.28263  0.44869  0.34440  1.0000
  H   H49       1.0  0.07442  0.35964  0.14133  1.0000
  S   S22       1.0  0.36780  0.45844  0.30200  1.0000
  Fe  Fe12      1.0  0.33842  0.43604  0.27916  1.0000
  S   S23       1.0  0.33711  0.41132  0.23867  1.0000
  Fe  Fe13      1.0  0.35262  0.45422  0.35537  1.0000
  S   S24       1.0  0.37018  0.45952  0.40819  1.0000
  S   S25       1.0  0.32503  0.45917  0.26654  1.0000
  H   H50       1.0  0.34281  0.29295  0.06428  1.0000
  C   C49       1.0  0.27178  0.41071  0.20724  1.0000
  H   H51       1.0  0.37703  0.44730  0.08827  1.0000
  C   C50       1.0  0.08465  0.38730  0.17217  1.0000
  S   S26       1.0  0.46096  0.28068  0.06781  1.0000
  Fe  Fe14      1.0  0.11582  0.37472  0.00736  1.0000
  Fe  Fe15      1.0  0.30661  0.38237  0.02816  1.0000
  C   C51       1.0  0.26031  0.47399  0.26661  1.0000
  S   S27       1.0  0.31124  0.40580  0.07364  1.0000
  C   C52       1.0  0.08026  0.28528  0.01612  1.0000
  H   H52       1.0  0.04254  0.26789  0.04079  1.0000
  S   S28       1.0  0.12281  0.39943  0.05090  1.0000
  C   C53       1.0  0.36324  0.44084  0.10442  1.0000
  H   H53       1.0  0.19334  0.40064  0.45868  1.0000
  H   H54       1.0  0.34690  0.25990  0.05781  1.0000
  C   C54       1.0  0.09112  0.40829  0.17109  1.0000
  C   C55       1.0  0.25448  0.41562  0.20617  1.0000
  C   C56       1.0  0.25393  0.41657  0.26950  1.0000
  C   C57       1.0  0.27140  0.41201  0.27156  1.0000
  C   C58       1.0  0.28033  0.40900  0.24021  1.0000
  C   C59       1.0  0.35986  0.27348  0.06451  1.0000
  H   H55       1.0  0.24802  0.41710  0.18045  1.0000
  H   H56       1.0  0.23119  0.43829  0.22128  1.0000
  H   H57       1.0  0.27868  0.43813  0.42625  1.0000
  H   H58       1.0  0.04487  0.29345  0.03043  1.0000
  N   N8        1.0  0.39574  0.28993  0.07413  1.0000
  H   H59       1.0  0.41543  0.27408  0.08523  1.0000
  C   C60       1.0  0.46293  0.27518  0.11359  1.0000
  C   C61       1.0  0.44826  0.25893  0.13012  1.0000
  C   C62       1.0  0.45065  0.25508  0.16644  1.0000
  H   H60       1.0  0.29384  0.40535  0.24148  1.0000
  S   S29       1.0  0.22341  0.47586  0.25065  1.0000
  H   H61       1.0  0.33775  0.48241  0.44938  1.0000
  S   S30       1.0  0.18120  0.47530  0.31808  1.0000
  H   H62       1.0  0.08507  0.38003  0.19730  1.0000
  C   C63       1.0  0.32851  0.40926  0.19344  1.0000
  C   C64       1.0  0.32849  0.39284  0.17212  1.0000
  C   C65       1.0  0.32264  0.39112  0.13567  1.0000
  C   C66       1.0  0.31677  0.40588  0.12011  1.0000
  C   C67       1.0  0.31658  0.42218  0.14157  1.0000
  C   C68       1.0  0.32239  0.42388  0.17798  1.0000
  H   H63       1.0  0.33319  0.38143  0.18378  1.0000
  H   H64       1.0  0.32296  0.37854  0.11952  1.0000
  H   H65       1.0  0.31219  0.43375  0.12975  1.0000
  H   H66       1.0  0.32246  0.43668  0.19387  1.0000
  C   C69       1.0  0.13741  0.44731  0.47130  1.0000
  C   C70       1.0  0.35810  0.45001  0.44884  1.0000
  C   C71       1.0  0.33942  0.43393  0.44928  1.0000
  Fe  Fe16      1.0  0.35360  0.48121  0.29249  1.0000
  H   H67       1.0  0.33206  0.42698  0.42440  1.0000
  C   C72       1.0  0.13531  0.40085  0.17236  1.0000
  C   C73       1.0  0.12852  0.38233  0.15317  1.0000
  C   C74       1.0  0.12577  0.38162  0.11566  1.0000
  C   C75       1.0  0.12951  0.39947  0.09694  1.0000
  C   C76       1.0  0.13692  0.41801  0.11600  1.0000
  C   C77       1.0  0.13994  0.41873  0.15339  1.0000
  H   H68       1.0  0.12496  0.36840  0.16752  1.0000
  H   H69       1.0  0.12016  0.36725  0.10145  1.0000
  H   H70       1.0  0.13987  0.43191  0.10184  1.0000
  H   H71       1.0  0.14512  0.43308  0.16765  1.0000
  C   C78       1.0  0.26729  0.45837  0.31973  1.0000
  C   C79       1.0  0.24777  0.45500  0.33159  1.0000
  C   C80       1.0  0.23446  0.46090  0.31086  1.0000
  C   C81       1.0  0.22770  0.42367  0.23500  1.0000
  H   H72       1.0  0.21529  0.41170  0.22013  1.0000
  H   H73       1.0  0.35017  0.44227  0.08968  1.0000
  H   H74       1.0  0.24279  0.44751  0.35659  1.0000
  H   H75       1.0  0.21936  0.45809  0.32011  1.0000
  H   H76       1.0  0.37320  0.42827  0.16642  1.0000
  H   H77       1.0  0.37923  0.44605  0.22492  1.0000
  C   C82       1.0  0.14440  0.44495  0.43706  1.0000
  C   C83       1.0  0.16333  0.44346  0.43336  1.0000
  C   C84       1.0  0.17561  0.44560  0.46409  1.0000
  H   H78       1.0  0.13469  0.44315  0.41376  1.0000
  H   H79       1.0  0.19032  0.44460  0.46154  1.0000
  H   H80       1.0  0.27855  0.40827  0.18268  1.0000
  H   H81       1.0  0.07628  0.38222  0.05129  1.0000
  H   H82       1.0  0.37604  0.47963  0.23047  1.0000
  C   C85       1.0  0.28702  0.44446  0.48230  1.0000
  H   H83       1.0  0.22204  0.42545  0.26187  1.0000
  C   C86       1.0  0.09161  0.41762  0.13842  1.0000
  H   H84       1.0  0.09725  0.43396  0.13717  1.0000
  C   C87       1.0  0.04406  0.27870  0.01894  1.0000
  H   H85       1.0  0.12239  0.44754  0.47394  1.0000
  H   H86       1.0  0.42619  0.30055  0.09461  1.0000
  C   C88       1.0  0.07883  0.37590  0.14040  1.0000
  H   H87       1.0  0.43508  0.24933  0.11498  1.0000
  H   H88       1.0  0.12816  0.40178  0.45315  1.0000
  Fe  Fe17      1.0  0.43980  0.26199  0.02308  1.0000
  H   H89       1.0  0.40689  0.32196  0.08119  1.0000
  C   C89       1.0  0.47720  0.23900  0.08111  1.0000
  S   S31       1.0  0.16593  0.45935  0.23521  1.0000
  H   H90       1.0  0.28867  0.47065  0.27805  1.0000
  H   H91       1.0  0.05811  0.36230  0.07591  1.0000
  C   C90       1.0  0.16263  0.39802  0.46775  1.0000
  H   H92       1.0  0.09651  0.41730  0.19537  1.0000
  C   C91       1.0  0.24065  0.47023  0.27820  1.0000
  C   C92       1.0  0.36434  0.46955  0.14228  1.0000
  H   H93       1.0  0.38202  0.47111  0.48142  1.0000
  H   H94       1.0  0.35962  0.42435  0.10716  1.0000
  C   C93       1.0  0.37459  0.30956  0.07425  1.0000
  H   H95       1.0  0.37300  0.32412  0.07568  1.0000
  H   H96       1.0  0.08722  0.41320  0.08166  1.0000
  H   H97       1.0  0.43920  0.24251  0.17900  1.0000
  C   C94       1.0  0.30846  0.46077  0.43371  1.0000
  C   C95       1.0  0.41594  0.28898  0.07575  1.0000
  H   H98       1.0  0.24711  0.41881  0.29410  1.0000
  C   C96       1.0  0.32328  0.47203  0.45848  1.0000
  H   H99       1.0  0.27804  0.41098  0.29739  1.0000
  C   C97       1.0  0.08584  0.40577  0.10712  1.0000
  H   H100      1.0  0.31116  0.46257  0.40532  1.0000
  S   S32       1.0  0.34015  0.47838  0.34671  1.0000
  S   S33       1.0  0.29374  0.34828  0.02851  1.0000
  H   H101      1.0  0.42272  0.29148  0.04887  1.0000
  H   H102      1.0  0.11229  0.29163  0.01121  1.0000
  H   H103      1.0  0.08411  0.36405  0.07253  1.0000
  Fe  Fe18      1.0  0.15377  0.46976  0.28322  1.0000
  H   H104      1.0  0.15861  0.39611  0.43948  1.0000
  C   C98       1.0  0.37917  0.27272  0.06737  1.0000
  C   C99       1.0  0.27363  0.46802  0.28735  1.0000
  C   C100      1.0  0.07414  0.37281  0.07548  1.0000
  H   H105      1.0  0.38084  0.25835  0.06300  1.0000
  C   C101      1.0  0.37336  0.47164  0.20493  1.0000
  C   C102      1.0  0.18237  0.40067  0.47845  1.0000
  H   H106      1.0  0.26512  0.48120  0.24133  1.0000
  C   C103      1.0  0.37538  0.45296  0.20170  1.0000
  C   C104      1.0  0.33043  0.42647  0.48205  1.0000
  C   C105      1.0  0.39369  0.30823  0.07712  1.0000
  H   H107      1.0  0.31614  0.41381  0.48209  1.0000
  N   N9        1.0  0.36631  0.45120  0.13935  1.0000
  C   C106      1.0  0.35760  0.29204  0.06795  1.0000
  S   S34       1.0  0.10327  0.34101  0.01387  1.0000
  S   S35       1.0  0.40857  0.23878  0.02883  1.0000
  C   C107      1.0  0.37192  0.44295  0.16846  1.0000
  H   H108      1.0  0.03010  0.27265  0.00192  1.0000
  S   S36       1.0  0.47041  0.26106  0.23179  1.0000
  H   H109      1.0  0.01091  0.31193  0.01481  1.0000
  C   C108      1.0  0.09794  0.28842  0.99720  1.0000
  C   C109      1.0  0.29020  0.44693  0.44557  1.0000
  H   H110      1.0  0.08106  0.28603  0.04506  1.0000
  C   C110      1.0  0.36751  0.45875  0.48148  1.0000
  H   H111      1.0  0.35999  0.47613  0.11918  1.0000
  H   H112      1.0  0.11847  0.37985  0.48111  1.0000
  C   C111      1.0  0.12829  0.39610  0.48064  1.0000
  N   N10       1.0  0.06227  0.28158  0.99840  1.0000
  C   C112      1.0  0.36778  0.48001  0.17512  1.0000
  H   H113      1.0  0.22153  0.36185  0.99255  1.0000
  S   S37       1.0  0.33136  0.38345  0.99077  1.0000
  S   S38       1.0  0.18661  0.46518  0.60745  1.0000
  S   S39       1.0  0.14404  0.45738  0.64906  1.0000
  Fe  Fe19      1.0  0.18740  0.43839  0.63698  1.0000
  S   S40       1.0  0.15492  0.41891  0.62491  1.0000
  S   S41       1.0  0.21111  0.42574  0.62346  1.0000
  Fe  Fe20      1.0  0.15383  0.44663  0.59828  1.0000
  S   S42       1.0  0.13860  0.44812  0.54488  1.0000
  Fe  Fe21      1.0  0.14869  0.43156  0.67712  1.0000
  S   S43       1.0  0.12499  0.41385  0.71735  1.0000
  C   C113      1.0  0.26037  0.47330  0.65824  1.0000
  S   S44       1.0  0.18139  0.44918  0.69076  1.0000
  C   C114      1.0  0.45912  0.23713  0.73135  1.0000
  S   S45       1.0  0.31235  0.43221  0.65041  1.0000
  H   H114      1.0  0.32857  0.32967  0.84809  1.0000
  H   H115      1.0  0.36295  0.40430  0.93167  1.0000
  S   S46       1.0  0.35879  0.43598  0.65142  1.0000
  Fe  Fe22      1.0  0.33716  0.43983  0.61039  1.0000
  S   S47       1.0  0.32763  0.42541  0.55508  1.0000
  Fe  Fe23      1.0  0.33482  0.43177  0.69273  1.0000
  S   S48       1.0  0.32308  0.40559  0.73180  1.0000
  C   C115      1.0  0.16595  0.46929  0.79098  1.0000
  S   S49       1.0  0.34445  0.46491  0.70614  1.0000
  C   C116      1.0  0.24027  0.46109  0.64914  1.0000
  C   C117      1.0  0.19956  0.31244  0.96774  1.0000
  H   H116      1.0  0.17808  0.44899  0.52167  1.0000
  H   H117      1.0  0.43994  0.28542  0.78455  1.0000
  H   H118      1.0  0.30789  0.43745  0.74958  1.0000
  C   C118      1.0  0.19323  0.34523  0.89362  1.0000
  H   H119      1.0  0.35661  0.39386  0.83679  1.0000
  Fe  Fe24      1.0  0.43898  0.25531  0.94051  1.0000
  S   S50       1.0  0.46167  0.26085  0.89500  1.0000
  S   S51       1.0  0.09453  0.37399  0.96154  1.0000
  Fe  Fe25      1.0  0.31020  0.38307  0.94540  1.0000
  S   S52       1.0  0.29758  0.34917  0.94052  1.0000
  S   S53       1.0  0.32313  0.40693  0.90266  1.0000
  S   S54       1.0  0.30097  0.48101  0.66544  1.0000
  C   C119      1.0  0.21228  0.34372  0.89457  1.0000
  H   H120      1.0  0.25632  0.40016  0.66577  1.0000
  S   S55       1.0  0.24060  0.33188  0.97236  1.0000
  H   H121      1.0  0.16475  0.36176  0.87348  1.0000
  H   H122      1.0  0.43571  0.23660  0.76716  1.0000
  Fe  Fe26      1.0  0.11821  0.37079  0.92461  1.0000
  S   S56       1.0  0.10524  0.33673  0.92695  1.0000
  S   S57       1.0  0.13661  0.38839  0.87742  1.0000
  H   H123      1.0  0.33790  0.36011  0.81005  1.0000
  C   C120      1.0  0.18905  0.34547  0.98546  1.0000
  C   C121      1.0  0.07882  0.28445  0.94211  1.0000
  H   H124      1.0  0.29086  0.43663  0.55111  1.0000
  C   C122      1.0  0.34339  0.27876  0.97762  1.0000
  H   H125      1.0  0.11086  0.29066  0.94506  1.0000
  H   H126      1.0  0.10091  0.45977  0.74216  1.0000
  N   N11       1.0  0.14890  0.39886  0.49232  1.0000
  N   N12       1.0  0.26151  0.42046  0.70995  1.0000
  H   H127      1.0  0.20331  0.29949  0.96065  1.0000
  C   C123      1.0  0.36891  0.40284  0.90491  1.0000
  N   N13       1.0  0.35769  0.38278  0.88917  1.0000
  H   H128      1.0  0.17798  0.40692  0.56761  1.0000
  Fe  Fe27      1.0  0.08248  0.33982  0.96652  1.0000
  H   H129      1.0  0.36701  0.41495  0.88854  1.0000
  C   C124      1.0  0.27626  0.46707  0.64935  1.0000
  H   H130      1.0  0.98991  0.27293  0.90127  1.0000
  C   C125      1.0  0.20776  0.37971  0.91212  1.0000
  H   H131      1.0  0.29861  0.46729  0.76094  1.0000
  C   C126      1.0  0.28794  0.45392  0.74754  1.0000
  H   H132      1.0  0.24010  0.39169  0.92234  1.0000
  H   H133      1.0  0.02579  0.29559  0.91140  1.0000
  H   H134      1.0  0.33842  0.33369  0.91256  1.0000
  C   C127      1.0  0.27203  0.44917  0.62953  1.0000
  H   H135      1.0  0.04735  0.27919  0.94777  1.0000
  H   H136      1.0  0.24136  0.43638  0.70820  1.0000
  C   C128      1.0  0.22702  0.37869  0.91356  1.0000
  S   S58       1.0  0.43190  0.27756  0.97626  1.0000
  C   C129      1.0  0.44926  0.27536  0.83354  1.0000
  C   C130      1.0  0.25585  0.43642  0.71756  1.0000
  S   S59       1.0  0.14028  0.37450  0.97045  1.0000
  H   H137      1.0  0.43588  0.27454  0.84782  1.0000
  N   N14       1.0  0.13203  0.46440  0.74860  1.0000
  H   H138      1.0  0.18001  0.33189  0.88700  1.0000
  H   H139      1.0  0.33135  0.47774  0.51410  1.0000
  C   C131      1.0  0.32266  0.40644  0.77931  1.0000
  C   C132      1.0  0.31179  0.38871  0.79768  1.0000
  C   C133      1.0  0.31129  0.38862  0.83537  1.0000
  C   C134      1.0  0.32187  0.40628  0.85515  1.0000
  C   C135      1.0  0.33265  0.42401  0.83676  1.0000
  C   C136      1.0  0.33302  0.42414  0.79911  1.0000
  H   H140      1.0  0.30372  0.37493  0.78263  1.0000
  H   H141      1.0  0.30296  0.37485  0.84909  1.0000
  H   H142      1.0  0.34091  0.43775  0.85177  1.0000
  H   H143      1.0  0.34156  0.43787  0.78546  1.0000
  C   C137      1.0  0.35289  0.36615  0.91011  1.0000
  C   C138      1.0  0.27977  0.42055  0.72190  1.0000
  H   H144      1.0  0.28414  0.44468  0.62114  1.0000
  H   H145      1.0  0.36577  0.45828  0.53921  1.0000
  C   C139      1.0  0.02131  0.30550  0.96399  1.0000
  C   C140      1.0  0.12856  0.40591  0.76110  1.0000
  C   C141      1.0  0.11150  0.39570  0.78167  1.0000
  C   C142      1.0  0.11357  0.38998  0.81707  1.0000
  C   C143      1.0  0.13279  0.39450  0.83249  1.0000
  C   C144      1.0  0.14985  0.40468  0.81187  1.0000
  C   C145      1.0  0.14778  0.41029  0.77643  1.0000
  H   H146      1.0  0.09654  0.39221  0.77018  1.0000
  H   H147      1.0  0.10029  0.38220  0.83247  1.0000
  H   H148      1.0  0.16480  0.40829  0.82345  1.0000
  H   H149      1.0  0.16106  0.41817  0.76110  1.0000
  C   C146      1.0  0.23607  0.44263  0.63107  1.0000
  N   N15       1.0  0.19118  0.36306  0.90232  1.0000
  H   H150      1.0  0.23468  0.40572  0.67786  1.0000
  C   C147      1.0  0.21513  0.33088  0.97643  1.0000
  H   H151      1.0  0.16059  0.35231  0.91843  1.0000
  C   C148      1.0  0.25201  0.43692  0.62062  1.0000
  H   H152      1.0  0.21380  0.32935  0.88923  1.0000
  C   C149      1.0  0.33983  0.43519  0.51469  1.0000
  C   C150      1.0  0.26905  0.45346  0.73619  1.0000
  H   H153      1.0  0.24886  0.42280  0.60617  1.0000
  H   H154      1.0  0.24394  0.35928  0.90720  1.0000
  Fe  Fe28      1.0  0.32334  0.46546  0.66108  1.0000
  C   C151      1.0  0.33691  0.34457  0.85950  1.0000
  S   S60       1.0  0.34694  0.47330  0.61884  1.0000
  C   C152      1.0  0.15035  0.47870  0.74027  1.0000
  Fe  Fe29      1.0  0.17707  0.47416  0.65971  1.0000
  S   S61       1.0  0.34346  0.33649  0.98991  1.0000
  Fe  Fe30      1.0  0.12690  0.34101  0.97387  1.0000
  H   H155      1.0  0.11599  0.44058  0.78338  1.0000
  C   C153      1.0  0.35835  0.45151  0.51427  1.0000
  H   H156      1.0  0.22804  0.46570  0.65702  1.0000
  C   C154      1.0  0.22924  0.36056  0.90475  1.0000
  C   C155      1.0  0.46875  0.28239  0.77841  1.0000
  H   H157      1.0  0.14323  0.40240  0.54731  1.0000
  S   S62       1.0  0.44943  0.24202  0.98731  1.0000
  C   C156      1.0  0.29325  0.43726  0.74084  1.0000
  C   C157      1.0  0.98584  0.29076  0.98391  1.0000
  H   H158      1.0  0.11660  0.47384  0.70715  1.0000
  H   H159      1.0  0.24268  0.38945  0.70569  1.0000
  H   H160      1.0  0.26496  0.46652  0.74057  1.0000
  H   H161      1.0  0.12185  0.40482  0.49822  1.0000
  H   H162      1.0  0.38521  0.40537  0.90743  1.0000
  H   H163      1.0  0.28423  0.40783  0.71615  1.0000
  C   C158      1.0  0.35279  0.38069  0.85349  1.0000
  H   H164      1.0  0.14580  0.44499  0.82193  1.0000
  C   C159      1.0  0.00647  0.30348  0.98990  1.0000
  H   H165      1.0  0.17112  0.37893  0.91104  1.0000
  H   H166      1.0  0.33229  0.26358  0.97447  1.0000
  C   C160      1.0  0.17099  0.36409  0.90125  1.0000
  H   H167      1.0  0.20612  0.39377  0.91955  1.0000
  C   C161      1.0  0.45159  0.28149  0.79761  1.0000
  C   C162      1.0  0.34239  0.34681  0.89566  1.0000
  H   H168      1.0  0.31192  0.45917  0.56110  1.0000
  Fe  Fe31      1.0  0.27459  0.35080  0.98104  1.0000
  C   C163      1.0  0.24807  0.40306  0.68889  1.0000
  H   H169      1.0  0.35705  0.36776  0.93828  1.0000
  C   C164      1.0  0.20976  0.34748  0.98566  1.0000
  C   C165      1.0  0.99435  0.28140  0.92617  1.0000
  C   C166      1.0  0.14721  0.45478  0.79933  1.0000
  C   C167      1.0  0.17370  0.40431  0.53950  1.0000
  C   C168      1.0  0.01490  0.29430  0.93196  1.0000
  C   C169      1.0  0.34219  0.36159  0.83818  1.0000
  C   C170      1.0  0.13034  0.45243  0.77756  1.0000
  H   H170      1.0  0.28747  0.46067  0.55308  1.0000
  S   S63       1.0  0.28633  0.38462  0.98279  1.0000
  C   C171      1.0  0.46418  0.27019  0.85076  1.0000
  C   C172      1.0  0.11419  0.46115  0.72571  1.0000
  S   S64       1.0  0.14704  0.32222  0.97542  1.0000
  S   S65       1.0  0.04755  0.32173  0.97288  1.0000
  Fe  Fe32      1.0  0.36710  0.46936  0.66246  1.0000
  C   C173      1.0  0.29773  0.45295  0.54476  1.0000
  H   H171      1.0  0.45335  0.24355  0.70964  1.0000
  N   N16       1.0  0.30168  0.45549  0.50646  1.0000
  H   H172      1.0  0.07816  0.28457  0.91317  1.0000
  C   C174      1.0  0.15410  0.40166  0.52786  1.0000
  C   C175      1.0  0.17359  0.32677  0.97661  1.0000
  H   H173      1.0  0.11068  0.44700  0.70960  1.0000
  C   C176      1.0  0.06143  0.28137  0.96186  1.0000
  C   C177      1.0  0.37155  0.31796  0.98622  1.0000
  H   H174      1.0  0.16760  0.29584  0.96143  1.0000
  C   C178      1.0  0.09715  0.28792  0.95998  1.0000
  C   C179      1.0  0.17917  0.31038  0.96808  1.0000
  H   H175      1.0  0.17922  0.47102  0.80727  1.0000
  Fe  Fe33      1.0  0.40083  0.25338  0.98002  1.0000
  S   S66       1.0  0.37127  0.25995  0.97842  1.0000
  H   H176      1.0  0.39411  0.30417  0.98484  1.0000
  H   H177      1.0  0.38264  0.33312  0.98966  1.0000
  C   C180      1.0  0.37815  0.30151  0.98345  1.0000
  C   C181      1.0  0.14925  0.44825  0.50216  1.0000
  C   C182      1.0  0.35082  0.31500  0.98486  1.0000
  C   C183      1.0  0.31959  0.46925  0.49500  1.0000
  C   C184      1.0  0.36410  0.28168  0.97932  1.0000
  Fe  Fe34      1.0  0.31768  0.34928  0.98810  1.0000
  C   C185      1.0  0.16867  0.44805  0.49828  1.0000
  C   C186      1.0  0.33679  0.29521  0.98027  1.0000
  C   C187      1.0  0.97948  0.27944  0.95196  1.0000
  S   S67       1.0  0.47070  0.28948  0.73277  1.0000
  C   C188      1.0  0.16756  0.48135  0.76128  1.0000
  H   H178      1.0  0.32081  0.29250  0.97913  1.0000
  C   C189      1.0  0.18791  0.40390  0.51458  1.0000
  H   H179      1.0  0.20322  0.40625  0.52336  1.0000
  H   H180      1.0  0.27284  0.43359  0.49140  1.0000
  Fe  Fe35      1.0  0.15837  0.61972  0.33362  1.0000
  S   S68       1.0  0.19157  0.62870  0.32453  1.0000
  S   S69       1.0  0.14560  0.60566  0.38653  1.0000
  Fe  Fe36      1.0  0.14968  0.62408  0.25279  1.0000
  S   S70       1.0  0.18225  0.63239  0.23872  1.0000
  S   S71       1.0  0.12541  0.62378  0.21237  1.0000
  Fe  Fe37      1.0  0.18175  0.60787  0.27652  1.0000
  S   S72       1.0  0.19647  0.58490  0.26965  1.0000
  Fe  Fe38      1.0  0.18833  0.65207  0.28805  1.0000
  S   S73       1.0  0.20669  0.68544  0.28729  1.0000
  S   S74       1.0  0.14866  0.59795  0.28675  1.0000
  S   S75       1.0  0.15568  0.64487  0.30091  1.0000
  C   C190      1.0  0.17964  0.51117  0.19858  1.0000
  H   H181      1.0  0.41541  0.54757  0.36399  1.0000
  S   S76       1.0  0.37104  0.51238  0.27183  1.0000
  S   S77       1.0  0.10913  0.67259  0.00707  1.0000
  S   S78       1.0  0.14361  0.64350  0.04797  1.0000
  H   H182      1.0  0.38280  0.50589  0.39568  1.0000
  C   C191      1.0  0.24090  0.71553  0.26706  1.0000
  H   H183      1.0  0.17155  0.70361  0.09724  1.0000
  C   C192      1.0  0.16794  0.67712  0.21326  1.0000
  H   H184      1.0  0.13963  0.59060  0.45783  1.0000
  C   C193      1.0  0.44003  0.54011  0.28680  1.0000
  C   C194      1.0  0.42977  0.51913  0.28830  1.0000
  C   C195      1.0  0.40866  0.51052  0.28389  1.0000
  C   C196      1.0  0.39762  0.52281  0.27750  1.0000
  C   C197      1.0  0.40789  0.54381  0.27563  1.0000
  C   C198      1.0  0.42904  0.55248  0.28055  1.0000
  H   H185      1.0  0.43822  0.50951  0.29315  1.0000
  H   H186      1.0  0.40106  0.49437  0.28507  1.0000
  H   H187      1.0  0.39946  0.55342  0.27053  1.0000
  H   H188      1.0  0.43683  0.56868  0.27933  1.0000
  C   C199      1.0  0.13020  0.62824  0.16627  1.0000
  C   C200      1.0  0.11526  0.63065  0.14386  1.0000
  C   C201      1.0  0.11894  0.63513  0.10743  1.0000
  C   C202      1.0  0.13755  0.63697  0.09303  1.0000
  C   C203      1.0  0.15240  0.63440  0.11540  1.0000
  C   C204      1.0  0.14880  0.63016  0.15182  1.0000
  H   H189      1.0  0.10081  0.62917  0.15478  1.0000
  H   H190      1.0  0.10738  0.63705  0.09049  1.0000
  H   H191      1.0  0.16683  0.63580  0.10449  1.0000
  H   H192      1.0  0.16041  0.62831  0.16863  1.0000
  C   C205      1.0  0.15264  0.61816  0.42867  1.0000
  C   C206      1.0  0.17709  0.52909  0.18963  1.0000
  C   C207      1.0  0.16265  0.63911  0.43173  1.0000
  H   H193      1.0  0.45138  0.68620  0.35403  1.0000
  H   H194      1.0  0.16660  0.64803  0.40791  1.0000
  C   C208      1.0  0.18033  0.55938  0.27238  1.0000
  C   C209      1.0  0.18840  0.54490  0.28180  1.0000
  C   C210      1.0  0.17593  0.52435  0.28269  1.0000
  C   C211      1.0  0.15531  0.51818  0.27415  1.0000
  C   C212      1.0  0.14727  0.53267  0.26473  1.0000
  C   C213      1.0  0.15974  0.55318  0.26373  1.0000
  H   H195      1.0  0.20436  0.54956  0.28826  1.0000
  H   H196      1.0  0.18232  0.51331  0.28988  1.0000
  H   H197      1.0  0.13134  0.52800  0.25798  1.0000
  H   H198      1.0  0.15345  0.56407  0.25527  1.0000
  C   C214      1.0  0.23150  0.69471  0.27157  1.0000
  C   C215      1.0  0.24244  0.68221  0.26599  1.0000
  H   H199      1.0  0.23520  0.66606  0.26917  1.0000
  H   H200      1.0  0.17545  0.56582  0.19190  1.0000
  H   H201      1.0  0.36613  0.49453  0.17766  1.0000
  H   H202      1.0  0.10768  0.53426  0.33957  1.0000
  H   H203      1.0  0.27183  0.68127  0.25515  1.0000
  C   C216      1.0  0.27283  0.71188  0.25577  1.0000
  H   H204      1.0  0.30697  0.71295  0.33786  1.0000
  C   C217      1.0  0.25791  0.68254  0.34975  1.0000
  N   N17       1.0  0.26207  0.71757  0.35193  1.0000
  N   N18       1.0  0.16573  0.68333  0.14044  1.0000
  C   C218      1.0  0.14746  0.60679  0.45993  1.0000
  C   C219      1.0  0.25359  0.73333  0.35579  1.0000
  C   C220      1.0  0.14961  0.67548  0.19720  1.0000
  S   S79       1.0  0.47500  0.65062  0.27869  1.0000
  H   H205      1.0  0.46624  0.68683  0.27087  1.0000
  H   H206      1.0  0.07802  0.70508  0.02182  1.0000
  H   H207      1.0  0.13435  0.67701  0.14820  1.0000
  H   H208      1.0  0.13506  0.56767  0.34874  1.0000
  H   H209      1.0  0.19944  0.68308  0.20508  1.0000
  H   H210      1.0  0.19721  0.68857  0.14004  1.0000
  N   N19       1.0  0.41205  0.51704  0.37359  1.0000
  C   C221      1.0  0.44267  0.51111  0.38468  1.0000
  C   C222      1.0  0.16704  0.64860  0.46573  1.0000
  C   C223      1.0  0.42291  0.53729  0.37064  1.0000
  H   H211      1.0  0.45268  0.56080  0.37032  1.0000
  H   H212      1.0  0.18907  0.57489  0.35788  1.0000
  H   H213      1.0  0.24806  0.66674  0.35005  1.0000
  N   N20       1.0  0.15782  0.55547  0.35847  1.0000
  H   H214      1.0  0.19004  0.56677  0.15223  1.0000
  N   N21       1.0  0.19297  0.54723  0.19234  1.0000
  S   S80       1.0  0.29927  0.72285  0.25087  1.0000
  C   C224      1.0  0.21165  0.54807  0.20362  1.0000
  H   H215      1.0  0.38493  0.49487  0.35310  1.0000
  C   C225      1.0  0.28240  0.72308  0.34730  1.0000
  C   C226      1.0  0.27858  0.68804  0.34410  1.0000
  C   C227      1.0  0.19001  0.56570  0.18177  1.0000
  C   C228      1.0  0.21471  0.53043  0.21283  1.0000
  H   H216      1.0  0.22419  0.56247  0.20619  1.0000
  H   H217      1.0  0.16222  0.52843  0.18121  1.0000
  H   H218      1.0  0.22942  0.53106  0.22232  1.0000
  H   H219      1.0  0.38461  0.51974  0.35466  1.0000
  H   H220      1.0  0.28496  0.67654  0.34003  1.0000
  C   C229      1.0  0.39001  0.50912  0.36921  1.0000
  H   H221      1.0  0.17308  0.67930  0.08668  1.0000
  C   C230      1.0  0.44398  0.54490  0.37440  1.0000
  H   H222      1.0  0.11540  0.50299  0.34446  1.0000
  H   H223      1.0  0.46602  0.65988  0.36054  1.0000
  C   C231      1.0  0.42158  0.50402  0.38121  1.0000
  C   C232      1.0  0.16205  0.53838  0.36247  1.0000
  C   C233      1.0  0.14679  0.51927  0.35808  1.0000
  C   C234      1.0  0.17394  0.57540  0.36302  1.0000
  H   H224      1.0  0.17739  0.53944  0.36804  1.0000
  H   H225      1.0  0.23238  0.72521  0.27062  1.0000
  H   H226      1.0  0.20078  0.49815  0.21761  1.0000
  H   H227      1.0  0.20202  0.57944  0.19336  1.0000
  H   H228      1.0  0.17180  0.58607  0.34358  1.0000
  H   H229      1.0  0.15031  0.50572  0.35961  1.0000
  C   C235      1.0  0.26315  0.69084  0.25811  1.0000
  H   H230      1.0  0.13597  0.67098  0.21283  1.0000
  H   H231      1.0  0.16876  0.67448  0.24158  1.0000
  C   C236      1.0  0.29094  0.70843  0.34295  1.0000
  H   H232      1.0  0.17445  0.66485  0.46782  1.0000
  C   C237      1.0  0.14878  0.67876  0.16057  1.0000
  Fe  Fe39      1.0  0.12557  0.65112  0.00329  1.0000
  C   C238      1.0  0.12714  0.51773  0.34951  1.0000
  C   C239      1.0  0.12288  0.53524  0.34634  1.0000
  H   H233      1.0  0.14904  0.68116  0.09142  1.0000
  H   H234      1.0  0.41285  0.48799  0.38397  1.0000
  C   C240      1.0  0.18518  0.68192  0.19264  1.0000
  C   C241      1.0  0.26139  0.72403  0.25880  1.0000
  C   C242      1.0  0.16485  0.68716  0.10219  1.0000
  C   C243      1.0  0.18380  0.68500  0.15601  1.0000
  C   C244      1.0  0.19860  0.51189  0.21021  1.0000
  C   C245      1.0  0.24985  0.69761  0.35361  1.0000
  C   C246      1.0  0.13847  0.55410  0.35125  1.0000
  H   H235      1.0  0.16686  0.49689  0.19732  1.0000
  H   H236      1.0  0.23366  0.69317  0.35684  1.0000
  H   H237      1.0  0.17364  0.58152  0.39037  1.0000
  H   H238      1.0  0.01271  0.63770  0.00482  1.0000
  S   S81       1.0  0.13912  0.49265  0.27593  1.0000
  S   S82       1.0  0.46639  0.55014  0.29470  1.0000
  H   H239      1.0  0.99306  0.57484  0.01231  1.0000
  C   C247      1.0  0.45391  0.53167  0.38095  1.0000
  H   H240      1.0  0.45026  0.50068  0.38955  1.0000
  C   C248      1.0  0.46721  0.69043  0.36141  1.0000
  H   H241      1.0  0.47032  0.53734  0.38218  1.0000
  H   H242      1.0  0.47339  0.72242  0.36212  1.0000
  C   C249      1.0  0.07785  0.70438  0.99287  1.0000
  C   C250      1.0  0.97894  0.56619  0.02495  1.0000
  H   H243      1.0  0.98238  0.58954  0.06461  1.0000
  H   H244      1.0  0.23683  0.72706  0.35291  1.0000
  C   C251      1.0  0.47559  0.67562  0.36514  1.0000
  S   S83       1.0  0.47821  0.60517  0.33582  1.0000
  Fe  Fe40      1.0  0.16641  0.63488  0.59222  1.0000
  S   S84       1.0  0.18626  0.61757  0.60485  1.0000
  S   S85       1.0  0.16666  0.65003  0.53902  1.0000
  Fe  Fe41      1.0  0.15200  0.63331  0.67079  1.0000
  S   S86       1.0  0.17055  0.61556  0.68848  1.0000
  S   S87       1.0  0.13543  0.64756  0.70730  1.0000
  Fe  Fe42      1.0  0.19489  0.63694  0.65485  1.0000
  S   S88       1.0  0.22628  0.65318  0.67789  1.0000
  Fe  Fe43      1.0  0.15997  0.59795  0.63685  1.0000
  S   S89       1.0  0.14579  0.56405  0.62910  1.0000
  S   S90       1.0  0.17693  0.65565  0.64022  1.0000
  S   S91       1.0  0.13945  0.61425  0.62121  1.0000
  S   S92       1.0  0.19010  0.50651  0.67970  1.0000
  S   S93       1.0  0.44131  0.58325  0.68153  1.0000
  C   C252      1.0  0.02663  0.62389  0.96732  1.0000
  H   H245      1.0  0.47110  0.54749  0.57544  1.0000
  H   H246      1.0  0.39846  0.50723  0.59043  1.0000
  H   H247      1.0  0.41102  0.54458  0.59164  1.0000
  H   H248      1.0  0.98518  0.55088  0.96532  1.0000
  H   H249      1.0  0.14266  0.69250  0.59176  1.0000
  Fe  Fe44      1.0  0.12083  0.64820  0.92124  1.0000
  S   S94       1.0  0.12983  0.63221  0.87492  1.0000
  S   S95       1.0  0.10414  0.66961  0.92035  1.0000
  C   C253      1.0  0.23976  0.70250  0.61593  1.0000
  C   C254      1.0  0.25648  0.69090  0.67557  1.0000
  C   C255      1.0  0.10384  0.62834  0.56781  1.0000
  C   C256      1.0  0.41136  0.51419  0.67135  1.0000
  C   C257      1.0  0.39951  0.52591  0.67562  1.0000
  C   C258      1.0  0.40882  0.54711  0.67868  1.0000
  C   C259      1.0  0.42993  0.55667  0.67691  1.0000
  C   C260      1.0  0.44162  0.54486  0.67233  1.0000
  C   C261      1.0  0.43242  0.52375  0.66994  1.0000
  H   H250      1.0  0.38323  0.51864  0.67669  1.0000
  H   H251      1.0  0.39961  0.55611  0.68232  1.0000
  H   H252      1.0  0.45780  0.55184  0.67138  1.0000
  H   H253      1.0  0.44166  0.51477  0.66658  1.0000
  C   C262      1.0  0.13328  0.64281  0.75375  1.0000
  C   C263      1.0  0.13747  0.62684  0.76846  1.0000
  C   C264      1.0  0.13558  0.62343  0.80542  1.0000
  C   C265      1.0  0.12989  0.63615  0.82824  1.0000
  C   C266      1.0  0.12569  0.65216  0.81355  1.0000
  C   C267      1.0  0.12725  0.65537  0.77642  1.0000
  H   H254      1.0  0.14195  0.61695  0.75137  1.0000
  H   H255      1.0  0.13882  0.61099  0.81651  1.0000
  H   H256      1.0  0.12134  0.66209  0.83081  1.0000
  H   H257      1.0  0.12388  0.66771  0.76528  1.0000
  C   C268      1.0  0.17710  0.52241  0.66823  1.0000
  C   C269      1.0  0.15785  0.51452  0.65220  1.0000
  C   C270      1.0  0.14802  0.52745  0.64201  1.0000
  C   C271      1.0  0.15752  0.54840  0.64707  1.0000
  C   C272      1.0  0.17662  0.55635  0.66369  1.0000
  C   C273      1.0  0.18633  0.54332  0.67448  1.0000
  H   H258      1.0  0.15060  0.49853  0.64713  1.0000
  H   H259      1.0  0.13324  0.52126  0.62917  1.0000
  H   H260      1.0  0.18405  0.57251  0.66763  1.0000
  H   H261      1.0  0.20121  0.54953  0.68696  1.0000
  C   C274      1.0  0.23863  0.67723  0.65954  1.0000
  C   C275      1.0  0.23050  0.68302  0.62939  1.0000
  H   H262      1.0  0.21720  0.67243  0.61603  1.0000
  C   C276      1.0  0.18105  0.54729  0.57392  1.0000
  S   S96       1.0  0.05181  0.64223  0.97697  1.0000
  H   H263      1.0  0.23324  0.70685  0.59273  1.0000
  H   H264      1.0  0.14805  0.60735  0.51777  1.0000
  H   H265      1.0  0.07778  0.69959  0.89021  1.0000
  H   H266      1.0  0.20314  0.64522  0.74299  1.0000
  H   H267      1.0  0.10019  0.63610  0.65679  1.0000
  C   C277      1.0  0.46093  0.59720  0.77568  1.0000
  N   N22       1.0  0.15857  0.51371  0.55712  1.0000
  C   C278      1.0  0.17294  0.50623  0.56706  1.0000
  H   H268      1.0  0.03493  0.60628  0.92792  1.0000
  C   C279      1.0  0.19165  0.51909  0.58117  1.0000
  H   H269      1.0  0.20984  0.54978  0.59669  1.0000
  C   C280      1.0  0.19568  0.53974  0.58464  1.0000
  Fe  Fe45      1.0  0.08649  0.65152  0.96676  1.0000
  C   C281      1.0  0.09651  0.62468  0.60242  1.0000
  H   H270      1.0  0.03907  0.68108  0.89539  1.0000
  H   H271      1.0  0.17817  0.67279  0.71650  1.0000
  C   C282      1.0  0.98582  0.59594  0.95355  1.0000
  S   S97       1.0  0.47205  0.72717  0.67123  1.0000
  H   H272      1.0  0.18369  0.56321  0.57780  1.0000
  C   C283      1.0  0.17858  0.66029  0.82409  1.0000
  H   H273      1.0  0.14058  0.49010  0.52186  1.0000
  C   C284      1.0  0.42153  0.53711  0.58656  1.0000
  H   H274      1.0  0.46077  0.68415  0.66471  1.0000
  H   H275      1.0  0.17102  0.66417  0.84641  1.0000
  H   H276      1.0  0.15079  0.53992  0.55394  1.0000
  C   C285      1.0  0.15221  0.61625  0.49395  1.0000
  C   C286      1.0  0.12130  0.65690  0.62152  1.0000
  C   C287      1.0  0.26594  0.71039  0.66179  1.0000
  H   H277      1.0  0.26356  0.48729  0.67314  1.0000
  C   C288      1.0  0.19295  0.67722  0.73090  1.0000
  H   H278      1.0  0.43731  0.52888  0.75015  1.0000
  H   H279      1.0  0.12886  0.50753  0.53495  1.0000
  H   H280      1.0  0.47679  0.72171  0.57212  1.0000
  C   C289      1.0  0.09459  0.71658  0.97409  1.0000
  N   N23       1.0  0.19046  0.66584  0.76395  1.0000
  H   H281      1.0  0.18208  0.49258  0.75421  1.0000
  H   H282      1.0  0.09753  0.61708  0.54670  1.0000
  C   C290      1.0  0.44838  0.51757  0.57757  1.0000
  N   N24       1.0  0.44168  0.54815  0.58247  1.0000
  C   C291      1.0  0.19629  0.64961  0.76575  1.0000
  H   H283      1.0  0.20391  0.67433  0.71289  1.0000
  C   C292      1.0  0.00242  0.59424  0.93544  1.0000
  H   H284      1.0  0.12570  0.64893  0.53393  1.0000
  C   C293      1.0  0.42786  0.50619  0.58164  1.0000
  H   H285      1.0  0.18151  0.63480  0.85021  1.0000
  H   H286      1.0  0.03089  0.66718  0.93566  1.0000
  C   C294      1.0  0.44933  0.57025  0.58484  1.0000
  C   C295      1.0  0.16187  0.63724  0.49697  1.0000
  H   H287      1.0  0.45787  0.57542  0.61039  1.0000
  H   H288      1.0  0.08442  0.61055  0.60848  1.0000
  C   C296      1.0  0.16239  0.53397  0.56038  1.0000
  H   H289      1.0  0.43256  0.56099  0.76256  1.0000
  C   C297      1.0  0.18443  0.64371  0.82618  1.0000
  H   H290      1.0  0.99970  0.58216  0.91591  1.0000
  H   H291      1.0  0.17600  0.68336  0.79044  1.0000
  H   H292      1.0  0.15939  0.67855  0.59165  1.0000
  C   C298      1.0  0.14521  0.67926  0.58011  1.0000
  H   H293      1.0  0.16974  0.49015  0.56476  1.0000
  H   H294      1.0  0.19881  0.69371  0.73679  1.0000
  H   H295      1.0  0.27962  0.72091  0.67434  1.0000
  S   S98       1.0  0.40076  0.48770  0.66610  1.0000
  H   H296      1.0  0.45962  0.57692  0.56242  1.0000
  C   C299      1.0  0.44775  0.56085  0.76258  1.0000
  C   C300      1.0  0.25745  0.71626  0.63207  1.0000
  C   C301      1.0  0.02256  0.60798  0.94225  1.0000
  H   H297      1.0  0.19768  0.62523  0.79795  1.0000
  C   C302      1.0  0.09444  0.71504  0.93693  1.0000
  C   C303      1.0  0.10529  0.63902  0.62950  1.0000
  C   C304      1.0  0.45035  0.54266  0.75535  1.0000
  S   S99       1.0  0.14541  0.66786  0.95870  1.0000
  C   C305      1.0  0.45507  0.53868  0.57805  1.0000
  S   S100      1.0  0.10239  0.62939  0.96575  1.0000
  C   C306      1.0  0.19333  0.63828  0.79684  1.0000
  H   H298      1.0  0.14751  0.68161  0.55095  1.0000
  C   C307      1.0  0.06113  0.69076  0.97410  1.0000
  C   C308      1.0  0.11980  0.64643  0.56075  1.0000
  C   C309      1.0  0.13876  0.49960  0.54435  1.0000
  C   C310      1.0  0.18143  0.67106  0.79239  1.0000
  H   H299      1.0  0.20272  0.51301  0.59044  1.0000
  H   H300      1.0  0.04863  0.66173  0.90814  1.0000
  Fe  Fe46      1.0  0.12825  0.68848  0.96067  1.0000
  H   H301      1.0  0.12840  0.66771  0.64297  1.0000
  H   H302      1.0  0.44885  0.59482  0.79551  1.0000
  H   H303      1.0  0.42248  0.48982  0.58261  1.0000
  N   N25       1.0  0.12820  0.66050  0.58744  1.0000
  C   C311      1.0  0.04407  0.67416  0.91818  1.0000
  C   C312      1.0  0.41430  0.51598  0.58583  1.0000
  C   C313      1.0  0.07752  0.70116  0.91902  1.0000
  H   H304      1.0  0.26293  0.68646  0.69876  1.0000
  N   N26       1.0  0.06114  0.68926  0.93762  1.0000
  H   H305      1.0  0.47484  0.60927  0.78659  1.0000
  S   S101      1.0  0.14440  0.72341  0.95954  1.0000
  H   H306      1.0  0.45635  0.60260  0.75053  1.0000
  H   H307      1.0  0.45909  0.51012  0.57472  1.0000
  C   C314      1.0  0.98993  0.61179  0.97872  1.0000
  H   H308      1.0  0.43697  0.57623  0.58410  1.0000
  H   H309      1.0  0.18848  0.72867  0.96667  1.0000
  H   H310      1.0  0.10767  0.72410  0.92229  1.0000
  C   C315      1.0  0.47709  0.69090  0.66684  1.0000
  N   N27       1.0  0.46411  0.57832  0.76857  1.0000
  H   H311      1.0  0.47210  0.52865  0.74686  1.0000
  C   C316      1.0  0.46986  0.54256  0.75327  1.0000
  Fe  Fe47      1.0  0.47467  0.59915  0.67043  1.0000
  C   C317      1.0  0.01003  0.62560  0.98535  1.0000
  H   H312      1.0  0.13101  0.48942  0.56627  1.0000
  H   H313      1.0  0.10789  0.72689  0.98829  1.0000
  H   H314      1.0  0.15183  0.48807  0.71711  1.0000
  H   H315      1.0  0.04842  0.68091  0.98901  1.0000
  Fe  Fe48      1.0  0.31422  0.75483  0.27276  1.0000
  S   S102      1.0  0.29489  0.77134  0.29149  1.0000
  H   H316      1.0  0.29949  0.88554  0.10906  1.0000
  Fe  Fe49      1.0  0.35272  0.79055  0.29192  1.0000
  S   S103      1.0  0.33544  0.80949  0.31152  1.0000
  S   S104      1.0  0.38666  0.80551  0.29721  1.0000
  Fe  Fe50      1.0  0.31611  0.78112  0.33896  1.0000
  S   S105      1.0  0.30150  0.77398  0.39356  1.0000
  Fe  Fe51      1.0  0.31617  0.79753  0.26173  1.0000
  S   S106      1.0  0.30131  0.81327  0.22448  1.0000
  S   S107      1.0  0.33434  0.76289  0.32180  1.0000
  S   S108      1.0  0.33468  0.78050  0.24067  1.0000
  S   S109      1.0  0.44679  0.76137  0.25941  1.0000
  Fe  Fe52      1.0  0.30089  0.82889  0.01184  1.0000
  S   S110      1.0  0.27921  0.84514  0.01440  1.0000
  S   S111      1.0  0.31777  0.82043  0.05735  1.0000
  C   C318      1.0  0.31607  0.88942  0.06029  1.0000
  C   C319      1.0  0.33129  0.88537  0.04237  1.0000
  C   C320      1.0  0.27478  0.76631  0.17734  1.0000
  N   N28       1.0  0.30159  0.75757  0.15303  1.0000
  C   C321      1.0  0.27066  0.77211  0.14363  1.0000
  H   H317      1.0  0.29374  0.75490  0.20797  1.0000
  C   C322      1.0  0.30629  0.81572  0.17815  1.0000
  C   C323      1.0  0.29370  0.82169  0.15541  1.0000
  C   C324      1.0  0.29682  0.82305  0.11825  1.0000
  C   C325      1.0  0.31283  0.81883  0.10366  1.0000
  C   C326      1.0  0.32561  0.81324  0.12649  1.0000
  C   C327      1.0  0.32230  0.81155  0.16346  1.0000
  H   H318      1.0  0.28130  0.82498  0.16656  1.0000
  H   H319      1.0  0.28689  0.82742  0.10098  1.0000
  H   H320      1.0  0.33814  0.81010  0.11549  1.0000
  H   H321      1.0  0.33227  0.80723  0.18064  1.0000
  C   C328      1.0  0.40273  0.79238  0.28775  1.0000
  C   C329      1.0  0.39581  0.77383  0.26920  1.0000
  C   C330      1.0  0.40940  0.76431  0.26087  1.0000
  C   C331      1.0  0.42984  0.77313  0.27152  1.0000
  C   C332      1.0  0.43660  0.79147  0.29062  1.0000
  C   C333      1.0  0.42314  0.80115  0.29837  1.0000
  H   H322      1.0  0.38010  0.76700  0.26087  1.0000
  H   H323      1.0  0.40407  0.75010  0.24611  1.0000
  H   H324      1.0  0.45219  0.79828  0.29944  1.0000
  H   H325      1.0  0.42853  0.81544  0.31289  1.0000
  C   C334      1.0  0.33049  0.80265  0.43620  1.0000
  C   C335      1.0  0.31529  0.78341  0.43391  1.0000
  C   C336      1.0  0.47067  0.78824  0.18174  1.0000
  H   H326      1.0  0.33536  0.81133  0.41225  1.0000
  H   H327      1.0  0.29750  0.75742  0.46378  1.0000
  C   C337      1.0  0.29585  0.82159  0.48626  1.0000
  C   C338      1.0  0.30917  0.77236  0.46529  1.0000
  H   H328      1.0  0.36210  0.87969  0.01518  1.0000
  H   H329      1.0  0.46262  0.80124  0.22819  1.0000
  H   H330      1.0  0.30730  0.76329  0.09764  1.0000
  H   H331      1.0  0.45969  0.77321  0.18651  1.0000
  C   C339      1.0  0.27255  0.78660  0.47542  1.0000
  C   C340      1.0  0.29787  0.76355  0.11998  1.0000
  N   N29       1.0  0.34179  0.87514  0.05878  1.0000
  C   C341      1.0  0.31150  0.88278  0.09511  1.0000
  H   H332      1.0  0.35113  0.85420  0.03079  1.0000
  H   H333      1.0  0.31860  0.86674  0.13849  1.0000
  H   H334      1.0  0.26650  0.76818  0.20035  1.0000
  C   C342      1.0  0.33861  0.81120  0.46979  1.0000
  C   C343      1.0  0.32225  0.87232  0.11164  1.0000
  C   C344      1.0  0.33737  0.86853  0.09289  1.0000
  H   H335      1.0  0.27973  0.77601  0.08865  1.0000
  C   C345      1.0  0.35726  0.87037  0.03937  1.0000
  H   H336      1.0  0.28692  0.83146  0.48657  1.0000
  H   H337      1.0  0.25809  0.74106  0.38223  1.0000
  H   H338      1.0  0.33279  0.76427  0.16257  1.0000
  H   H339      1.0  0.34979  0.82641  0.47137  1.0000
  C   C346      1.0  0.29039  0.75903  0.18158  1.0000
  H   H340      1.0  0.30108  0.82067  0.45868  1.0000
  H   H341      1.0  0.33448  0.89030  0.01511  1.0000
  H   H342      1.0  0.34520  0.85979  0.10545  1.0000
  C   C347      1.0  0.47243  0.80419  0.20537  1.0000
  H   H343      1.0  0.27337  0.78933  0.44693  1.0000
  H   H344      1.0  0.31633  0.74105  0.18195  1.0000
  H   H345      1.0  0.30768  0.89738  0.04690  1.0000
  H   H346      1.0  0.32020  0.74198  0.13484  1.0000
  C   C348      1.0  0.28224  0.77072  0.11470  1.0000
  C   C349      1.0  0.31857  0.75091  0.15831  1.0000
  H   H347      1.0  0.37086  0.87318  0.05666  1.0000
  H   H348      1.0  0.25905  0.77843  0.14020  1.0000
  H   H349      1.0  0.29209  0.73888  0.34634  1.0000
  H   H350      1.0  0.25942  0.74473  0.33469  1.0000
  H   H351      1.0  0.26822  0.74000  0.25475  1.0000
  H   H352      1.0  0.25270  0.75535  0.46843  1.0000
  C   C350      1.0  0.26088  0.76731  0.48738  1.0000
  H   H353      1.0  0.47668  0.83526  0.24577  1.0000
  H   H354      1.0  0.39750  0.98456  0.04620  1.0000
  Fe  Fe53      1.0  0.33066  0.79695  0.59570  1.0000
  S   S112      1.0  0.32540  0.76418  0.59899  1.0000
  S   S113      1.0  0.34001  0.81303  0.54315  1.0000
  Fe  Fe54      1.0  0.32258  0.80014  0.67656  1.0000
  S   S114      1.0  0.31649  0.76723  0.68486  1.0000
  S   S115      1.0  0.32229  0.82320  0.71913  1.0000
  Fe  Fe55      1.0  0.34361  0.77278  0.65010  1.0000
  S   S116      1.0  0.36770  0.75993  0.66120  1.0000
  Fe  Fe56      1.0  0.29898  0.76217  0.63269  1.0000
  N   N30       1.0  0.37907  0.76837  0.55849  1.0000
  S   S117      1.0  0.35075  0.80593  0.64485  1.0000
  S   S118      1.0  0.30326  0.79483  0.62664  1.0000
  S   S119      1.0  0.46019  0.81510  0.64514  1.0000
  Fe  Fe57      1.0  0.29787  0.82557  0.92959  1.0000
  S   S120      1.0  0.27629  0.84197  0.92744  1.0000
  S   S121      1.0  0.30430  0.80692  0.88465  1.0000
  H   H355      1.0  0.26710  0.78439  0.83699  1.0000
  Fe  Fe58      1.0  0.26048  0.82184  0.97286  1.0000
  C   C351      1.0  0.35749  0.96401  0.96866  1.0000
  S   S122      1.0  0.22570  0.80425  0.97137  1.0000
  H   H356      1.0  0.18364  0.79630  0.96490  1.0000
  H   H357      1.0  0.30610  0.93949  0.97243  1.0000
  H   H358      1.0  0.23372  0.83349  0.85310  1.0000
  H   H359      1.0  0.22966  0.80705  0.89749  1.0000
  C   C352      1.0  0.18741  0.74341  0.96616  1.0000
  H   H360      1.0  0.27048  0.77603  0.57623  1.0000
  H   H361      1.0  0.26080  0.77626  0.89984  1.0000
  C   C353      1.0  0.33171  0.80056  0.50131  1.0000
  H   H362      1.0  0.23379  0.76501  0.88994  1.0000
  C   C354      1.0  0.25272  0.82368  0.81917  1.0000
  H   H363      1.0  0.27125  0.81034  0.79150  1.0000
  C   C355      1.0  0.24656  0.77923  0.89717  1.0000
  C   C356      1.0  0.23880  0.80771  0.87428  1.0000
  C   C357      1.0  0.36394  0.74789  0.56160  1.0000
  C   C358      1.0  0.31702  0.81840  0.76502  1.0000
  C   C359      1.0  0.31321  0.79935  0.77932  1.0000
  C   C360      1.0  0.30975  0.79631  0.81610  1.0000
  C   C361      1.0  0.30969  0.81213  0.83893  1.0000
  C   C362      1.0  0.31325  0.83112  0.82459  1.0000
  C   C363      1.0  0.31703  0.83425  0.78784  1.0000
  H   H364      1.0  0.31294  0.78694  0.76213  1.0000
  H   H365      1.0  0.30694  0.78154  0.82692  1.0000
  H   H366      1.0  0.31320  0.84342  0.84181  1.0000
  H   H367      1.0  0.31997  0.84905  0.77704  1.0000
  C   C364      1.0  0.26191  0.80963  0.81451  1.0000
  C   C365      1.0  0.16815  0.74474  0.96303  1.0000
  S   S123      1.0  0.26810  0.74067  0.61449  1.0000
  S   S124      1.0  0.28138  0.80496  0.97340  1.0000
  H   H368      1.0  0.31193  0.77245  0.52285  1.0000
  C   C366      1.0  0.43465  0.79971  0.65068  1.0000
  C   C367      1.0  0.42882  0.77914  0.65777  1.0000
  C   C368      1.0  0.40823  0.76708  0.66092  1.0000
  C   C369      1.0  0.39337  0.77545  0.65662  1.0000
  C   C370      1.0  0.39926  0.79602  0.64947  1.0000
  C   C371      1.0  0.41983  0.80814  0.64684  1.0000
  H   H369      1.0  0.44017  0.77251  0.66091  1.0000
  H   H370      1.0  0.40383  0.75120  0.66667  1.0000
  H   H371      1.0  0.38808  0.80269  0.64611  1.0000
  H   H372      1.0  0.42428  0.82404  0.64129  1.0000
  C   C372      1.0  0.39885  0.77204  0.56729  1.0000
  Fe  Fe59      1.0  0.29725  0.86382  0.96885  1.0000
  C   C373      1.0  0.24093  0.82264  0.84908  1.0000
  C   C374      1.0  0.40778  0.80733  0.55438  1.0000
  H   H373      1.0  0.42918  0.79441  0.57236  1.0000
  H   H374      1.0  0.37819  0.94840  0.96509  1.0000
  N   N31       1.0  0.24852  0.79450  0.87019  1.0000
  N   N32       1.0  0.37964  0.82133  0.73751  1.0000
  C   C375      1.0  0.36443  0.80282  0.73992  1.0000
  C   C376      1.0  0.39933  0.82286  0.73534  1.0000
  C   C377      1.0  0.36876  0.78524  0.74106  1.0000
  C   C378      1.0  0.40423  0.80559  0.73658  1.0000
  C   C379      1.0  0.38881  0.78668  0.73959  1.0000
  C   C380      1.0  0.37452  0.83941  0.73562  1.0000
  H   H375      1.0  0.34880  0.80157  0.74052  1.0000
  H   H376      1.0  0.41139  0.83745  0.73230  1.0000
  C   C381      1.0  0.34735  0.92675  0.96707  1.0000
  H   H377      1.0  0.41980  0.80675  0.73409  1.0000
  H   H378      1.0  0.39230  0.77309  0.73930  1.0000
  H   H379      1.0  0.36323  0.83900  0.75617  1.0000
  H   H380      1.0  0.38793  0.85351  0.74037  1.0000
  H   H381      1.0  0.36776  0.84007  0.70894  1.0000
  C   C382      1.0  0.26026  0.76348  0.52387  1.0000
  C   C383      1.0  0.27106  0.77894  0.54786  1.0000
  C   C384      1.0  0.38752  0.80352  0.54609  1.0000
  C   C385      1.0  0.31737  0.78085  0.49885  1.0000
  C   C386      1.0  0.20421  0.78063  0.96833  1.0000
  C   C387      1.0  0.25953  0.79498  0.84035  1.0000
  C   C388      1.0  0.36248  0.94657  0.96701  1.0000
  H   H382      1.0  0.24378  0.78449  0.92391  1.0000
  H   H383      1.0  0.40332  0.75998  0.57688  1.0000
  C   C389      1.0  0.41354  0.79150  0.56489  1.0000
  H   H384      1.0  0.25484  0.83540  0.79972  1.0000
  H   H385      1.0  0.35758  0.78108  0.54192  1.0000
  H   H386      1.0  0.15280  0.76561  0.96011  1.0000
  H   H387      1.0  0.33256  0.97405  0.97191  1.0000
  H   H388      1.0  0.35664  0.77052  0.74199  1.0000
  C   C390      1.0  0.20535  0.76126  0.96867  1.0000
  S   S125      1.0  0.31958  0.84815  0.96815  1.0000
  N   N33       1.0  0.28361  0.80150  0.49916  1.0000
  C   C391      1.0  0.32676  0.92383  0.96904  1.0000
  C   C392      1.0  0.32183  0.94126  0.97099  1.0000
  H   H389      1.0  0.35169  0.91378  0.96503  1.0000
  C   C393      1.0  0.16732  0.76410  0.96248  1.0000
  S   S126      1.0  0.30663  0.89903  0.96958  1.0000
  C   C394      1.0  0.18497  0.78166  0.96520  1.0000
  H   H390      1.0  0.29160  0.80975  0.55385  1.0000
  H   H391      1.0  0.41896  0.82257  0.55324  1.0000
  C   C395      1.0  0.28279  0.79796  0.53502  1.0000
  H   H392      1.0  0.38276  0.81572  0.53824  1.0000
  C   C396      1.0  0.37329  0.78383  0.54831  1.0000
  H   H393      1.0  0.35946  0.74501  0.58990  1.0000
  C   C397      1.0  0.33692  0.96105  0.97072  1.0000
  H   H394      1.0  0.35016  0.74571  0.54512  1.0000
  H   H395      1.0  0.25160  0.74854  0.53376  1.0000
  H   H396      1.0  0.30972  0.82867  0.50325  1.0000
  H   H397      1.0  0.21995  0.75998  0.97129  1.0000
  H   H398      1.0  0.37007  0.73644  0.55249  1.0000
  C   C398      1.0  0.49031  0.10989  0.42818  1.0000
  Fe  Fe60      1.0  0.70233  0.13620  0.31890  1.0000
  S   S127      1.0  0.69806  0.10370  0.32503  1.0000
  S   S128      1.0  0.73287  0.15791  0.33778  1.0000
  Fe  Fe61      1.0  0.65932  0.12541  0.29023  1.0000
  S   S129      1.0  0.65226  0.09203  0.29362  1.0000
  S   S130      1.0  0.63679  0.13970  0.27534  1.0000
  Fe  Fe62      1.0  0.66799  0.10015  0.34752  1.0000
  S   S131      1.0  0.65372  0.08398  0.39784  1.0000
  Fe  Fe63      1.0  0.68322  0.09925  0.27033  1.0000
  S   S132      1.0  0.69532  0.08185  0.23105  1.0000
  S   S133      1.0  0.67335  0.13301  0.34522  1.0000
  S   S134      1.0  0.68922  0.13219  0.26324  1.0000
  Fe  Fe64      1.0  0.50476  0.13491  0.26043  1.0000
  S   S135      1.0  0.50433  0.16156  0.22941  1.0000
  Fe  Fe65      1.0  0.51944  0.10138  0.27958  1.0000
  C   C399      1.0  0.48635  0.12806  0.14487  1.0000
  S   S136      1.0  0.54300  0.08717  0.27933  1.0000
  C   C400      1.0  0.72601  0.13661  0.19898  1.0000
  H   H399      1.0  0.49061  0.22304  0.37141  1.0000
  H   H400      1.0  0.70964  0.12374  0.47863  1.0000
  S   S137      1.0  0.50495  0.10773  0.22991  1.0000
  S   S138      1.0  0.52251  0.13052  0.30759  1.0000
  H   H401      1.0  0.83756  0.15694  0.04265  1.0000
  H   H402      1.0  0.61786  0.08970  0.35430  1.0000
  C   C401      1.0  0.81523  0.19135  0.03666  1.0000
  Fe  Fe66      1.0  0.70357  0.06997  0.01488  1.0000
  S   S139      1.0  0.72762  0.05649  0.01547  1.0000
  S   S140      1.0  0.68729  0.07876  0.06061  1.0000
  H   H403      1.0  0.80411  0.15885  0.03116  1.0000
  C   C402      1.0  0.87245  0.18733  0.05648  1.0000
  H   H404      1.0  0.57694  0.14109  0.35596  1.0000
  C   C403      1.0  0.75434  0.17556  0.19488  1.0000
  H   H405      1.0  0.68361  0.06545  0.38392  1.0000
  H   H406      1.0  0.61055  0.13823  0.35596  1.0000
  H   H407      1.0  0.88311  0.20094  0.07083  1.0000
  C   C404      1.0  0.69322  0.08150  0.18365  1.0000
  C   C405      1.0  0.68011  0.08895  0.16591  1.0000
  C   C406      1.0  0.67869  0.08812  0.12829  1.0000
  C   C407      1.0  0.69055  0.08017  0.10788  1.0000
  C   C408      1.0  0.70405  0.07318  0.12560  1.0000
  C   C409      1.0  0.70523  0.07370  0.16328  1.0000
  H   H408      1.0  0.67076  0.09499  0.18116  1.0000
  H   H409      1.0  0.66819  0.09357  0.11490  1.0000
  H   H410      1.0  0.71351  0.06729  0.11040  1.0000
  H   H411      1.0  0.71555  0.06805  0.17674  1.0000
  C   C410      1.0  0.61070  0.12484  0.27337  1.0000
  C   C411      1.0  0.59663  0.13434  0.27082  1.0000
  C   C412      1.0  0.57574  0.12294  0.27169  1.0000
  C   C413      1.0  0.56886  0.10196  0.27500  1.0000
  C   C414      1.0  0.58291  0.09244  0.27661  1.0000
  C   C415      1.0  0.60374  0.10382  0.27581  1.0000
  H   H412      1.0  0.60192  0.15059  0.26866  1.0000
  H   H413      1.0  0.56501  0.13039  0.27022  1.0000
  H   H414      1.0  0.57764  0.07619  0.27885  1.0000
  H   H415      1.0  0.61437  0.09630  0.27717  1.0000
  N   N34       1.0  0.67525  0.98972  0.06039  1.0000
  C   C416      1.0  0.66455  0.09450  0.43983  1.0000
  C   C417      1.0  0.68451  0.10827  0.44279  1.0000
  C   C418      1.0  0.48845  0.08060  0.46289  1.0000
  H   H416      1.0  0.69300  0.11394  0.41895  1.0000
  H   H417      1.0  0.49701  0.19828  0.22717  1.0000
  C   C419      1.0  0.54745  0.20927  0.27935  1.0000
  C   C420      1.0  0.53631  0.18962  0.26640  1.0000
  C   C421      1.0  0.51813  0.18566  0.24753  1.0000
  C   C422      1.0  0.51102  0.20129  0.24193  1.0000
  C   C423      1.0  0.68330  0.02553  0.06506  1.0000
  H   H418      1.0  0.51630  0.23277  0.25125  1.0000
  H   H419      1.0  0.54203  0.17766  0.27024  1.0000
  C   C424      1.0  0.72448  0.14895  0.17126  1.0000
  H   H420      1.0  0.54911  0.07697  0.36876  1.0000
  C   C425      1.0  0.49277  0.12637  0.11025  1.0000
  C   C426      1.0  0.74445  0.17812  0.30953  1.0000
  C   C427      1.0  0.76525  0.18911  0.31337  1.0000
  C   C428      1.0  0.77484  0.20546  0.29119  1.0000
  C   C429      1.0  0.76362  0.21075  0.26504  1.0000
  C   C430      1.0  0.74281  0.19975  0.26118  1.0000
  C   C431      1.0  0.73322  0.18342  0.28341  1.0000
  H   H421      1.0  0.77400  0.18489  0.33337  1.0000
  N   N35       1.0  0.85263  0.18875  0.05065  1.0000
  H   H422      1.0  0.73410  0.20384  0.24094  1.0000
  H   H423      1.0  0.71712  0.17511  0.28056  1.0000
  H   H424      1.0  0.73574  0.11437  0.24544  1.0000
  C   C432      1.0  0.56259  0.09054  0.36718  1.0000
  N   N36       1.0  0.51630  0.21484  0.36482  1.0000
  C   C433      1.0  0.67352  0.05242  0.44790  1.0000
  C   C434      1.0  0.65505  0.98640  0.06074  1.0000
  Fe  Fe67      1.0  0.49233  0.11222  0.33066  1.0000
  H   H425      1.0  0.50720  0.23059  0.17381  1.0000
  S   S141      1.0  0.89978  0.22998  0.99790  1.0000
  H   H426      1.0  0.63251  0.00001  0.06285  1.0000
  H   H427      1.0  0.63820  0.07683  0.46905  1.0000
  H   H428      1.0  0.65807  0.03519  0.06694  1.0000
  C   C435      1.0  0.59714  0.12483  0.35992  1.0000
  H   H429      1.0  0.79094  0.21382  0.29406  1.0000
  H   H430      1.0  0.56169  0.21242  0.29340  1.0000
  H   H431      1.0  0.70649  0.06059  0.39157  1.0000
  C   C436      1.0  0.56083  0.10926  0.36343  1.0000
  H   H432      1.0  0.62874  0.11584  0.34425  1.0000
  H   H433      1.0  0.69443  0.04078  0.06691  1.0000
  C   C437      1.0  0.58177  0.08937  0.36727  1.0000
  C   C438      1.0  0.48912  0.17764  0.33982  1.0000
  N   N37       1.0  0.59870  0.10636  0.36318  1.0000
  C   C439      1.0  0.54011  0.22481  0.27435  1.0000
  H   H434      1.0  0.70613  0.08574  0.39762  1.0000
  N   N38       1.0  0.74140  0.14352  0.22384  1.0000
  C   C440      1.0  0.48222  0.19281  0.35019  1.0000
  H   H435      1.0  0.87110  0.17398  0.07268  1.0000
  C   C441      1.0  0.70697  0.07386  0.46462  1.0000
  H   H436      1.0  0.87899  0.18584  0.03030  1.0000
  H   H437      1.0  0.62571  0.10818  0.39037  1.0000
  H   H438      1.0  0.73325  0.13302  0.27605  1.0000
  H   H439      1.0  0.73760  0.17846  0.14832  1.0000
  C   C442      1.0  0.66279  0.02234  0.06512  1.0000
  H   H440      1.0  0.75792  0.13414  0.26320  1.0000
  H   H441      1.0  0.53916  0.20266  0.35673  1.0000
  H   H442      1.0  0.80072  0.19240  0.03065  1.0000
  H   H443      1.0  0.79361  0.22214  0.36491  1.0000
  C   C443      1.0  0.52186  0.22078  0.25567  1.0000
  C   C444      1.0  0.53054  0.23426  0.37890  1.0000
  H   H444      1.0  0.54598  0.11023  0.36212  1.0000
  C   C445      1.0  0.57819  0.12656  0.35995  1.0000
  H   H445      1.0  0.72188  0.08417  0.45744  1.0000
  C   C446      1.0  0.73875  0.16858  0.16931  1.0000
  C   C447      1.0  0.52315  0.19995  0.35522  1.0000
  H   H446      1.0  0.71464  0.12155  0.20075  1.0000
  H   H447      1.0  0.86408  0.22094  0.05490  1.0000
  H   H448      1.0  0.66186  0.04587  0.42748  1.0000
  C   C448      1.0  0.49609  0.21136  0.36307  1.0000
  C   C449      1.0  0.66859  0.04853  0.48380  1.0000
  H   H449      1.0  0.76526  0.19098  0.19414  1.0000
  C   C450      1.0  0.85093  0.20724  0.05019  1.0000
  H   H450      1.0  0.76717  0.16857  0.24266  1.0000
  H   H451      1.0  0.70535  0.01166  0.06197  1.0000
  C   C451      1.0  0.65367  0.08744  0.47108  1.0000
  H   H452      1.0  0.48679  0.08094  0.40509  1.0000
  C   C452      1.0  0.75537  0.16279  0.22226  1.0000
  H   H453      1.0  0.58300  0.07473  0.36967  1.0000
  C   C453      1.0  0.61870  0.10494  0.36317  1.0000
  H   H454      1.0  0.71216  0.14332  0.15174  1.0000
  C   C454      1.0  0.83607  0.17154  0.04389  1.0000
  C   C455      1.0  0.74215  0.13063  0.25356  1.0000
  S   S142      1.0  0.48989  0.08271  0.30459  1.0000
  H   H455      1.0  0.49392  0.13659  0.45962  1.0000
  H   H456      1.0  0.51517  0.16945  0.33450  1.0000
  N   N39       1.0  0.69245  0.06515  0.43878  1.0000
  C   C456      1.0  0.69389  0.11386  0.47668  1.0000
  H   H457      1.0  0.48651  0.06482  0.46371  1.0000
  C   C457      1.0  0.68933  0.00899  0.06252  1.0000
  H   H458      1.0  0.83106  0.22359  0.04257  1.0000
  C   C458      1.0  0.83223  0.20883  0.04327  1.0000
  C   C459      1.0  0.81710  0.17255  0.03715  1.0000
  H   H459      1.0  0.76992  0.20889  0.38666  1.0000
  C   C460      1.0  0.49260  0.12099  0.46037  1.0000
  C   C461      1.0  0.69745  0.06935  0.40114  1.0000
  C   C462      1.0  0.64852  0.00265  0.06285  1.0000
  H   H460      1.0  0.50871  0.13022  0.10516  1.0000
  H   H461      1.0  0.79104  0.22655  0.41150  1.0000
  C   C463      1.0  0.50968  0.18115  0.34256  1.0000
  S   S143      1.0  0.48716  0.12116  0.38757  1.0000
  H   H462      1.0  0.75370  0.22144  0.33841  1.0000
  C   C464      1.0  0.78292  0.22352  0.38522  1.0000
  H   H463      1.0  0.49752  0.13352  0.16641  1.0000
  C   C465      1.0  0.48867  0.08973  0.42958  1.0000
  S   S144      1.0  0.77541  0.23060  0.23621  1.0000
  H   H464      1.0  0.48125  0.07919  0.17312  1.0000
  H   H465      1.0  0.48213  0.07553  0.10738  1.0000
  H   H466      1.0  0.48310  0.11725  0.05571  1.0000
  H   H467      1.0  0.48652  0.23253  0.19917  1.0000
  N   N40       1.0  0.48292  0.23251  0.14236  1.0000
  H   H468      1.0  0.53091  0.23422  0.40853  1.0000
  H   H469      1.0  0.73210  0.21138  0.69329  1.0000
  S   S145      1.0  0.78833  0.21507  0.61472  1.0000
  Fe  Fe68      1.0  0.68610  0.13829  0.66470  1.0000
  S   S146      1.0  0.70393  0.11950  0.64981  1.0000
  S   S147      1.0  0.70271  0.17078  0.68289  1.0000
  Fe  Fe69      1.0  0.64635  0.10322  0.65048  1.0000
  S   S148      1.0  0.66206  0.08212  0.63454  1.0000
  S   S149      1.0  0.61222  0.08900  0.64674  1.0000
  Fe  Fe70      1.0  0.68215  0.09549  0.68279  1.0000
  S   S150      1.0  0.69724  0.08044  0.72089  1.0000
  Fe  Fe71      1.0  0.68212  0.10850  0.60336  1.0000
  S   S151      1.0  0.69679  0.11060  0.54918  1.0000
  S   S152      1.0  0.66526  0.11488  0.70056  1.0000
  S   S153      1.0  0.66538  0.12880  0.61649  1.0000
  H   H470      1.0  0.81662  0.17222  0.94854  1.0000
  S   S154      1.0  0.50806  0.12692  0.59852  1.0000
  H   H471      1.0  0.50212  0.16321  0.67177  1.0000
  H   H472      1.0  0.54271  0.23275  0.61172  1.0000
  S   S155      1.0  0.49545  0.12214  0.68366  1.0000
  H   H473      1.0  0.74733  0.19211  0.53981  1.0000
  H   H474      1.0  0.72477  0.14689  0.71662  1.0000
  Fe  Fe72      1.0  0.51972  0.11860  0.64940  1.0000
  S   S156      1.0  0.55246  0.13556  0.66564  1.0000
  S   S157      1.0  0.50351  0.08517  0.64047  1.0000
  H   H475      1.0  0.81815  0.10517  0.97811  1.0000
  H   H476      1.0  0.71373  0.07809  0.52131  1.0000
  H   H477      1.0  0.54381  0.16397  0.61867  1.0000
  H   H478      1.0  0.87256  0.22769  0.69551  1.0000
  C   C466      1.0  0.49262  0.11194  0.49363  1.0000
  H   H479      1.0  0.67936  0.05556  0.53835  1.0000
  H   H480      1.0  0.65312  0.03098  0.91420  1.0000
  Fe  Fe73      1.0  0.70096  0.06843  0.93267  1.0000
  S   S158      1.0  0.72474  0.05482  0.92835  1.0000
  S   S159      1.0  0.68211  0.07484  0.88817  1.0000
  C   C467      1.0  0.82847  0.21932  0.76514  1.0000
  C   C468      1.0  0.69131  0.13824  0.80370  1.0000
  C   C469      1.0  0.48090  0.19232  0.62857  1.0000
  H   H481      1.0  0.56692  0.08193  0.71188  1.0000
  C   C470      1.0  0.55626  0.19470  0.63881  1.0000
  Fe  Fe74      1.0  0.70810  0.03433  0.97311  1.0000
  H   H482      1.0  0.64624  0.03633  0.87088  1.0000
  H   H483      1.0  0.49076  0.22473  0.63454  1.0000
  C   C471      1.0  0.48423  0.17492  0.63871  1.0000
  C   C472      1.0  0.54367  0.17909  0.61652  1.0000
  H   H484      1.0  0.85792  0.21938  0.75381  1.0000
  H   H485      1.0  0.67810  0.14232  0.80534  1.0000
  H   H486      1.0  0.71320  0.01157  0.83441  1.0000
  H   H487      1.0  0.56594  0.19133  0.65827  1.0000
  C   C473      1.0  0.82318  0.21846  0.69159  1.0000
  C   C474      1.0  0.69307  0.07927  0.76741  1.0000
  C   C475      1.0  0.70658  0.07476  0.79033  1.0000
  C   C476      1.0  0.70367  0.07363  0.82750  1.0000
  C   C477      1.0  0.68693  0.07657  0.84191  1.0000
  C   C478      1.0  0.67335  0.08089  0.81895  1.0000
  C   C479      1.0  0.67651  0.08246  0.78193  1.0000
  H   H488      1.0  0.71943  0.07225  0.77927  1.0000
  H   H489      1.0  0.71424  0.07031  0.84493  1.0000
  H   H490      1.0  0.66035  0.08316  0.82988  1.0000
  H   H491      1.0  0.66594  0.08580  0.76457  1.0000
  C   C480      1.0  0.85755  0.21950  0.68251  1.0000
  H   H492      1.0  0.75911  0.22766  0.56095  1.0000
  H   H493      1.0  0.67268  0.00801  0.91988  1.0000
  H   H494      1.0  0.65460  0.08737  0.52888  1.0000
  C   C481      1.0  0.70730  0.18939  0.58894  1.0000
  C   C482      1.0  0.59660  0.10322  0.64884  1.0000
  C   C483      1.0  0.57639  0.09412  0.63716  1.0000
  C   C484      1.0  0.56298  0.10431  0.64077  1.0000
  C   C485      1.0  0.56962  0.12357  0.65667  1.0000
  C   C486      1.0  0.58993  0.13286  0.66781  1.0000
  C   C487      1.0  0.60345  0.12275  0.66375  1.0000
  H   H495      1.0  0.57104  0.07905  0.62547  1.0000
  H   H496      1.0  0.54744  0.09707  0.63185  1.0000
  H   H497      1.0  0.59516  0.14775  0.68020  1.0000
  H   H498      1.0  0.61900  0.12983  0.67295  1.0000
  C   C488      1.0  0.50822  0.21274  0.66827  1.0000
  C   C489      1.0  0.51123  0.19532  0.67891  1.0000
  C   C490      1.0  0.49938  0.17648  0.66394  1.0000
  H   H499      1.0  0.85735  0.22792  0.65778  1.0000
  H   H500      1.0  0.51995  0.20558  0.57219  1.0000
  C   C491      1.0  0.69396  0.00860  0.87953  1.0000
  H   H501      1.0  0.52303  0.19640  0.69824  1.0000
  C   C492      1.0  0.49300  0.21129  0.64318  1.0000
  C   C493      1.0  0.71278  0.16215  0.55542  1.0000
  C   C494      1.0  0.67736  0.01229  0.89278  1.0000
  H   H502      1.0  0.70424  0.21399  0.61939  1.0000
  H   H503      1.0  0.69435  0.02748  0.79658  1.0000
  C   C495      1.0  0.74426  0.21714  0.56815  1.0000
  C   C496      1.0  0.76551  0.20311  0.63682  1.0000
  C   C497      1.0  0.75464  0.18270  0.62880  1.0000
  C   C498      1.0  0.73558  0.17278  0.64320  1.0000
  C   C499      1.0  0.72730  0.18296  0.66648  1.0000
  C   C500      1.0  0.73844  0.20331  0.67546  1.0000
  C   C501      1.0  0.75750  0.21346  0.66043  1.0000
  H   H504      1.0  0.76071  0.17466  0.61040  1.0000
  H   H505      1.0  0.72711  0.15745  0.63512  1.0000
  C   C502      1.0  0.54346  0.21782  0.61258  1.0000
  S   S160      1.0  0.89724  0.22833  0.91058  1.0000
  Fe  Fe75      1.0  0.74191  0.07837  0.97084  1.0000
  S   S161      1.0  0.86012  0.17654  0.96069  1.0000
  C   C503      1.0  0.81700  0.15762  0.95495  1.0000
  C   C504      1.0  0.67300  0.02635  0.83763  1.0000
  C   C505      1.0  0.70018  0.01412  0.84480  1.0000
  H   H506      1.0  0.72582  0.15747  0.55078  1.0000
  H   H507      1.0  0.63641  0.01051  0.88607  1.0000
  H   H508      1.0  0.68946  0.12789  0.85795  1.0000
  S   S162      1.0  0.69981  0.99936  0.97305  1.0000
  C   C506      1.0  0.79868  0.12123  0.96581  1.0000
  C   C507      1.0  0.69773  0.13028  0.83321  1.0000
  C   C508      1.0  0.70188  0.14065  0.77180  1.0000
  C   C509      1.0  0.56873  0.22960  0.66150  1.0000
  C   C510      1.0  0.68328  0.10617  0.50790  1.0000
  N   N41       1.0  0.51642  0.06567  0.72465  1.0000
  C   C511      1.0  0.51493  0.08348  0.73541  1.0000
  C   C512      1.0  0.53478  0.06503  0.71591  1.0000
  C   C513      1.0  0.53217  0.10116  0.73850  1.0000
  C   C514      1.0  0.55237  0.08237  0.71921  1.0000
  C   C515      1.0  0.55101  0.10050  0.73069  1.0000
  H   H509      1.0  0.50135  0.03348  0.72202  1.0000
  H   H510      1.0  0.70356  0.15190  0.57602  1.0000
  H   H511      1.0  0.53592  0.05112  0.70606  1.0000
  H   H512      1.0  0.53091  0.11538  0.74613  1.0000
  N   N42       1.0  0.71832  0.13516  0.76936  1.0000
  C   C516      1.0  0.66292  0.09342  0.50503  1.0000
  C   C517      1.0  0.80747  0.21844  0.71360  1.0000
  H   H513      1.0  0.83097  0.22017  0.79390  1.0000
  C   C518      1.0  0.81028  0.21918  0.75061  1.0000
  N   N43       1.0  0.84118  0.21921  0.70605  1.0000
  C   C519      1.0  0.83586  0.15581  0.96106  1.0000
  H   H514      1.0  0.70203  0.00164  0.89629  1.0000
  C   C520      1.0  0.83576  0.13662  0.96933  1.0000
  Fe  Fe76      1.0  0.87715  0.21120  0.95544  1.0000
  H   H515      1.0  0.49835  0.22289  0.75247  1.0000
  H   H516      1.0  0.56249  0.22653  0.68878  1.0000
  C   C521      1.0  0.79854  0.14045  0.95737  1.0000
  H   H517      1.0  0.72509  0.12196  0.72277  1.0000
  N   N44       1.0  0.66730  0.02132  0.87203  1.0000
  C   C522      1.0  0.49804  0.04750  0.72049  1.0000
  H   H518      1.0  0.66502  0.03347  0.82106  1.0000
  H   H519      1.0  0.79844  0.21979  0.76797  1.0000
  H   H520      1.0  0.70356  0.15967  0.53040  1.0000
  N   N45       1.0  0.55607  0.21378  0.63658  1.0000
  H   H521      1.0  0.50033  0.08413  0.74128  1.0000
  C   C523      1.0  0.72895  0.13713  0.73557  1.0000
  S   S163      1.0  0.77625  0.09862  0.97000  1.0000
  Fe  Fe77      1.0  0.48237  0.12749  0.63157  1.0000
  C   C524      1.0  0.84374  0.21902  0.74231  1.0000
  H   H522      1.0  0.82100  0.21822  0.66284  1.0000
  H   H523      1.0  0.52027  0.17090  0.57564  1.0000
  C   C525      1.0  0.72455  0.12710  0.79802  1.0000
  N   N46       1.0  0.71944  0.18332  0.56739  1.0000
  C   C526      1.0  0.64982  0.02483  0.88642  1.0000
  H   H524      1.0  0.84997  0.13474  0.97407  1.0000
  H   H525      1.0  0.69306  0.17854  0.59804  1.0000
  C   C527      1.0  0.68319  0.05769  0.51035  1.0000
  H   H526      1.0  0.71928  0.11808  0.85305  1.0000
  C   C528      1.0  0.68960  0.02298  0.82358  1.0000
  C   C529      1.0  0.73218  0.22338  0.59069  1.0000
  C   C530      1.0  0.71453  0.12478  0.83048  1.0000
  C   C531      1.0  0.81756  0.11970  0.97168  1.0000
  H   H527      1.0  0.56445  0.11421  0.73228  1.0000
  H   H528      1.0  0.73711  0.12206  0.79570  1.0000
  C   C532      1.0  0.53049  0.20250  0.59016  1.0000
  H   H529      1.0  0.76574  0.22931  0.66651  1.0000
  C   C533      1.0  0.53061  0.18302  0.59224  1.0000
  C   C534      1.0  0.71353  0.20947  0.60106  1.0000
  H   H530      1.0  0.85602  0.20385  0.67527  1.0000
  S   S164      1.0  0.71853  0.09260  0.97267  1.0000
  C   C535      1.0  0.49008  0.09153  0.49513  1.0000
  S   S165      1.0  0.68371  0.04704  0.97493  1.0000
  H   H531      1.0  0.69676  0.14682  0.74895  1.0000
  C   C536      1.0  0.73756  0.19694  0.55649  1.0000
  H   H532      1.0  0.78421  0.14207  0.95265  1.0000
  H   H533      1.0  0.74556  0.14401  0.74018  1.0000
  C   C537      1.0  0.70254  0.07034  0.50076  1.0000
  H   H534      1.0  0.79339  0.21827  0.70189  1.0000
  Fe  Fe78      1.0  0.49004  0.09395  0.59134  1.0000
  H   H535      1.0  0.49404  0.12059  0.51809  1.0000
  S   S166      1.0  0.85914  0.23096  0.95571  1.0000
  H   H536      1.0  0.58453  0.23018  0.66186  1.0000
  C   C538      1.0  0.48450  0.22576  0.75566  1.0000
  H   H537      1.0  0.65491  0.98609  0.97730  1.0000
  S   S167      1.0  0.48695  0.07870  0.53639  1.0000
  H   H538      1.0  0.49050  0.04768  0.69436  1.0000
  H   H539      1.0  0.48716  0.04690  0.74193  1.0000
  H   H540      1.0  0.65335  0.03910  0.49101  1.0000
  H   H541      1.0  0.48044  0.21634  0.81012  1.0000
  Fe  Fe79      1.0  0.85462  0.46859  0.32383  1.0000
  S   S168      1.0  0.83842  0.43536  0.31533  1.0000
  H   H542      1.0  0.82154  0.34564  0.20000  1.0000
  H   H543      1.0  0.63034  0.34883  0.35849  1.0000
  S   S169      1.0  0.84625  0.44276  0.22870  1.0000
  Fe  Fe80      1.0  0.82325  0.44370  0.26861  1.0000
  S   S170      1.0  0.78972  0.42746  0.25848  1.0000
  Fe  Fe81      1.0  0.86296  0.43774  0.27687  1.0000
  S   S171      1.0  0.87850  0.41535  0.28110  1.0000
  H   H544      1.0  0.83907  0.26343  0.09362  1.0000
  Fe  Fe82      1.0  0.85030  0.27328  0.24532  1.0000
  S   S172      1.0  0.82323  0.27880  0.22426  1.0000
  S   S173      1.0  0.87612  0.27432  0.20899  1.0000
  Fe  Fe83      1.0  0.83409  0.26661  0.32200  1.0000
  S   S174      1.0  0.80605  0.27169  0.30541  1.0000
  S   S175      1.0  0.83389  0.25396  0.37779  1.0000
  Fe  Fe84      1.0  0.80528  0.25261  0.25736  1.0000
  Fe  Fe85      1.0  0.82650  0.29756  0.27418  1.0000
  S   S176      1.0  0.81743  0.32465  0.27124  1.0000
  C   C539      1.0  0.49908  0.26199  0.48141  1.0000
  S   S177      1.0  0.85504  0.29410  0.29379  1.0000
  Fe  Fe86      1.0  0.69970  0.45285  0.32410  1.0000
  H   H545      1.0  0.76603  0.47908  0.39065  1.0000
  Fe  Fe87      1.0  0.65956  0.41900  0.30500  1.0000
  S   S178      1.0  0.64224  0.43892  0.31572  1.0000
  S   S179      1.0  0.64349  0.38649  0.28640  1.0000
  H   H546      1.0  0.79468  0.41759  0.34343  1.0000
  Fe  Fe88      1.0  0.66208  0.44889  0.36547  1.0000
  H   H547      1.0  0.83288  0.35638  0.15831  1.0000
  S   S180      1.0  0.68322  0.44176  0.27200  1.0000
  S   S181      1.0  0.67825  0.42769  0.35568  1.0000
  Fe  Fe89      1.0  0.53262  0.30948  0.30501  1.0000
  S   S182      1.0  0.49935  0.29661  0.31787  1.0000
  S   S183      1.0  0.54903  0.34347  0.30861  1.0000
  Fe  Fe90      1.0  0.53477  0.26817  0.29671  1.0000
  S   S184      1.0  0.55369  0.24908  0.29215  1.0000
  S   S185      1.0  0.86608  0.26095  0.03993  1.0000
  Fe  Fe91      1.0  0.50776  0.27547  0.35340  1.0000
  H   H548      1.0  0.83968  0.37088  0.19964  1.0000
  S   S186      1.0  0.52974  0.28922  0.25677  1.0000
  S   S187      1.0  0.54092  0.28977  0.34332  1.0000
  C   C540      1.0  0.76113  0.23638  0.35024  1.0000
  C   C541      1.0  0.83676  0.26455  0.48519  1.0000
  Fe  Fe92      1.0  0.86203  0.47584  0.24205  1.0000
  H   H549      1.0  0.90132  0.44975  0.46604  1.0000
  C   C542      1.0  0.66230  0.45426  0.46130  1.0000
  C   C543      1.0  0.49569  0.23767  0.17485  1.0000
  H   H550      1.0  0.89360  0.32594  0.20810  1.0000
  H   H551      1.0  0.50263  0.25745  0.11342  1.0000
  C   C544      1.0  0.61729  0.37440  0.29343  1.0000
  C   C545      1.0  0.60738  0.35406  0.28292  1.0000
  C   C546      1.0  0.58646  0.34418  0.28792  1.0000
  C   C547      1.0  0.57532  0.35474  0.30295  1.0000
  C   C548      1.0  0.58523  0.37501  0.31351  1.0000
  C   C549      1.0  0.60613  0.38474  0.30906  1.0000
  H   H552      1.0  0.61590  0.34590  0.27089  1.0000
  H   H553      1.0  0.57892  0.32852  0.27966  1.0000
  H   H554      1.0  0.57670  0.38324  0.32525  1.0000
  H   H555      1.0  0.61349  0.40024  0.31768  1.0000
  C   C550      1.0  0.87267  0.26894  0.16234  1.0000
  C   C551      1.0  0.88866  0.26738  0.14238  1.0000
  C   C552      1.0  0.88675  0.26421  0.10498  1.0000
  C   C553      1.0  0.86894  0.26302  0.08714  1.0000
  C   C554      1.0  0.85291  0.26435  0.10715  1.0000
  C   C555      1.0  0.85465  0.26704  0.14453  1.0000
  H   H556      1.0  0.90266  0.26883  0.15590  1.0000
  H   H557      1.0  0.48163  0.24858  0.05799  1.0000
  H   H558      1.0  0.84213  0.26797  0.15941  1.0000
  C   C556      1.0  0.77391  0.43926  0.27566  1.0000
  C   C557      1.0  0.75283  0.42942  0.27301  1.0000
  C   C558      1.0  0.74006  0.43798  0.28914  1.0000
  C   C559      1.0  0.74845  0.45643  0.30776  1.0000
  C   C560      1.0  0.76943  0.46655  0.30932  1.0000
  C   C561      1.0  0.78210  0.45792  0.29356  1.0000
  H   H559      1.0  0.74639  0.41495  0.25919  1.0000
  H   H560      1.0  0.72384  0.43008  0.28788  1.0000
  C   C562      1.0  0.68310  0.47487  0.18583  1.0000
  H   H561      1.0  0.79820  0.46553  0.29616  1.0000
  C   C563      1.0  0.86143  0.39013  0.28181  1.0000
  C   C564      1.0  0.84083  0.38552  0.27548  1.0000
  C   C565      1.0  0.82744  0.36533  0.27383  1.0000
  C   C566      1.0  0.83456  0.34960  0.27815  1.0000
  C   C567      1.0  0.85510  0.35415  0.28546  1.0000
  C   C568      1.0  0.86854  0.37444  0.28736  1.0000
  H   H562      1.0  0.83520  0.39749  0.27108  1.0000
  H   H563      1.0  0.81154  0.36188  0.26825  1.0000
  H   H564      1.0  0.86067  0.34207  0.28891  1.0000
  H   H565      1.0  0.88448  0.37796  0.29243  1.0000
  C   C569      1.0  0.83373  0.25518  0.45108  1.0000
  C   C570      1.0  0.83809  0.26671  0.41995  1.0000
  C   C571      1.0  0.84531  0.28778  0.42324  1.0000
  C   C572      1.0  0.89938  0.46522  0.38218  1.0000
  H   H566      1.0  0.84873  0.29685  0.39953  1.0000
  H   H567      1.0  0.62596  0.40184  0.40754  1.0000
  C   C573      1.0  0.85354  0.45090  0.42348  1.0000
  H   H568      1.0  0.85250  0.44198  0.39942  1.0000
  H   H569      1.0  0.64654  0.38470  0.37839  1.0000
  C   C574      1.0  0.89998  0.44915  0.43709  1.0000
  H   H570      1.0  0.85477  0.31348  0.45972  1.0000
  H   H571      1.0  0.64366  0.42092  0.17791  1.0000
  H   H572      1.0  0.97485  0.28963  0.00423  1.0000
  H   H573      1.0  0.81785  0.44926  0.37353  1.0000
  S   S188      1.0  0.68468  0.47481  0.33646  1.0000
  C   C575      1.0  0.48895  0.24400  0.11263  1.0000
  H   H574      1.0  0.89023  0.41543  0.36741  1.0000
  C   C576      1.0  0.80161  0.44505  0.37476  1.0000
  N   N47       1.0  0.62186  0.41411  0.21858  1.0000
  C   C577      1.0  0.61090  0.39381  0.21590  1.0000
  C   C578      1.0  0.61307  0.42709  0.23057  1.0000
  C   C579      1.0  0.59058  0.38596  0.22550  1.0000
  C   C580      1.0  0.59284  0.41972  0.24082  1.0000
  C   C581      1.0  0.58156  0.39901  0.23825  1.0000
  C   C582      1.0  0.64296  0.42189  0.20744  1.0000
  H   H575      1.0  0.61802  0.38350  0.20712  1.0000
  H   H576      1.0  0.62175  0.44324  0.23259  1.0000
  H   H577      1.0  0.58207  0.36978  0.22423  1.0000
  H   H578      1.0  0.58602  0.43001  0.25087  1.0000
  H   H579      1.0  0.56596  0.39298  0.24670  1.0000
  H   H580      1.0  0.65124  0.41299  0.21971  1.0000
  C   C583      1.0  0.85477  0.44276  0.45717  1.0000
  H   H581      1.0  0.65090  0.43794  0.21588  1.0000
  Fe  Fe93      1.0  0.66691  0.46228  0.28544  1.0000
  H   H582      1.0  0.85971  0.30380  0.18599  1.0000
  C   C584      1.0  0.50268  0.27367  0.45040  1.0000
  C   C585      1.0  0.78576  0.25886  0.38996  1.0000
  C   C586      1.0  0.89360  0.42965  0.38196  1.0000
  H   H583      1.0  0.50345  0.25431  0.17825  1.0000
  C   C587      1.0  0.76504  0.27148  0.35336  1.0000
  S   S189      1.0  0.83198  0.24548  0.27524  1.0000
  H   H584      1.0  0.58928  0.38303  0.41572  1.0000
  H   H585      1.0  0.89421  0.41717  0.43387  1.0000
  C   C588      1.0  0.59828  0.37539  0.40357  1.0000
  H   H586      1.0  0.83274  0.31759  0.17795  1.0000
  H   H587      1.0  0.87393  0.37617  0.20954  1.0000
  H   H588      1.0  0.55908  0.35449  0.38890  1.0000
  Fe  Fe94      1.0  0.49698  0.27508  0.27151  1.0000
  H   H589      1.0  0.90085  0.36261  0.21974  1.0000
  C   C589      1.0  0.76778  0.42224  0.35945  1.0000
  C   C590      1.0  0.76497  0.46690  0.40966  1.0000
  C   C591      1.0  0.83897  0.47814  0.08056  1.0000
  C   C592      1.0  0.47995  0.28746  0.13383  1.0000
  C   C593      1.0  0.63060  0.37644  0.38300  1.0000
  H   H590      1.0  0.89395  0.44635  0.33454  1.0000
  C   C594      1.0  0.78863  0.42722  0.35820  1.0000
  S   S190      1.0  0.88050  0.47088  0.28795  1.0000
  C   C595      1.0  0.76020  0.43529  0.37708  1.0000
  H   H591      1.0  0.80383  0.47184  0.40407  1.0000
  C   C596      1.0  0.85611  0.48221  0.45265  1.0000
  H   H592      1.0  0.78832  0.29000  0.39015  1.0000
  C   C597      1.0  0.84453  0.28562  0.48856  1.0000
  C   C598      1.0  0.89556  0.44705  0.36338  1.0000
  H   H593      1.0  0.49137  0.30011  0.12137  1.0000
  N   N48       1.0  0.77616  0.23989  0.37552  1.0000
  N   N49       1.0  0.85178  0.34765  0.19320  1.0000
  C   C599      1.0  0.87073  0.36026  0.20416  1.0000
  C   C600      1.0  0.84777  0.32761  0.18656  1.0000
  C   C601      1.0  0.88605  0.35269  0.20997  1.0000
  C   C602      1.0  0.86286  0.31967  0.19133  1.0000
  C   C603      1.0  0.88202  0.33222  0.20354  1.0000
  C   C604      1.0  0.83573  0.35558  0.18734  1.0000
  C   C605      1.0  0.85489  0.47093  0.42101  1.0000
  H   H594      1.0  0.79809  0.26179  0.40918  1.0000
  C   C606      1.0  0.83467  0.48028  0.11628  1.0000
  H   H595      1.0  0.88851  0.47118  0.09200  1.0000
  N   N50       1.0  0.77305  0.45275  0.39323  1.0000
  C   C607      1.0  0.78027  0.27489  0.37932  1.0000
  C   C608      1.0  0.84870  0.29717  0.45741  1.0000
  S   S191      1.0  0.50210  0.25270  0.30840  1.0000
  C   C609      1.0  0.62150  0.35627  0.37191  1.0000
  H   H596      1.0  0.89926  0.26335  0.08992  1.0000
  H   H597      1.0  0.52592  0.24679  0.37037  1.0000
  C   C610      1.0  0.60077  0.34604  0.37675  1.0000
  Fe  Fe95      1.0  0.88196  0.25033  0.99606  1.0000
  H   H598      1.0  0.51210  0.30389  0.43066  1.0000
  N   N51       1.0  0.90135  0.46604  0.41862  1.0000
  C   C611      1.0  0.79354  0.45777  0.39208  1.0000
  H   H599      1.0  0.68557  0.46361  0.20218  1.0000
  H   H600      1.0  0.74400  0.43175  0.37652  1.0000
  S   S192      1.0  0.73344  0.46676  0.33152  1.0000
  N   N52       1.0  0.58940  0.35571  0.39203  1.0000
  H   H601      1.0  0.83314  0.46829  0.13494  1.0000
  C   C612      1.0  0.61899  0.38608  0.39912  1.0000
  H   H602      1.0  0.85464  0.42757  0.45870  1.0000
  S   S193      1.0  0.49774  0.26125  0.40773  1.0000
  S   S194      1.0  0.64804  0.44560  0.42084  1.0000
  H   H603      1.0  0.84082  0.46447  0.07119  1.0000
  C   C613      1.0  0.50945  0.29471  0.45417  1.0000
  S   S195      1.0  0.83787  0.47699  0.27929  1.0000
  H   H604      1.0  0.76114  0.28392  0.34391  1.0000
  H   H605      1.0  0.56456  0.34049  0.42516  1.0000
  H   H606      1.0  0.74391  0.24932  0.31780  1.0000
  H   H607      1.0  0.49569  0.29298  0.18514  1.0000
  H   H608      1.0  0.74879  0.45928  0.41649  1.0000
  H   H609      1.0  0.56161  0.33108  0.37963  1.0000
  H   H610      1.0  0.87925  0.47069  0.15590  1.0000
  C   C614      1.0  0.48246  0.28345  0.17001  1.0000
  H   H611      1.0  0.75762  0.40881  0.34548  1.0000
  C   C615      1.0  0.75539  0.25210  0.33869  1.0000
  C   C616      1.0  0.89586  0.43065  0.41909  1.0000
  H   H612      1.0  0.60925  0.44082  0.47042  1.0000
  S   S196      1.0  0.85710  0.48312  0.37933  1.0000
  H   H613      1.0  0.59372  0.33050  0.36723  1.0000
  C   C617      1.0  0.56766  0.34491  0.39688  1.0000
  H   H614      1.0  0.77346  0.47369  0.43470  1.0000
  C   C618      1.0  0.85706  0.47397  0.48635  1.0000
  C   C619      1.0  0.67704  0.47373  0.46463  1.0000
  H   H615      1.0  0.49372  0.24571  0.47885  1.0000
  H   H616      1.0  0.90034  0.47857  0.36751  1.0000
  H   H617      1.0  0.70125  0.47098  0.14275  1.0000
  H   H618      1.0  0.77599  0.48087  0.32356  1.0000
  C   C620      1.0  0.85701  0.45438  0.48874  1.0000
  S   S197      1.0  0.66038  0.48118  0.24161  1.0000
  C   C621      1.0  0.69204  0.47912  0.15201  1.0000
  H   H619      1.0  0.74242  0.47584  0.24428  1.0000
  H   H620      1.0  0.82819  0.23887  0.44884  1.0000
  H   H621      1.0  0.54599  0.23769  0.36857  1.0000
  H   H622      1.0  0.68132  0.48310  0.44137  1.0000
  C   C622      1.0  0.88708  0.48442  0.10416  1.0000
  C   C623      1.0  0.88185  0.48410  0.14043  1.0000
  H   H623      1.0  0.89926  0.48277  0.46510  1.0000
  C   C624      1.0  0.51204  0.30385  0.48851  1.0000
  H   H624      1.0  0.64546  0.42736  0.48989  1.0000
  Fe  Fe96      1.0  0.84243  0.42814  0.65447  1.0000
  S   S198      1.0  0.87074  0.45201  0.63527  1.0000
  S   S199      1.0  0.84974  0.40449  0.68470  1.0000
  Fe  Fe97      1.0  0.81657  0.45051  0.62632  1.0000
  S   S200      1.0  0.78728  0.45316  0.60932  1.0000
  Fe  Fe98      1.0  0.85312  0.45171  0.58470  1.0000
  H   H625      1.0  0.56323  0.36323  0.75083  1.0000
  C   C625      1.0  0.83899  0.38774  0.55906  1.0000
  S   S201      1.0  0.82564  0.42614  0.60262  1.0000
  S   S202      1.0  0.83022  0.44975  0.68060  1.0000
  Fe  Fe99      1.0  0.81436  0.29124  0.64358  1.0000
  S   S203      1.0  0.84764  0.30209  0.63394  1.0000
  S   S204      1.0  0.79765  0.31231  0.65118  1.0000
  Fe  Fe100     1.0  0.67413  0.47589  0.70673  1.0000
  Fe  Fe101     1.0  0.84629  0.27400  0.66284  1.0000
  S   S205      1.0  0.87016  0.26995  0.70011  1.0000
  Fe  Fe102     1.0  0.83843  0.28277  0.58370  1.0000
  S   S206      1.0  0.84981  0.29812  0.53099  1.0000
  S   S207      1.0  0.81348  0.26467  0.67658  1.0000
  S   S208      1.0  0.80523  0.27323  0.59241  1.0000
  S   S209      1.0  0.49106  0.26751  0.64914  1.0000
  S   S210      1.0  0.66277  0.44303  0.71974  1.0000
  Fe  Fe103     1.0  0.67932  0.46702  0.62594  1.0000
  S   S211      1.0  0.66942  0.43375  0.63455  1.0000
  C   C626      1.0  0.66888  0.47801  0.80904  1.0000
  Fe  Fe104     1.0  0.64511  0.43797  0.66770  1.0000
  S   S212      1.0  0.61216  0.42023  0.65408  1.0000
  Fe  Fe105     1.0  0.68820  0.44239  0.68538  1.0000
  S   S213      1.0  0.71140  0.43115  0.70830  1.0000
  C   C627      1.0  0.87448  0.45308  0.83766  1.0000
  Fe  Fe106     1.0  0.51267  0.29362  0.61859  1.0000
  S   S214      1.0  0.54060  0.28841  0.63676  1.0000
  H   H626      1.0  0.71495  0.47490  0.91741  1.0000
  C   C628      1.0  0.48367  0.27727  0.79571  1.0000
  S   S215      1.0  0.52279  0.28453  0.71792  1.0000
  Fe  Fe107     1.0  0.54155  0.30928  0.68258  1.0000
  S   S216      1.0  0.57085  0.33053  0.70765  1.0000
  Fe  Fe108     1.0  0.51936  0.26420  0.67037  1.0000
  C   C629      1.0  0.82864  0.36685  0.55508  1.0000
  S   S217      1.0  0.51493  0.31618  0.66326  1.0000
  S   S218      1.0  0.90123  0.27027  0.95395  1.0000
  H   H627      1.0  0.86344  0.41129  0.58641  1.0000
  H   H628      1.0  0.66106  0.46546  0.79104  1.0000
  C   C630      1.0  0.58279  0.35485  0.69027  1.0000
  C   C631      1.0  0.60189  0.36720  0.70391  1.0000
  C   C632      1.0  0.61125  0.38715  0.69239  1.0000
  C   C633      1.0  0.60136  0.39495  0.66760  1.0000
  C   C634      1.0  0.58224  0.38259  0.65394  1.0000
  C   C635      1.0  0.57304  0.36252  0.66499  1.0000
  H   H629      1.0  0.60948  0.36134  0.72353  1.0000
  H   H630      1.0  0.62598  0.39656  0.70305  1.0000
  H   H631      1.0  0.57454  0.38855  0.63471  1.0000
  H   H632      1.0  0.55831  0.35309  0.65435  1.0000
  H   H633      1.0  0.89391  0.25811  0.75115  1.0000
  C   C636      1.0  0.65680  0.44246  0.49205  1.0000
  C   C637      1.0  0.86571  0.43839  0.77840  1.0000
  H   H634      1.0  0.54742  0.37965  0.70886  1.0000
  C   C638      1.0  0.85555  0.39511  0.58260  1.0000
  H   H635      1.0  0.49689  0.27772  0.78142  1.0000
  H   H636      1.0  0.49891  0.26196  0.53930  1.0000
  C   C639      1.0  0.86838  0.26738  0.74715  1.0000
  H   H637      1.0  0.65922  0.46053  0.85661  1.0000
  S   S219      1.0  0.95337  0.26310  0.94239  1.0000
  C   C640      1.0  0.51480  0.33233  0.75957  1.0000
  H   H638      1.0  0.82742  0.32321  0.59035  1.0000
  C   C641      1.0  0.51711  0.35856  0.71787  1.0000
  C   C642      1.0  0.66534  0.45027  0.52589  1.0000
  C   C643      1.0  0.89107  0.46847  0.82374  1.0000
  H   H639      1.0  0.66064  0.44114  0.54936  1.0000
  S   S220      1.0  0.52479  0.23613  0.68513  1.0000
  H   H640      1.0  0.94410  0.32627  0.95435  1.0000
  C   C644      1.0  0.76595  0.44505  0.63642  1.0000
  C   C645      1.0  0.76670  0.43810  0.67096  1.0000
  C   C646      1.0  0.74970  0.43334  0.69277  1.0000
  C   C647      1.0  0.73204  0.43561  0.68010  1.0000
  C   C648      1.0  0.73126  0.44225  0.64540  1.0000
  C   C649      1.0  0.74815  0.44688  0.62361  1.0000
  H   H641      1.0  0.78037  0.43654  0.68090  1.0000
  H   H642      1.0  0.75028  0.42807  0.71956  1.0000
  H   H643      1.0  0.71767  0.44393  0.63537  1.0000
  S   S221      1.0  0.86295  0.44514  0.52949  1.0000
  S   S222      1.0  0.84347  0.47622  0.60657  1.0000
  C   C650      1.0  0.85119  0.36079  0.59650  1.0000
  H   H644      1.0  0.95727  0.30375  0.92106  1.0000
  C   C651      1.0  0.83518  0.37898  0.67476  1.0000
  C   C652      1.0  0.81673  0.37337  0.65607  1.0000
  C   C653      1.0  0.80524  0.35284  0.64916  1.0000
  C   C654      1.0  0.81241  0.33790  0.66000  1.0000
  C   C655      1.0  0.83110  0.34355  0.67788  1.0000
  C   C656      1.0  0.84233  0.36403  0.68566  1.0000
  H   H645      1.0  0.81108  0.38480  0.64770  1.0000
  H   H646      1.0  0.79074  0.34852  0.63546  1.0000
  H   H647      1.0  0.83664  0.33209  0.68659  1.0000
  H   H648      1.0  0.85659  0.36830  0.70014  1.0000
  S   S223      1.0  0.84050  0.25578  0.61137  1.0000
  C   C657      1.0  0.54492  0.32996  0.78829  1.0000
  C   C658      1.0  0.86625  0.26245  0.82222  1.0000
  H   H649      1.0  0.50563  0.31867  0.77288  1.0000
  H   H650      1.0  0.74750  0.45221  0.59687  1.0000
  H   H651      1.0  0.51006  0.36536  0.69881  1.0000
  H   H652      1.0  0.84868  0.42592  0.82542  1.0000
  C   C659      1.0  0.50830  0.29217  0.51953  1.0000
  Fe  Fe109     1.0  0.80777  0.24786  0.62404  1.0000
  H   H653      1.0  0.53532  0.32326  0.81146  1.0000
  H   H654      1.0  0.55983  0.34048  0.79879  1.0000
  C   C660      1.0  0.88097  0.25822  0.80298  1.0000
  H   H655      1.0  0.84259  0.27597  0.75236  1.0000
  C   C661      1.0  0.50203  0.27116  0.51577  1.0000
  C   C662      1.0  0.94034  0.28039  0.86379  1.0000
  C   C663      1.0  0.50538  0.34136  0.73611  1.0000
  H   H656      1.0  0.90054  0.48082  0.84100  1.0000
  C   C664      1.0  0.85334  0.27107  0.76626  1.0000
  N   N53       1.0  0.83470  0.35370  0.57391  1.0000
  C   C665      1.0  0.89444  0.46870  0.78702  1.0000
  C   C666      1.0  0.85245  0.26884  0.80360  1.0000
  C   C667      1.0  0.61216  0.44350  0.49892  1.0000
  H   H657      1.0  0.60328  0.41918  0.57807  1.0000
  C   C668      1.0  0.88474  0.45455  0.72631  1.0000
  N   N54       1.0  0.88184  0.45374  0.76494  1.0000
  C   C669      1.0  0.88224  0.26104  0.76574  1.0000
  H   H658      1.0  0.83415  0.39823  0.54430  1.0000
  H   H659      1.0  0.69900  0.46033  0.79564  1.0000
  H   H660      1.0  0.90687  0.28719  0.84879  1.0000
  H   H661      1.0  0.81564  0.36121  0.53704  1.0000
  C   C670      1.0  0.60449  0.42772  0.52279  1.0000
  H   H662      1.0  0.88505  0.44000  0.71585  1.0000
  C   C671      1.0  0.82376  0.33190  0.56879  1.0000
  H   H663      1.0  0.85599  0.35037  0.61149  1.0000
  H   H664      1.0  0.63087  0.47472  0.49301  1.0000
  H   H665      1.0  0.80717  0.32809  0.56972  1.0000
  H   H666      1.0  0.91159  0.32895  0.93484  1.0000
  Fe  Fe110     1.0  0.49595  0.28954  0.69551  1.0000
  H   H667      1.0  0.87427  0.38718  0.62051  1.0000
  N   N55       1.0  0.53529  0.34035  0.76510  1.0000
  C   C672      1.0  0.91784  0.31959  0.91979  1.0000
  C   C673      1.0  0.54690  0.35724  0.74741  1.0000
  C   C674      1.0  0.86176  0.43784  0.81495  1.0000
  C   C675      1.0  0.67951  0.47005  0.52939  1.0000
  C   C676      1.0  0.72044  0.48285  0.89287  1.0000
  S   S224      1.0  0.70017  0.47540  0.67423  1.0000
  S   S225      1.0  0.68909  0.48150  0.57178  1.0000
  H   H668      1.0  0.95664  0.28383  0.86960  1.0000
  H   H669      1.0  0.82781  0.32669  0.54295  1.0000
  H   H670      1.0  0.87203  0.45738  0.71315  1.0000
  H   H671      1.0  0.48914  0.33463  0.73132  1.0000
  H   H672      1.0  0.49300  0.26721  0.84457  1.0000
  S   S226      1.0  0.86489  0.26102  0.86950  1.0000
  H   H673      1.0  0.84103  0.27219  0.81821  1.0000
  S   S227      1.0  0.65440  0.47118  0.65728  1.0000
  Fe  Fe111     1.0  0.91838  0.24919  0.95312  1.0000
  C   C677      1.0  0.53802  0.36659  0.72354  1.0000
  H   H674      1.0  0.74241  0.48389  0.69706  1.0000
  Fe  Fe112     1.0  0.87988  0.24901  0.91348  1.0000
  H   H675      1.0  0.83360  0.25548  0.50889  1.0000
  S   S228      1.0  0.51072  0.30456  0.56197  1.0000
  H   H676      1.0  0.85888  0.48314  0.51036  1.0000
  H   H677      1.0  0.85560  0.42669  0.76063  1.0000
  H   H678      1.0  0.89892  0.46694  0.71874  1.0000
  C   C678      1.0  0.48140  0.27127  0.83160  1.0000
  H   H679      1.0  0.54749  0.31776  0.77275  1.0000
  C   C679      1.0  0.90736  0.30847  0.88998  1.0000
  H   H680      1.0  0.89283  0.30890  0.88178  1.0000
  H   H681      1.0  0.93178  0.26481  0.87289  1.0000
  C   C680      1.0  0.91531  0.29604  0.87146  1.0000
  H   H682      1.0  0.59522  0.41267  0.51315  1.0000
  C   C681      1.0  0.60904  0.43133  0.55917  1.0000
  C   C682      1.0  0.86173  0.38159  0.60145  1.0000
  C   C683      1.0  0.62446  0.46270  0.51187  1.0000
  H   H683      1.0  0.84791  0.47566  0.74851  1.0000
  Fe  Fe113     1.0  0.85792  0.47368  0.65960  1.0000
  H   H684      1.0  0.90669  0.48135  0.77619  1.0000
  C   C684      1.0  0.66784  0.47527  0.84623  1.0000
  H   H685      1.0  0.51674  0.32008  0.49108  1.0000
  N   N56       1.0  0.93313  0.29460  0.88236  1.0000
  C   C685      1.0  0.94346  0.30534  0.91171  1.0000
  C   C686      1.0  0.71427  0.47308  0.85966  1.0000
  C   C687      1.0  0.93605  0.31809  0.93072  1.0000
  H   H686      1.0  0.48458  0.23619  0.70209  1.0000
  H   H687      1.0  0.93829  0.28094  0.83442  1.0000
  H   H688      1.0  0.72518  0.46625  0.78525  1.0000
  H   H689      1.0  0.70414  0.45737  0.85889  1.0000
  N   N57       1.0  0.62909  0.46603  0.54755  1.0000
  H   H690      1.0  0.73752  0.23884  0.60087  1.0000
  H   H691      1.0  0.62471  0.45330  0.59955  1.0000
  H   H692      1.0  0.89159  0.25314  0.81684  1.0000
  N   N58       1.0  0.72034  0.48337  0.82868  1.0000
  H   H693      1.0  0.80521  0.47651  0.69875  1.0000
  C   C688      1.0  0.62130  0.45073  0.57120  1.0000
  H   H694      1.0  0.87123  0.45338  0.86585  1.0000
  H   H695      1.0  0.84707  0.47830  0.81459  1.0000
  H   H696      1.0  0.71243  0.48314  0.77332  1.0000
  H   H697      1.0  0.56903  0.24479  0.65418  1.0000
  C   C689      1.0  0.71404  0.47278  0.79408  1.0000
  H   H698      1.0  0.77444  0.48141  0.71781  1.0000
  C   C690      1.0  0.68554  0.48156  0.49846  1.0000
  Fe  Fe114     1.0  0.51093  0.61465  0.35192  1.0000
  C   C691      1.0  0.61033  0.62016  0.12134  1.0000
  S   S229      1.0  0.52081  0.62772  0.40823  1.0000
  Fe  Fe115     1.0  0.52383  0.61496  0.27123  1.0000
  H   H699      1.0  0.64726  0.64119  0.10439  1.0000
  S   S230      1.0  0.55081  0.62765  0.23415  1.0000
  H   H700      1.0  0.67579  0.51622  0.12671  1.0000
  N   N59       1.0  0.61690  0.62330  0.08695  1.0000
  C   C692      1.0  0.51181  0.68447  0.20011  1.0000
  S   S231      1.0  0.52131  0.63813  0.30978  1.0000
  S   S232      1.0  0.51728  0.59225  0.31559  1.0000
  H   H701      1.0  0.92222  0.49371  0.44002  1.0000
  S   S233      1.0  0.71688  0.50929  0.99230  1.0000
  H   H702      1.0  0.50376  0.66084  0.40578  1.0000
  Fe  Fe116     1.0  0.48465  0.58375  0.29770  1.0000
  H   H703      1.0  0.97756  0.61346  0.99311  1.0000
  S   S234      1.0  0.60357  0.66508  0.03245  1.0000
  S   S235      1.0  0.54876  0.62554  0.06333  1.0000
  C   C693      1.0  0.84427  0.52855  0.04492  1.0000
  N   N60       1.0  0.49575  0.68094  0.37297  1.0000
  C   C694      1.0  0.47957  0.71076  0.36590  1.0000
  N   N61       1.0  0.96685  0.54765  0.01136  1.0000
  S   S236      1.0  0.59964  0.71838  0.00955  1.0000
  H   H704      1.0  0.92881  0.53580  0.07022  1.0000
  C   C695      1.0  0.64196  0.58506  0.99093  1.0000
  C   C696      1.0  0.52333  0.70290  0.29374  1.0000
  H   H705      1.0  0.69910  0.50876  0.27725  1.0000
  C   C697      1.0  0.84195  0.49418  0.05739  1.0000
  Fe  Fe117     1.0  0.70292  0.51852  0.03985  1.0000
  S   S237      1.0  0.72025  0.55193  0.03178  1.0000
  H   H706      1.0  0.71865  0.53326  0.27026  1.0000
  C   C698      1.0  0.66855  0.50013  0.17655  1.0000
  H   H707      1.0  0.52660  0.64374  0.47985  1.0000
  C   C699      1.0  0.50793  0.70082  0.37786  1.0000
  C   C700      1.0  0.97301  0.57457  0.05466  1.0000
  C   C701      1.0  0.51125  0.68249  0.28909  1.0000
  H   H708      1.0  0.83108  0.50046  0.15654  1.0000
  H   H709      1.0  0.63126  0.56963  0.99129  1.0000
  C   C702      1.0  0.50247  0.58560  0.48670  1.0000
  C   C703      1.0  0.67773  0.50457  0.14285  1.0000
  C   C704      1.0  0.72632  0.49598  0.25144  1.0000
  Fe  Fe118     1.0  0.57175  0.64340  0.02219  1.0000
  H   H710      1.0  0.57302  0.59720  0.04260  1.0000
  H   H711      1.0  0.72274  0.49166  0.27893  1.0000
  C   C705      1.0  0.81877  0.56505  0.00630  1.0000
  H   H712      1.0  0.75062  0.48538  0.18105  1.0000
  C   C706      1.0  0.55260  0.69913  0.21863  1.0000
  C   C707      1.0  0.58356  0.60317  0.06488  1.0000
  C   C708      1.0  0.54180  0.67843  0.21318  1.0000
  C   C709      1.0  0.73590  0.50692  0.18128  1.0000
  H   H713      1.0  0.52396  0.70506  0.38357  1.0000
  C   C710      1.0  0.89018  0.50160  0.08343  1.0000
  C   C711      1.0  0.88840  0.51867  0.09958  1.0000
  C   C712      1.0  0.88354  0.51847  0.13600  1.0000
  C   C713      1.0  0.87999  0.50113  0.15656  1.0000
  C   C714      1.0  0.60380  0.61504  0.05891  1.0000
  C   C715      1.0  0.73752  0.48701  0.23199  1.0000
  H   H714      1.0  0.89076  0.53201  0.08409  1.0000
  H   H715      1.0  0.88218  0.53173  0.14824  1.0000
  H   H716      1.0  0.49461  0.64513  0.20789  1.0000
  H   H717      1.0  0.51747  0.64080  0.21492  1.0000
  H   H718      1.0  0.65945  0.50838  0.18587  1.0000
  H   H719      1.0  0.83596  0.52827  0.11429  1.0000
  C   C716      1.0  0.54961  0.62769  0.18664  1.0000
  C   C717      1.0  0.53249  0.61529  0.16725  1.0000
  C   C718      1.0  0.53239  0.61523  0.12959  1.0000
  C   C719      1.0  0.54927  0.62768  0.11076  1.0000
  C   C720      1.0  0.56625  0.64043  0.13015  1.0000
  C   C721      1.0  0.56645  0.64030  0.16786  1.0000
  H   H720      1.0  0.51947  0.60540  0.18122  1.0000
  H   H721      1.0  0.51921  0.60523  0.11490  1.0000
  H   H722      1.0  0.57937  0.65004  0.11606  1.0000
  H   H723      1.0  0.57979  0.64994  0.18257  1.0000
  S   S238      1.0  0.87256  0.50140  0.20167  1.0000
  C   C722      1.0  0.79794  0.56065  0.99951  1.0000
  C   C723      1.0  0.52216  0.70528  0.20522  1.0000
  S   S239      1.0  0.49164  0.60504  0.25159  1.0000
  H   H724      1.0  0.49575  0.67881  0.19367  1.0000
  C   C724      1.0  0.67136  0.48544  0.19845  1.0000
  H   H725      1.0  0.51067  0.64550  0.17037  1.0000
  H   H726      1.0  0.94995  0.56994  0.09400  1.0000
  C   C725      1.0  0.51484  0.61556  0.45007  1.0000
  C   C726      1.0  0.50599  0.59454  0.45279  1.0000
  C   C727      1.0  0.72471  0.51557  0.20150  1.0000
  H   H727      1.0  0.52009  0.67037  0.36841  1.0000
  C   C728      1.0  0.70825  0.51922  0.25680  1.0000
  H   H728      1.0  0.62056  0.62696  0.14363  1.0000
  H   H729      1.0  0.63861  0.64922  0.06411  1.0000
  C   C729      1.0  0.51497  0.71766  0.28995  1.0000
  H   H730      1.0  0.69728  0.52283  0.23945  1.0000
  H   H731      1.0  0.58479  0.60624  0.15548  1.0000
  C   C730      1.0  0.83639  0.51406  0.10446  1.0000
  H   H732      1.0  0.50237  0.58518  0.42880  1.0000
  H   H733      1.0  0.49559  0.65148  0.36102  1.0000
  Fe  Fe119     1.0  0.59653  0.68585  0.99343  1.0000
  H   H734      1.0  0.64498  0.62701  0.06347  1.0000
  C   C731      1.0  0.94292  0.54449  0.05766  1.0000
  S   S240      1.0  0.67588  0.51757  0.00692  1.0000
  N   N62       1.0  0.71980  0.50983  0.23594  1.0000
  C   C732      1.0  0.51965  0.62749  0.48162  1.0000
  H   H735      1.0  0.83765  0.52311  0.01790  1.0000
  H   H736      1.0  0.82567  0.57274  0.03095  1.0000
  H   H737      1.0  0.56091  0.59117  0.10467  1.0000
  C   C733      1.0  0.50007  0.71603  0.37415  1.0000
  C   C734      1.0  0.59017  0.60832  0.12828  1.0000
  C   C735      1.0  0.63797  0.63580  0.07962  1.0000
  H   H738      1.0  0.86082  0.53678  0.04241  1.0000
  H   H739      1.0  0.53929  0.70729  0.29999  1.0000
  N   N63       1.0  0.52160  0.67135  0.20462  1.0000
  S   S241      1.0  0.89610  0.50094  0.03755  1.0000
  H   H740      1.0  0.51819  0.67161  0.29086  1.0000
  C   C736      1.0  0.49440  0.71192  0.28119  1.0000
  C   C737      1.0  0.95484  0.56362  0.07104  1.0000
  C   C738      1.0  0.54265  0.71261  0.21480  1.0000
  H   H741      1.0  0.71938  0.52637  0.18899  1.0000
  H   H742      1.0  0.49611  0.56933  0.48850  1.0000
  C   C739      1.0  0.49059  0.67647  0.28157  1.0000
  C   C740      1.0  0.57676  0.59977  0.09980  1.0000
  H   H743      1.0  0.48787  0.72332  0.27799  1.0000
  C   C741      1.0  0.51050  0.64965  0.19903  1.0000
  C   C742      1.0  0.50419  0.66520  0.37735  1.0000
  H   H744      1.0  0.51419  0.71558  0.20315  1.0000
  H   H745      1.0  0.56848  0.70463  0.22632  1.0000
  Fe  Fe120     1.0  0.69333  0.55067  0.99656  1.0000
  H   H746      1.0  0.78909  0.56502  0.01882  1.0000
  C   C743      1.0  0.74223  0.49246  0.19663  1.0000
  S   S242      1.0  0.70364  0.50049  0.09027  1.0000
  H   H747      1.0  0.89853  0.49472  0.42389  1.0000
  H   H748      1.0  0.83749  0.53949  0.05414  1.0000
  C   C744      1.0  0.48221  0.69129  0.27705  1.0000
  H   H749      1.0  0.73898  0.51091  0.15347  1.0000
  H   H750      1.0  0.93961  0.52190  0.01707  1.0000
  C   C745      1.0  0.94915  0.53670  0.02756  1.0000
  H   H751      1.0  0.54959  0.66799  0.21641  1.0000
  Fe  Fe121     1.0  0.48904  0.62762  0.29182  1.0000
  H   H752      1.0  0.60891  0.61791  0.03170  1.0000
  S   S243      1.0  0.90784  0.55758  0.00338  1.0000
  N   N64       1.0  0.84034  0.51172  0.06937  1.0000
  H   H753      1.0  0.85708  0.49769  0.45109  1.0000
  C   C746      1.0  0.68973  0.49420  0.13049  1.0000
  C   C747      1.0  0.83344  0.49836  0.12841  1.0000
  S   S244      1.0  0.67124  0.56791  0.99506  1.0000
  H   H754      1.0  0.50995  0.73184  0.37642  1.0000
  Fe  Fe122     1.0  0.89745  0.52406  0.99493  1.0000
  H   H755      1.0  0.84613  0.49273  0.03001  1.0000
  H   H756      1.0  0.55061  0.72864  0.22022  1.0000
  C   C748      1.0  0.66285  0.58878  0.99281  1.0000
  C   C749      1.0  0.67639  0.60888  0.99205  1.0000
  H   H757      1.0  0.69248  0.61214  0.99333  1.0000
  C   C750      1.0  0.90566  0.48528  0.43786  1.0000
  Fe  Fe123     1.0  0.51767  0.60570  0.69537  1.0000
  S   S245      1.0  0.49691  0.62187  0.70783  1.0000
  S   S246      1.0  0.53643  0.59947  0.74028  1.0000
  Fe  Fe124     1.0  0.50552  0.60179  0.61404  1.0000
  S   S247      1.0  0.48483  0.61867  0.62230  1.0000
  S   S248      1.0  0.50346  0.58555  0.56036  1.0000
  Fe  Fe125     1.0  0.50951  0.63916  0.65858  1.0000
  S   S249      1.0  0.52481  0.67299  0.66125  1.0000
  S   S250      1.0  0.56427  0.66463  0.98615  1.0000
  S   S251      1.0  0.53121  0.62374  0.64696  1.0000
  S   S252      1.0  0.49455  0.58163  0.66134  1.0000
  C   C751      1.0  0.64553  0.51734  0.84936  1.0000
  H   H758      1.0  0.48463  0.69275  0.58053  1.0000
  H   H759      1.0  0.64401  0.51222  0.82165  1.0000
  H   H760      1.0  0.50954  0.67614  0.58371  1.0000
  Fe  Fe126     1.0  0.57482  0.65042  0.94049  1.0000
  S   S253      1.0  0.60705  0.67263  0.94608  1.0000
  S   S254      1.0  0.55528  0.64763  0.88994  1.0000
  H   H761      1.0  0.65355  0.53553  0.94779  1.0000
  H   H762      1.0  0.48120  0.66245  0.66101  1.0000
  C   C752      1.0  0.73295  0.50328  0.82983  1.0000
  H   H763      1.0  0.50178  0.56077  0.75693  1.0000
  H   H764      1.0  0.57773  0.68272  0.84737  1.0000
  Fe  Fe127     1.0  0.88947  0.52678  0.91347  1.0000
  S   S255      1.0  0.89925  0.56078  0.91743  1.0000
  S   S256      1.0  0.87430  0.50420  0.86733  1.0000
  Fe  Fe128     1.0  0.69151  0.51147  0.95889  1.0000
  S   S257      1.0  0.70757  0.54404  0.94671  1.0000
  H   H765      1.0  0.81738  0.48778  0.65902  1.0000
  C   C753      1.0  0.80094  0.54651  0.94200  1.0000
  S   S258      1.0  0.64039  0.64239  0.98622  1.0000
  H   H766      1.0  0.69652  0.49685  0.50077  1.0000
  C   C754      1.0  0.67779  0.49143  0.87006  1.0000
  C   C755      1.0  0.55853  0.66096  0.72670  1.0000
  C   C756      1.0  0.97307  0.53910  0.97993  1.0000
  C   C757      1.0  0.77028  0.49988  0.62282  1.0000
  S   S259      1.0  0.87727  0.49976  0.69651  1.0000
  N   N65       1.0  0.65793  0.54421  0.89332  1.0000
  Fe  Fe129     1.0  0.92565  0.56046  0.95263  1.0000
  H   H767      1.0  0.73788  0.51097  0.91984  1.0000
  H   H768      1.0  0.81776  0.50374  0.69710  1.0000
  C   C758      1.0  0.58082  0.65774  0.77328  1.0000
  H   H769      1.0  0.66108  0.54851  0.83706  1.0000
  H   H770      1.0  0.54613  0.69694  0.58724  1.0000
  H   H771      1.0  0.68214  0.56804  0.91869  1.0000
  H   H772      1.0  0.80083  0.50158  0.61731  1.0000
  S   S260      1.0  0.68136  0.50125  0.74869  1.0000
  H   H773      1.0  0.63166  0.48734  0.87004  1.0000
  H   H774      1.0  0.59062  0.65036  0.78342  1.0000
  H   H775      1.0  0.57399  0.64010  0.72403  1.0000
  C   C759      1.0  0.68967  0.51321  0.81910  1.0000
  C   C760      1.0  0.68881  0.51042  0.85630  1.0000
  H   H776      1.0  0.96017  0.53279  0.96064  1.0000
  C   C761      1.0  0.78890  0.55167  0.96695  1.0000
  C   C762      1.0  0.58737  0.67835  0.82839  1.0000
  H   H777      1.0  0.69812  0.52798  0.80870  1.0000
  H   H778      1.0  0.69653  0.52299  0.87430  1.0000
  S   S261      1.0  0.91623  0.52652  0.94605  1.0000
  C   C763      1.0  0.64181  0.48633  0.56054  1.0000
  C   C764      1.0  0.87530  0.50176  0.74381  1.0000
  C   C765      1.0  0.89022  0.51753  0.76305  1.0000
  C   C766      1.0  0.88976  0.51911  0.80070  1.0000
  C   C767      1.0  0.87427  0.50491  0.81966  1.0000
  C   C768      1.0  0.65118  0.53057  0.92004  1.0000
  C   C769      1.0  0.50770  0.72054  0.67417  1.0000
  H   H779      1.0  0.90240  0.52850  0.74880  1.0000
  H   H780      1.0  0.90159  0.53107  0.81506  1.0000
  C   C770      1.0  0.48664  0.71193  0.67109  1.0000
  C   C771      1.0  0.63854  0.50337  0.87649  1.0000
  Fe  Fe130     1.0  0.73296  0.54229  0.98227  1.0000
  C   C772      1.0  0.48647  0.56052  0.75887  1.0000
  C   C773      1.0  0.54107  0.61233  0.78247  1.0000
  C   C774      1.0  0.55441  0.60893  0.80737  1.0000
  C   C775      1.0  0.55881  0.61933  0.84069  1.0000
  C   C776      1.0  0.54972  0.63309  0.84955  1.0000
  C   C777      1.0  0.53627  0.63632  0.82476  1.0000
  C   C778      1.0  0.53204  0.62611  0.79143  1.0000
  H   H781      1.0  0.56151  0.59832  0.80077  1.0000
  H   H782      1.0  0.56923  0.61672  0.85947  1.0000
  H   H783      1.0  0.52925  0.64701  0.83128  1.0000
  H   H784      1.0  0.52197  0.62915  0.77261  1.0000
  C   C779      1.0  0.50971  0.68740  0.66713  1.0000
  S   S262      1.0  0.96061  0.57731  0.94544  1.0000
  C   C780      1.0  0.52721  0.73421  0.58175  1.0000
  C   C781      1.0  0.51920  0.70833  0.67206  1.0000
  H   H785      1.0  0.63685  0.49915  0.93338  1.0000
  S   S263      1.0  0.76340  0.54834  0.95447  1.0000
  H   H786      1.0  0.53552  0.71518  0.67397  1.0000
  C   C782      1.0  0.82163  0.55037  0.94922  1.0000
  C   C783      1.0  0.64834  0.62121  0.98796  1.0000
  N   N66       1.0  0.57705  0.67199  0.79364  1.0000
  C   C784      1.0  0.56437  0.68100  0.78107  1.0000
  C   C785      1.0  0.66816  0.56569  0.90268  1.0000
  C   C786      1.0  0.55487  0.67557  0.74747  1.0000
  S   S264      1.0  0.86998  0.52132  0.96222  1.0000
  H   H787      1.0  0.60184  0.69131  0.82524  1.0000
  C   C787      1.0  0.83085  0.56008  0.98117  1.0000
  H   H788      1.0  0.56138  0.69229  0.79720  1.0000
  C   C788      1.0  0.73951  0.51347  0.86263  1.0000
  H   H789      1.0  0.54461  0.68250  0.73753  1.0000
  C   C789      1.0  0.80843  0.48993  0.68168  1.0000
  C   C790      1.0  0.64143  0.50998  0.91206  1.0000
  H   H790      1.0  0.51988  0.62794  0.53945  1.0000
  H   H791      1.0  0.59049  0.66576  0.84118  1.0000
  H   H792      1.0  0.65813  0.57100  0.91907  1.0000
  H   H793      1.0  0.55112  0.65651  0.70078  1.0000
  C   C791      1.0  0.57156  0.65195  0.73959  1.0000
  C   C792      1.0  0.50063  0.70196  0.58036  1.0000
  H   H794      1.0  0.73954  0.49545  0.63547  1.0000
  H   H795      1.0  0.83062  0.54657  0.92941  1.0000
  H   H796      1.0  0.79431  0.53975  0.91658  1.0000
  C   C793      1.0  0.65534  0.53783  0.85831  1.0000
  N   N67       1.0  0.50703  0.72257  0.57970  1.0000
  H   H797      1.0  0.65354  0.49415  0.54081  1.0000
  C   C794      1.0  0.53523  0.70419  0.58430  1.0000
  C   C795      1.0  0.50746  0.59754  0.51824  1.0000
  H   H798      1.0  0.67245  0.57531  0.87880  1.0000
  C   C796      1.0  0.49232  0.73246  0.57880  1.0000
  C   C797      1.0  0.73313  0.50316  0.89427  1.0000
  H   H799      1.0  0.74930  0.52933  0.86375  1.0000
  Fe  Fe131     1.0  0.61135  0.64987  0.98435  1.0000
  C   C798      1.0  0.48330  0.57835  0.76663  1.0000
  C   C799      1.0  0.85959  0.48781  0.76272  1.0000
  C   C800      1.0  0.77352  0.48700  0.69133  1.0000
  C   C801      1.0  0.67979  0.49702  0.79527  1.0000
  C   C802      1.0  0.78825  0.49831  0.63529  1.0000
  Fe  Fe132     1.0  0.88069  0.55494  0.96794  1.0000
  C   C803      1.0  0.48862  0.67862  0.66484  1.0000
  H   H800      1.0  0.97856  0.52708  0.98801  1.0000
  C   C804      1.0  0.54161  0.72522  0.58409  1.0000
  S   S265      1.0  0.67558  0.48726  0.91662  1.0000
  H   H801      1.0  0.49632  0.59219  0.77083  1.0000
  C   C805      1.0  0.75537  0.48848  0.67979  1.0000
  S   S266      1.0  0.57962  0.62709  0.97589  1.0000
  N   N68       1.0  0.78958  0.49167  0.66900  1.0000
  C   C806      1.0  0.51463  0.69246  0.58214  1.0000
  H   H802      1.0  0.76900  0.50435  0.59562  1.0000
  H   H803      1.0  0.73774  0.51147  0.80533  1.0000
  C   C807      1.0  0.75374  0.49488  0.64524  1.0000
  C   C808      1.0  0.51585  0.61857  0.51549  1.0000
  C   C809      1.0  0.85910  0.48940  0.80029  1.0000
  H   H804      1.0  0.55757  0.73450  0.58636  1.0000
  H   H805      1.0  0.65023  0.48564  0.58535  1.0000
  H   H806      1.0  0.63238  0.49539  0.56594  1.0000
  S   S267      1.0  0.85747  0.56740  0.99016  1.0000
  C   C810      1.0  0.63475  0.60107  0.98843  1.0000
  H   H807      1.0  0.61868  0.59777  0.98661  1.0000
  H   H808      1.0  0.67993  0.64029  0.98948  1.0000
  C   C811      1.0  0.66919  0.62488  0.98981  1.0000
  Fe  Fe133     1.0  0.51631  0.76602  0.29526  1.0000
  S   S268      1.0  0.53511  0.79795  0.31228  1.0000
  C   C812      1.0  0.58037  0.77879  0.08092  1.0000
  C   C813      1.0  0.63132  0.80865  0.04555  1.0000
  S   S269      1.0  0.49512  0.80814  0.29508  1.0000
  Fe  Fe134     1.0  0.52116  0.80625  0.26342  1.0000
  S   S270      1.0  0.53807  0.83140  0.22496  1.0000
  Fe  Fe135     1.0  0.50741  0.79652  0.34231  1.0000
  S   S271      1.0  0.50486  0.80870  0.39823  1.0000
  S   S272      1.0  0.50415  0.77431  0.24491  1.0000
  Fe  Fe136     1.0  0.47913  0.77552  0.27978  1.0000
  H   H809      1.0  0.57069  0.78005  0.05820  1.0000
  S   S273      1.0  0.61618  0.85239  0.01321  1.0000
  S   S274      1.0  0.56619  0.82064  0.06652  1.0000
  N   N69       1.0  0.60119  0.78403  0.06912  1.0000
  C   C814      1.0  0.52815  0.78564  0.47888  1.0000
  H   H810      1.0  0.60487  0.81460  0.05959  1.0000
  C   C815      1.0  0.62912  0.77442  0.05405  1.0000
  C   C816      1.0  0.61177  0.80334  0.05865  1.0000
  H   H811      1.0  0.51063  0.84149  0.16803  1.0000
  H   H812      1.0  0.64388  0.97112  0.05905  1.0000
  H   H813      1.0  0.57982  0.78943  0.10251  1.0000
  H   H814      1.0  0.57782  0.74529  0.00486  1.0000
  H   H815      1.0  0.51353  0.85187  0.45309  1.0000
  S   S275      1.0  0.48971  0.76392  0.32845  1.0000
  Fe  Fe137     1.0  0.58223  0.83955  0.01861  1.0000
  S   S276      1.0  0.53087  0.74297  0.29645  1.0000
  C   C817      1.0  0.49713  0.80012  0.46914  1.0000
  H   H816      1.0  0.57388  0.76319  0.09115  1.0000
  C   C818      1.0  0.54644  0.82819  0.18142  1.0000
  C   C819      1.0  0.55628  0.84533  0.16082  1.0000
  C   C820      1.0  0.56247  0.84342  0.12569  1.0000
  C   C821      1.0  0.55882  0.82429  0.11063  1.0000
  C   C822      1.0  0.54887  0.80716  0.13119  1.0000
  C   C823      1.0  0.54279  0.80907  0.16633  1.0000
  H   H817      1.0  0.55917  0.86021  0.17211  1.0000
  H   H818      1.0  0.57008  0.85676  0.11031  1.0000
  H   H819      1.0  0.54578  0.79227  0.11983  1.0000
  H   H820      1.0  0.53515  0.79574  0.18167  1.0000
  H   H821      1.0  0.60101  0.75409  0.07390  1.0000
  C   C824      1.0  0.50804  0.79798  0.43933  1.0000
  C   C825      1.0  0.52322  0.79016  0.44427  1.0000
  H   H822      1.0  0.63935  0.82375  0.03586  1.0000
  H   H823      1.0  0.53187  0.78861  0.42166  1.0000
  C   C826      1.0  0.60963  0.76964  0.06710  1.0000
  H   H824      1.0  0.67036  0.95897  0.04692  1.0000
  H   H825      1.0  0.54294  0.84174  0.44851  1.0000
  H   H826      1.0  0.50361  0.84368  0.24038  1.0000
  C   C827      1.0  0.63997  0.79405  0.04308  1.0000
  C   C828      1.0  0.53707  0.84286  0.47472  1.0000
  H   H827      1.0  0.69594  0.97611  0.04426  1.0000
  H   H828      1.0  0.65472  0.79775  0.03136  1.0000
  H   H829      1.0  0.48538  0.80618  0.46560  1.0000
  C   C829      1.0  0.49899  0.82668  0.17149  1.0000
  C   C830      1.0  0.48342  0.79174  0.15258  1.0000
  C   C831      1.0  0.68191  0.97256  0.05992  1.0000
  H   H830      1.0  0.68486  0.96885  0.08759  1.0000
  C   C832      1.0  0.48888  0.83957  0.22576  1.0000
  H   H831      1.0  0.48854  0.85305  0.21170  1.0000
  H   H832      1.0  0.50796  0.81395  0.12516  1.0000
  C   C833      1.0  0.52040  0.84867  0.47716  1.0000
  H   H833      1.0  0.54051  0.78044  0.48253  1.0000
  H   H834      1.0  0.63532  0.76270  0.05079  1.0000
  N   N70       1.0  0.48651  0.82310  0.20011  1.0000
  C   C834      1.0  0.49762  0.81110  0.14725  1.0000
  H   H835      1.0  0.48248  0.77943  0.13442  1.0000
  H   H836      1.0  0.56294  0.82473  0.47508  1.0000
  C   C835      1.0  0.59177  0.75218  0.99071  1.0000
  H   H837      1.0  0.63272  0.74250  0.96411  1.0000
  S   S277      1.0  0.52178  0.77447  0.65180  1.0000
  C   C836      1.0  0.62258  0.75050  0.96770  1.0000
  C   C837      1.0  0.64326  0.95324  0.97686  1.0000
  S   S278      1.0  0.51560  0.81665  0.63839  1.0000
  Fe  Fe138     1.0  0.51274  0.78907  0.60522  1.0000
  S   S279      1.0  0.52720  0.78643  0.55222  1.0000
  Fe  Fe139     1.0  0.52151  0.80051  0.68643  1.0000
  S   S280      1.0  0.54827  0.81469  0.72579  1.0000
  C   C838      1.0  0.62845  0.77079  0.95695  1.0000
  C   C839      1.0  0.53735  0.83861  0.53751  1.0000
  Fe  Fe140     1.0  0.57583  0.84233  0.93595  1.0000
  S   S281      1.0  0.60929  0.85503  0.92653  1.0000
  S   S282      1.0  0.54988  0.83258  0.89415  1.0000
  H   H838      1.0  0.69897  0.95855  0.96765  1.0000
  C   C840      1.0  0.66795  0.93777  0.97120  1.0000
  H   H839      1.0  0.53220  0.75058  0.58212  1.0000
  H   H840      1.0  0.67178  0.92445  0.96946  1.0000
  H   H841      1.0  0.51515  0.73657  0.67864  1.0000
  Fe  Fe141     1.0  0.48868  0.76052  0.66243  1.0000
  C   C841      1.0  0.65875  0.97279  0.97542  1.0000
  S   S283      1.0  0.57727  0.81797  0.97187  1.0000
  C   C842      1.0  0.68343  0.95727  0.97006  1.0000
  H   H842      1.0  0.49390  0.79789  0.52649  1.0000
  S   S284      1.0  0.62587  0.80852  0.95424  1.0000
  C   C843      1.0  0.61630  0.78211  0.96375  1.0000
  C   C844      1.0  0.54840  0.82114  0.77201  1.0000
  C   C845      1.0  0.56704  0.82967  0.79070  1.0000
  C   C846      1.0  0.56787  0.83377  0.82785  1.0000
  C   C847      1.0  0.55001  0.82960  0.84677  1.0000
  C   C848      1.0  0.53141  0.82169  0.82785  1.0000
  C   C849      1.0  0.53057  0.81730  0.79084  1.0000
  H   H843      1.0  0.58094  0.83285  0.77643  1.0000
  H   H844      1.0  0.58230  0.83997  0.84187  1.0000
  H   H845      1.0  0.51750  0.81859  0.84208  1.0000
  H   H846      1.0  0.51612  0.81091  0.77691  1.0000
  H   H847      1.0  0.64293  0.77801  0.94455  1.0000
  C   C850      1.0  0.56274  0.83178  0.50167  1.0000
  C   C851      1.0  0.52067  0.84435  0.54094  1.0000
  S   S285      1.0  0.48868  0.78540  0.70007  1.0000
  H   H848      1.0  0.54362  0.83429  0.56119  1.0000
  H   H849      1.0  0.62769  0.95185  0.97947  1.0000
  C   C852      1.0  0.67910  0.97504  0.97224  1.0000
  N   N71       1.0  0.54969  0.78407  0.85551  1.0000
  C   C853      1.0  0.56198  0.78978  0.88526  1.0000
  C   C854      1.0  0.55776  0.78422  0.82251  1.0000
  C   C855      1.0  0.58297  0.79624  0.88239  1.0000
  C   C856      1.0  0.57872  0.79068  0.81866  1.0000
  C   C857      1.0  0.59137  0.79677  0.84886  1.0000
  C   C858      1.0  0.52774  0.77733  0.85946  1.0000
  H   H850      1.0  0.55557  0.78990  0.91131  1.0000
  H   H851      1.0  0.54808  0.78010  0.79876  1.0000
  H   H852      1.0  0.59268  0.80111  0.90596  1.0000
  H   H853      1.0  0.58507  0.79151  0.79231  1.0000
  H   H854      1.0  0.60768  0.80215  0.84639  1.0000
  H   H855      1.0  0.52170  0.76171  0.86963  1.0000
  H   H856      1.0  0.52404  0.78758  0.87841  1.0000
  H   H857      1.0  0.51999  0.77777  0.83369  1.0000
  Fe  Fe142     1.0  0.61054  0.83124  0.96521  1.0000
  S   S286      1.0  0.57774  0.86310  0.98322  1.0000
  C   C859      1.0  0.51794  0.78880  0.50888  1.0000
  Fe  Fe143     1.0  0.61184  0.87536  0.97532  1.0000
  C   C860      1.0  0.59762  0.77246  0.97985  1.0000
  H   H858      1.0  0.58804  0.78084  0.98538  1.0000
  C   C861      1.0  0.51214  0.84936  0.51050  1.0000
  C   C862      1.0  0.64762  0.93544  0.97477  1.0000
  Fe  Fe144     1.0  0.48267  0.79970  0.65016  1.0000
  C   C863      1.0  0.60437  0.74112  0.98540  1.0000
  S   S287      1.0  0.62736  0.91088  0.97713  1.0000
  H   H859      1.0  0.49656  0.74463  0.55877  1.0000
  S   S288      1.0  0.47958  0.77348  0.61382  1.0000
  N   N72       1.0  0.54516  0.83769  0.50464  1.0000
  H   H860      1.0  0.56221  0.82028  0.52186  1.0000
  H   H861      1.0  0.57687  0.84521  0.50574  1.0000
  H   H862      1.0  0.49196  0.73919  0.60548  1.0000
  C   C864      1.0  0.50195  0.79545  0.50372  1.0000
  H   H863      1.0  0.49895  0.85344  0.51266  1.0000
  H   H864      1.0  0.51419  0.84453  0.56697  1.0000
