data_image0
_chemical_formula_structural       CSHFeS2CFeS2FeS2FeS2FeSFeS3FeS2FeS2Fe2S3FeS2FeSCS2C3HC2HC6H4C6H4C3H2C6H4C6H4C6H4C6H5CHCH4C2SHCHCSHC4H2NHNH2S2H3NC5H2FeH6NC6H8NC6H13C4H3FeHC3HSC4SHSH3FeCHFeC3HFeHC2NC3H2C2H5C3HNC2SH3SCHSHFeSHFeSH2FeS2FeSCFeS3C2HCNSHS2NC2H2CHC6NCFeHCHC4HCH2C2HC7H10FeHCFeCSC2HFeC2H3CFeHCH2C2HCHCH9SHC2HNCFeS2FeS2FeSFeS3FeS3FeSFeSFeS2FeSFeHFeSCSFeS2FeSCSCHCSC6H4FeCH3CHC6H4C6H4C3H2C6H4CNH3C7HNC6H8CSC3H2NC2H4NHCHCH4C2H3C2H2C2SCH2C2NSC2H6CHC3HCHCH4C2HSNC6H2CHSH3C2HCH2CNC3SHCH3C3Fe2S2CHFeSHC2FeSHFeS2FeHFeS3FeH2FeCS2CHCS2C2HCFeH2CHCNHCH2C5H3C4SH3C8H5CHCH2SHCH2NH4CH5CSHSH2CHC2NSCFeC3HCNH2S2C2H5C2FeS2FeS2FeSFeS3HSCHCHCHCSFeCSFeS2FeH3S3H2CHCFeCHCHC8H3CHNCSH2C6H4C2HCH2C4H3CNC3H2C2HFeCS2CH2NH2SH2CHC3H2NCFeHNCHCH3C2HC2HCH2NCHCHCH4C3H2CS2HSFeS2FeS2FeSFeS3FeS2FeS2Fe2S3HSFeS2FeSFeHSHC6H4C2SHC3H2C6H4C6H4C6H3C7H5C3FeHC6H4C2SCHC4S2HCH2CNC6H8CHCSH8SHC2H2CH4CNC4NC6H9CFeHCH4CH2NH3CNHC2N2CHC3HCH2C2HC2HCH5SCFeSCHS2NHSHFeSFeSC3HCH2CHC2SHFeS2FeHSC4SHNH5CH2CHCHCHC2H4C7H4NC2H2CH2FeHCSHC2HFeHFeH2CH2CH3C2FeH3FeS2FeS2FeSFeS3FeSFeS2FeSFeS3FeS2FeSFeS3HSH2SHC8H4C6H4CH2CHCH2C6H4C6H4C3H2C6H4C3HC2H4SNC6H8CSHC4NC6H9NC6H8NC6H6FeCHNHCH2C3SHCNCNHC6SH2SCHCHCHC2HC2H3CH2CSC2FeH2C2H5CHC3H3NCHFeS2H3FeS2HNC2HCS3C2FeS2FeHSHSCHCHFeC8H4C2H2FeHFeC8H4FeHC3HCH6NC4HC2NH2C3H2NC2H2CSHSC2HCHNH2CH3CSC2S2NHSH2C2HCH2CSCH2CFeSHFeS2FeSFeS2FeS2FeS2FeSFeS5FeSFeS2FeSFeS3C6H4C4HC6H4C6H4C2HCHC7H5C3HNHCFeC2H2C2H2CHCH6CHC6HNC6H8NC6H11CHC3NHNCNHSC2H4C2HCH2CHSFeSHC4HCHC2NSH2CH2CHCH2CHNCHC2H2CHCHC2H4C2SH2SHC2H3C2S2HSHFeSFeS2H3FeSHCHCNHC2FeS2FeS2FeSFeS3HCH3CHCHC2H2CHCSHC6H6CH2C6H4C2HC3HCH2C2HC2HC3H3CN2HC2HNH3CH3CHFe2C3NCH3CHSC3SCH3CHCH3SC2FeS2FeS2FeSFeS3FeSFeS2FeSFeS3FeS2FeSFeHFeS3NC4HC7H4C6H4C3H2CHC6H4C3HC2H2CHC6H4C6FeH5CH3CSNCHSCHSNC6H8NC6HNH6NC3H2CH4CH2SHC2FeHC3H3CHCHSCH4C2H2CHC2H3SHCH4C5H4C2HC3HSH4CH2C2H7SHCNSHC3SHC2FeS2NFeS2FeS2FeS2FeSFeS3FeS2FeSNSFeCFeS2FeS3CHC3SHC6H5CHC4H2C6H4C6H4C6H4C3H2C2H5NC3H5CHC4H2CHC2FeHC6H2CH2CSCH2CHCH5NHC2H2C2HC2H2CHSNHC2HNC2H2CH2CSHC5HCFeH4SHS2H5CFeC2H7CH4N2C2H4CHSCHSHFeSFeC2HC3FeSHFeS2FeSFeS3FeS2CFeSHSCH2C8H4C2HC3H4C2HC2NCH2CH2C3SH3CNC5HC2H2C3S2HCSHFeNC6H6CHFeH4SNH3CHC2SH8C2HFeHSCNSFeS2FeS2FeSFeS3FeS2FeS2FeSFeS2FeS2HFeSHSCFeSNHCHC6H4CH2CHC6H4C6H4C6H4C6H4C2SCSHC6H6CHCHCHC3H2CHCH2SCHCHSCHCHFeNC6H8NHC2FeH7CHC2HSNCH3NC6H10NC6HC2NHSHCSHSHS3CHCFeCH2FeS2CFeS2HFeS2FeSFeSFeHS2FeSCHSNFeSFeCNH3SC2SHNH2C2H2FeH2C2HCH2C6H5CHC3FeCHC2HSC2H2CSCH2C3H3CHC2H3NHC2HCHC3HCHC2HCSH3C3H2CH
_chemical_formula_sum              "C1152 S384 H1152 Fe192 N96"
_cell_length_a       40.162
_cell_length_b       40.3055
_cell_length_c       89.1668
_cell_angle_alpha    83.7794
_cell_angle_beta     83.817
_cell_angle_gamma    88.4284

_space_group_name_H-M_alt    "P 1"
_space_group_IT_number       1

loop_
  _space_group_symop_operation_xyz
  'x, y, z'

loop_
  _atom_site_type_symbol
  _atom_site_label
  _atom_site_symmetry_multiplicity
  _atom_site_fract_x
  _atom_site_fract_y
  _atom_site_fract_z
  _atom_site_occupancy
  C   C1        1.0  0.40472  0.15306  0.01331  1.0000
  S   S1        1.0  0.44588  0.13887  0.04791  1.0000
  H   H1        1.0  0.43446  0.21503  0.14085  1.0000
  Fe  Fe1       1.0  0.12497  0.06462  0.07079  1.0000
  S   S2        1.0  0.16712  0.05922  0.08536  1.0000
  S   S3        1.0  0.11900  0.10941  0.05397  1.0000
  C   C2        1.0  0.18091  0.29360  0.98070  1.0000
  Fe  Fe2       1.0  0.12804  0.04494  0.10448  1.0000
  S   S4        1.0  0.12397  0.06853  0.12652  1.0000
  S   S5        1.0  0.08528  0.05505  0.09024  1.0000
  Fe  Fe3       1.0  0.26057  0.30197  0.02327  1.0000
  S   S6        1.0  0.28635  0.32871  0.03960  1.0000
  S   S7        1.0  0.24967  0.32504  0.00003  1.0000
  Fe  Fe4       1.0  0.26211  0.23517  0.04268  1.0000
  S   S8        1.0  0.28679  0.25664  0.06065  1.0000
  S   S9        1.0  0.25925  0.17930  0.04551  1.0000
  Fe  Fe5       1.0  0.25102  0.29998  0.05731  1.0000
  S   S10       1.0  0.22285  0.31552  0.07882  1.0000
  Fe  Fe6       1.0  0.31970  0.28277  0.04142  1.0000
  S   S11       1.0  0.37624  0.28248  0.04084  1.0000
  S   S12       1.0  0.22304  0.27588  0.04087  1.0000
  S   S13       1.0  0.29718  0.25877  0.02358  1.0000
  Fe  Fe7       1.0  0.25800  0.16597  0.16106  1.0000
  S   S14       1.0  0.21472  0.20173  0.16426  1.0000
  S   S15       1.0  0.25626  0.11896  0.14942  1.0000
  Fe  Fe8       1.0  0.30669  0.20947  0.17448  1.0000
  S   S16       1.0  0.26739  0.24886  0.17842  1.0000
  S   S17       1.0  0.35703  0.21283  0.18355  1.0000
  Fe  Fe9       1.0  0.23291  0.20658  0.18688  1.0000
  Fe  Fe10      1.0  0.25293  0.24057  0.15561  1.0000
  S   S18       1.0  0.24264  0.28303  0.13832  1.0000
  S   S19       1.0  0.27309  0.16716  0.18460  1.0000
  S   S20       1.0  0.29535  0.20475  0.15067  1.0000
  Fe  Fe11      1.0  0.16326  0.46565  0.11971  1.0000
  S   S21       1.0  0.11116  0.44595  0.12638  1.0000
  S   S22       1.0  0.19488  0.46239  0.09726  1.0000
  Fe  Fe12      1.0  0.13161  0.42483  0.14796  1.0000
  S   S23       1.0  0.12054  0.37381  0.16026  1.0000
  C   C3        1.0  0.45107  0.23211  0.00019  1.0000
  S   S24       1.0  0.18415  0.44094  0.14037  1.0000
  S   S25       1.0  0.46864  0.31901  0.15948  1.0000
  C   C4        1.0  0.46521  0.44155  0.19011  1.0000
  C   C5        1.0  0.48106  0.44976  0.20237  1.0000
  C   C6        1.0  0.39279  0.24572  0.00669  1.0000
  H   H2        1.0  0.06134  0.41831  0.16960  1.0000
  C   C7        1.0  0.43872  0.49654  0.18773  1.0000
  C   C8        1.0  0.20931  0.36708  0.98368  1.0000
  H   H3        1.0  0.32598  0.02530  0.04264  1.0000
  C   C9        1.0  0.15145  0.34600  0.15338  1.0000
  C   C10       1.0  0.17247  0.35627  0.14036  1.0000
  C   C11       1.0  0.20000  0.33661  0.13568  1.0000
  C   C12       1.0  0.20642  0.30600  0.14386  1.0000
  C   C13       1.0  0.18440  0.29468  0.15655  1.0000
  C   C14       1.0  0.15677  0.31466  0.16128  1.0000
  H   H4        1.0  0.16744  0.37949  0.13382  1.0000
  H   H5        1.0  0.21637  0.34567  0.12580  1.0000
  H   H6        1.0  0.18878  0.27076  0.16278  1.0000
  H   H7        1.0  0.14003  0.30622  0.17120  1.0000
  C   C15       1.0  0.38380  0.24701  0.17779  1.0000
  C   C16       1.0  0.38411  0.26449  0.16335  1.0000
  C   C17       1.0  0.40947  0.28767  0.15812  1.0000
  C   C18       1.0  0.43430  0.29398  0.16737  1.0000
  C   C19       1.0  0.43286  0.27788  0.18212  1.0000
  C   C20       1.0  0.40791  0.25421  0.18724  1.0000
  H   H8        1.0  0.36578  0.25900  0.15596  1.0000
  H   H9        1.0  0.41041  0.30010  0.14671  1.0000
  H   H10       1.0  0.45159  0.28279  0.18940  1.0000
  H   H11       1.0  0.40772  0.24085  0.19844  1.0000
  C   C21       1.0  0.21459  0.35186  0.99815  1.0000
  C   C22       1.0  0.16094  0.37444  0.00806  1.0000
  C   C23       1.0  0.19063  0.35610  0.01042  1.0000
  H   H12       1.0  0.14215  0.37711  0.01753  1.0000
  H   H13       1.0  0.19456  0.34461  0.02165  1.0000
  C   C24       1.0  0.21342  0.35708  0.08259  1.0000
  C   C25       1.0  0.22962  0.38441  0.07412  1.0000
  C   C26       1.0  0.22359  0.41679  0.07854  1.0000
  C   C27       1.0  0.20118  0.42198  0.09135  1.0000
  C   C28       1.0  0.18445  0.39474  0.09950  1.0000
  C   C29       1.0  0.19078  0.36244  0.09524  1.0000
  H   H14       1.0  0.24702  0.38061  0.06430  1.0000
  H   H15       1.0  0.23635  0.43785  0.07207  1.0000
  H   H16       1.0  0.16643  0.39867  0.10904  1.0000
  H   H17       1.0  0.17806  0.34149  0.10184  1.0000
  C   C30       1.0  0.15783  0.12919  0.05033  1.0000
  C   C31       1.0  0.18726  0.11030  0.05162  1.0000
  C   C32       1.0  0.21827  0.12602  0.04977  1.0000
  C   C33       1.0  0.22004  0.16071  0.04661  1.0000
  C   C34       1.0  0.19071  0.17972  0.04498  1.0000
  C   C35       1.0  0.15955  0.16389  0.04676  1.0000
  H   H18       1.0  0.18618  0.08346  0.05398  1.0000
  H   H19       1.0  0.24094  0.11127  0.05098  1.0000
  H   H20       1.0  0.19198  0.20653  0.04250  1.0000
  H   H21       1.0  0.13678  0.17855  0.04575  1.0000
  C   C36       1.0  0.16093  0.08347  0.13235  1.0000
  C   C37       1.0  0.19245  0.07132  0.12703  1.0000
  C   C38       1.0  0.22142  0.08231  0.13244  1.0000
  C   C39       1.0  0.21920  0.10611  0.14290  1.0000
  C   C40       1.0  0.18774  0.11888  0.14796  1.0000
  C   C41       1.0  0.15868  0.10724  0.14285  1.0000
  H   H22       1.0  0.19447  0.05279  0.11904  1.0000
  H   H23       1.0  0.24567  0.07224  0.12850  1.0000
  H   H24       1.0  0.18568  0.13716  0.15605  1.0000
  H   H25       1.0  0.13435  0.11673  0.14702  1.0000
  C   C42       1.0  0.42740  0.17924  0.04650  1.0000
  C   C43       1.0  0.39266  0.18270  0.05010  1.0000
  C   C44       1.0  0.37682  0.21423  0.04845  1.0000
  C   C45       1.0  0.39573  0.24273  0.04354  1.0000
  C   C46       1.0  0.43059  0.23942  0.04027  1.0000
  C   C47       1.0  0.44635  0.20773  0.04156  1.0000
  H   H26       1.0  0.37782  0.16079  0.05395  1.0000
  H   H27       1.0  0.34993  0.21637  0.05094  1.0000
  H   H28       1.0  0.44539  0.26136  0.03648  1.0000
  H   H29       1.0  0.47314  0.20538  0.03881  1.0000
  H   H30       1.0  0.05347  0.42649  0.15000  1.0000
  C   C48       1.0  0.42920  0.18634  0.16278  1.0000
  H   H31       1.0  0.12295  0.29900  0.01108  1.0000
  C   C49       1.0  0.46932  0.19845  0.17965  1.0000
  H   H32       1.0  0.03608  0.39048  0.16164  1.0000
  H   H33       1.0  0.41262  0.03169  0.01635  1.0000
  H   H34       1.0  0.42714  0.13894  0.01698  1.0000
  H   H35       1.0  0.48304  0.24629  0.14636  1.0000
  C   C50       1.0  0.30048  0.50109  0.14737  1.0000
  C   C51       1.0  0.13404  0.30134  0.99938  1.0000
  S   S26       1.0  0.11586  0.40770  0.99048  1.0000
  H   H36       1.0  0.43302  0.45859  0.17298  1.0000
  C   C52       1.0  0.17435  0.05433  0.21192  1.0000
  H   H37       1.0  0.20396  0.30088  0.20578  1.0000
  C   C53       1.0  0.21724  0.08994  0.18988  1.0000
  S   S27       1.0  0.50788  0.32866  0.19868  1.0000
  H   H38       1.0  0.04162  0.47763  0.17101  1.0000
  C   C54       1.0  0.16333  0.15879  0.20533  1.0000
  C   C55       1.0  0.46663  0.03064  0.01355  1.0000
  C   C56       1.0  0.42536  0.25594  0.00162  1.0000
  C   C57       1.0  0.16613  0.28849  0.99569  1.0000
  H   H39       1.0  0.24649  0.31861  0.17563  1.0000
  H   H40       1.0  0.03158  0.46334  0.12820  1.0000
  N   N1        1.0  0.16415  0.31108  0.96971  1.0000
  H   H41       1.0  0.13274  0.11693  0.20297  1.0000
  N   N2        1.0  0.48391  0.22167  0.16877  1.0000
  H   H42       1.0  0.23417  0.10392  0.18133  1.0000
  H   H43       1.0  0.26216  0.37362  0.16218  1.0000
  S   S28       1.0  0.20113  0.21264  0.20882  1.0000
  S   S29       1.0  0.51065  0.42201  0.21034  1.0000
  H   H44       1.0  0.47838  0.19443  0.19074  1.0000
  H   H45       1.0  0.26704  0.51112  0.11838  1.0000
  H   H46       1.0  0.46877  0.41708  0.18632  1.0000
  N   N3        1.0  0.20047  0.33624  0.18650  1.0000
  C   C58       1.0  0.22995  0.33989  0.17728  1.0000
  C   C59       1.0  0.17941  0.36312  0.18835  1.0000
  C   C60       1.0  0.23901  0.37101  0.16964  1.0000
  C   C61       1.0  0.18778  0.39466  0.18093  1.0000
  C   C62       1.0  0.21791  0.39860  0.17164  1.0000
  H   H47       1.0  0.40682  0.17373  0.16074  1.0000
  H   H48       1.0  0.43064  0.28231  0.99905  1.0000
  Fe  Fe13      1.0  0.10218  0.49254  0.13814  1.0000
  H   H49       1.0  0.16473  0.30063  0.19750  1.0000
  H   H50       1.0  0.36123  0.20412  0.01488  1.0000
  H   H51       1.0  0.22468  0.42301  0.16593  1.0000
  H   H52       1.0  0.09248  0.32978  0.99087  1.0000
  H   H53       1.0  0.20646  0.28487  0.97812  1.0000
  H   H54       1.0  0.47662  0.23957  0.99633  1.0000
  N   N4        1.0  0.29917  0.31702  0.09721  1.0000
  C   C63       1.0  0.31112  0.28685  0.10314  1.0000
  C   C64       1.0  0.31089  0.33040  0.08292  1.0000
  C   C65       1.0  0.33630  0.26968  0.09485  1.0000
  C   C66       1.0  0.33635  0.31412  0.07441  1.0000
  C   C67       1.0  0.34916  0.28361  0.08045  1.0000
  C   C68       1.0  0.27298  0.33435  0.10622  1.0000
  H   H55       1.0  0.30102  0.27595  0.11433  1.0000
  H   H56       1.0  0.30036  0.35362  0.07798  1.0000
  H   H57       1.0  0.34563  0.24566  0.09951  1.0000
  H   H58       1.0  0.34570  0.32478  0.06308  1.0000
  H   H59       1.0  0.36856  0.27051  0.07383  1.0000
  H   H60       1.0  0.24937  0.32019  0.10721  1.0000
  H   H61       1.0  0.28013  0.33609  0.11780  1.0000
  H   H62       1.0  0.26793  0.36006  0.10100  1.0000
  N   N5        1.0  0.21797  0.17030  0.09789  1.0000
  C   C69       1.0  0.22218  0.17916  0.11195  1.0000
  C   C70       1.0  0.21168  0.19419  0.08637  1.0000
  C   C71       1.0  0.22054  0.21274  0.11472  1.0000
  C   C72       1.0  0.20984  0.22797  0.08875  1.0000
  C   C73       1.0  0.21430  0.23726  0.10303  1.0000
  C   C74       1.0  0.21820  0.13490  0.09543  1.0000
  H   H63       1.0  0.22683  0.16024  0.12113  1.0000
  H   H64       1.0  0.20802  0.18724  0.07526  1.0000
  H   H65       1.0  0.22381  0.21972  0.12590  1.0000
  H   H66       1.0  0.20482  0.24682  0.07959  1.0000
  H   H67       1.0  0.21271  0.26340  0.10504  1.0000
  H   H68       1.0  0.23712  0.12058  0.10185  1.0000
  H   H69       1.0  0.19311  0.12419  0.09927  1.0000
  H   H70       1.0  0.22460  0.13136  0.08324  1.0000
  H   H71       1.0  0.20146  0.28288  0.18835  1.0000
  H   H72       1.0  0.50674  0.25090  0.18320  1.0000
  H   H73       1.0  0.22793  0.36423  0.97418  1.0000
  H   H74       1.0  0.19112  0.06827  0.17355  1.0000
  H   H75       1.0  0.37276  0.26412  0.00820  1.0000
  C   C75       1.0  0.21936  0.09195  0.20533  1.0000
  C   C76       1.0  0.47445  0.48099  0.20777  1.0000
  C   C77       1.0  0.19223  0.30371  0.19498  1.0000
  C   C78       1.0  0.19305  0.06987  0.18550  1.0000
  H   H76       1.0  0.18024  0.27621  0.00449  1.0000
  H   H77       1.0  0.39651  0.14233  0.00340  1.0000
  H   H78       1.0  0.42893  0.16346  0.18574  1.0000
  Fe  Fe14      1.0  0.10216  0.41870  0.96646  1.0000
  H   H79       1.0  0.38494  0.14941  0.02305  1.0000
  C   C79       1.0  0.32786  0.50827  0.15491  1.0000
  C   C80       1.0  0.11690  0.31854  0.98805  1.0000
  C   C81       1.0  0.13232  0.32288  0.97316  1.0000
  H   H80       1.0  0.15570  0.36024  0.19538  1.0000
  S   S30       1.0  0.50263  0.12156  0.01219  1.0000
  C   C82       1.0  0.44459  0.20964  0.15166  1.0000
  C   C83       1.0  0.44381  0.19834  0.00404  1.0000
  C   C84       1.0  0.17139  0.05195  0.19657  1.0000
  C   C85       1.0  0.44442  0.46494  0.18273  1.0000
  S   S31       1.0  0.11894  0.46963  0.16031  1.0000
  H   H81       1.0  0.24364  0.49588  0.13611  1.0000
  S   S32       1.0  0.20912  0.49664  0.16696  1.0000
  H   H82       1.0  0.17087  0.16366  0.19329  1.0000
  H   H83       1.0  0.29016  0.47623  0.14934  1.0000
  H   H84       1.0  0.46403  0.18012  0.00295  1.0000
  Fe  Fe15      1.0  0.49825  0.12994  0.03673  1.0000
  C   C86       1.0  0.38647  0.21173  0.01053  1.0000
  H   H85       1.0  0.46876  0.05567  0.01658  1.0000
  Fe  Fe16      1.0  0.17036  0.48763  0.15116  1.0000
  C   C87       1.0  0.44162  0.18060  0.17686  1.0000
  C   C88       1.0  0.03219  0.02551  0.04882  1.0000
  C   C89       1.0  0.04220  0.41723  0.16155  1.0000
  H   H86       1.0  0.15222  0.03656  0.19330  1.0000
  Fe  Fe17      1.0  0.50860  0.33483  0.17331  1.0000
  H   H87       1.0  0.17083  0.41588  0.18219  1.0000
  C   C90       1.0  0.15501  0.38841  0.99344  1.0000
  C   C91       1.0  0.14171  0.13242  0.21082  1.0000
  N   N6        1.0  0.41195  0.18859  0.00939  1.0000
  C   C92       1.0  0.17964  0.38521  0.98134  1.0000
  C   C93       1.0  0.43485  0.01695  0.01350  1.0000
  C   C94       1.0  0.03919  0.03834  0.12670  1.0000
  H   H88       1.0  0.23801  0.10793  0.20862  1.0000
  H   H89       1.0  0.33874  0.48930  0.16260  1.0000
  C   C95       1.0  0.45317  0.50439  0.20048  1.0000
  C   C96       1.0  0.47210  0.22722  0.15486  1.0000
  H   H90       1.0  0.26245  0.51074  0.18371  1.0000
  H   H91       1.0  0.07601  0.05358  0.05134  1.0000
  H   H92       1.0  0.04459  0.10682  0.05323  1.0000
  H   H93       1.0  0.05103  0.06155  0.12813  1.0000
  H   H94       1.0  0.17584  0.39651  0.97014  1.0000
  C   C97       1.0  0.04921  0.05438  0.05064  1.0000
  C   C98       1.0  0.03148  0.08441  0.05165  1.0000
  C   C99       1.0  0.17456  0.17917  0.21541  1.0000
  H   H95       1.0  0.26723  0.02795  0.04311  1.0000
  N   N7        1.0  0.19790  0.07443  0.21611  1.0000
  C   C100      1.0  0.50319  0.51262  0.15686  1.0000
  C   C101      1.0  0.51243  0.24051  0.17214  1.0000
  S   S33       1.0  0.15317  0.51439  0.12981  1.0000
  H   H96       1.0  0.51580  0.48032  0.13926  1.0000
  H   H97       1.0  0.34166  0.01858  0.02337  1.0000
  H   H98       1.0  0.49850  0.40492  0.41615  1.0000
  S   S34       1.0  0.29636  0.07517  0.43712  1.0000
  C   C102      1.0  0.46513  0.50779  0.38484  1.0000
  H   H99       1.0  0.04585  0.42963  0.34380  1.0000
  S   S35       1.0  0.36257  0.05783  0.41527  1.0000
  H   H100      1.0  0.19441  0.09356  0.43644  1.0000
  Fe  Fe18      1.0  0.34332  0.10200  0.42697  1.0000
  S   S36       1.0  0.34526  0.15459  0.41484  1.0000
  H   H101      1.0  0.34904  0.16491  0.44900  1.0000
  Fe  Fe19      1.0  0.31883  0.02902  0.42760  1.0000
  S   S37       1.0  0.37088  0.08922  0.44734  1.0000
  H   H102      1.0  0.48311  0.50976  0.41932  1.0000
  H   H103      1.0  0.42767  0.09182  0.40694  1.0000
  Fe  Fe20      1.0  0.10151  0.07686  0.25842  1.0000
  S   S38       1.0  0.13994  0.08665  0.27377  1.0000
  S   S39       1.0  0.10791  0.09048  0.23310  1.0000
  Fe  Fe21      1.0  0.05580  0.04175  0.28398  1.0000
  S   S40       1.0  0.09106  0.04785  0.30137  1.0000
  C   C103      1.0  0.10306  0.22102  0.25992  1.0000
  Fe  Fe22      1.0  0.09592  0.10024  0.28992  1.0000
  S   S41       1.0  0.09417  0.14288  0.30472  1.0000
  S   S42       1.0  0.44374  0.03631  0.42964  1.0000
  S   S43       1.0  0.05817  0.09490  0.27363  1.0000
  C   C104      1.0  0.20996  0.07576  0.45834  1.0000
  C   C105      1.0  0.07424  0.27005  0.26843  1.0000
  H   H104      1.0  0.06736  0.25051  0.24743  1.0000
  C   C106      1.0  0.50884  0.42967  0.41569  1.0000
  N   N8        1.0  0.11879  0.21672  0.27289  1.0000
  S   S44       1.0  0.47838  0.23843  0.41155  1.0000
  H   H105      1.0  0.05109  0.16482  0.28119  1.0000
  S   S45       1.0  0.46300  0.40630  0.38628  1.0000
  S   S46       1.0  0.47766  0.31225  0.37527  1.0000
  N   N9        1.0  0.23372  0.02027  0.46058  1.0000
  C   C107      1.0  0.47699  0.44824  0.38282  1.0000
  C   C108      1.0  0.45432  0.47446  0.38602  1.0000
  H   H106      1.0  0.50337  0.13061  0.41786  1.0000
  H   H107      1.0  0.42836  0.46886  0.38977  1.0000
  C   C109      1.0  0.03986  0.48134  0.34818  1.0000
  H   H108      1.0  0.20612  0.10244  0.23427  1.0000
  C   C110      1.0  0.49982  0.48861  0.41751  1.0000
  C   C111      1.0  0.45782  0.17290  0.38292  1.0000
  C   C112      1.0  0.06103  0.19912  0.31359  1.0000
  C   C113      1.0  0.06548  0.17658  0.30253  1.0000
  C   C114      1.0  0.20106  0.07641  0.23223  1.0000
  C   C115      1.0  0.48328  0.11418  0.41544  1.0000
  N   N10       1.0  0.46493  0.12927  0.40299  1.0000
  C   C116      1.0  0.20512  0.07287  0.44326  1.0000
  Fe  Fe23      1.0  0.32575  0.05907  0.45670  1.0000
  H   H109      1.0  0.46587  0.10963  0.42601  1.0000
  C   C117      1.0  0.29561  0.23089  0.45234  1.0000
  H   H110      1.0  0.16483  0.19156  0.26718  1.0000
  C   C118      1.0  0.43639  0.11446  0.40012  1.0000
  C   C119      1.0  0.31705  0.20786  0.44544  1.0000
  C   C120      1.0  0.14345  0.14604  0.23650  1.0000
  C   C121      1.0  0.16431  0.17300  0.23097  1.0000
  H   H111      1.0  0.39401  0.11787  0.38700  1.0000
  C   C122      1.0  0.51041  0.45588  0.37789  1.0000
  H   H112      1.0  0.13614  0.14090  0.24852  1.0000
  H   H113      1.0  0.17313  0.18875  0.23874  1.0000
  C   C123      1.0  0.09091  0.26585  0.28146  1.0000
  C   C124      1.0  0.33272  0.18289  0.45449  1.0000
  H   H114      1.0  0.14897  0.18470  0.28700  1.0000
  C   C125      1.0  0.02650  0.20992  0.28797  1.0000
  C   C126      1.0  0.38132  0.17918  0.41457  1.0000
  C   C127      1.0  0.38526  0.20866  0.40459  1.0000
  C   C128      1.0  0.41445  0.22781  0.40372  1.0000
  C   C129      1.0  0.43962  0.21782  0.41303  1.0000
  C   C130      1.0  0.43501  0.18907  0.42338  1.0000
  C   C131      1.0  0.40623  0.16968  0.42404  1.0000
  H   H115      1.0  0.36603  0.21635  0.39727  1.0000
  H   H116      1.0  0.41768  0.24997  0.39573  1.0000
  H   H117      1.0  0.45428  0.18128  0.43067  1.0000
  H   H118      1.0  0.40365  0.14720  0.43178  1.0000
  H   H119      1.0  0.12517  0.23516  0.29395  1.0000
  H   H120      1.0  0.03638  0.24449  0.32032  1.0000
  H   H121      1.0  0.46073  0.45215  0.42208  1.0000
  H   H122      1.0  0.08539  0.28259  0.29019  1.0000
  H   H123      1.0  0.21184  0.04099  0.42513  1.0000
  H   H124      1.0  0.10749  0.20345  0.25149  1.0000
  Fe  Fe24      1.0  0.49500  0.35890  0.38413  1.0000
  H   H125      1.0  0.03042  0.48765  0.31020  1.0000
  C   C132      1.0  0.03926  0.22697  0.31187  1.0000
  Fe  Fe25      1.0  0.49703  0.28429  0.39595  1.0000
  C   C133      1.0  0.11323  0.23887  0.28353  1.0000
  S   S47       1.0  0.09568  0.02271  0.26722  1.0000
  C   C134      1.0  0.04777  0.18185  0.28981  1.0000
  C   C135      1.0  0.13220  0.12565  0.22643  1.0000
  H   H126      1.0  0.28288  0.25004  0.44546  1.0000
  Fe  Fe26      1.0  0.13159  0.03324  0.28371  1.0000
  C   C136      1.0  0.42825  0.15837  0.38016  1.0000
  C   C137      1.0  0.08046  0.24765  0.25752  1.0000
  H   H127      1.0  0.17750  0.06905  0.23943  1.0000
  H   H128      1.0  0.32131  0.20907  0.43316  1.0000
  H   H129      1.0  0.49448  0.08980  0.41263  1.0000
  C   C138      1.0  0.47599  0.15793  0.39446  1.0000
  Fe  Fe27      1.0  0.38845  0.04372  0.43617  1.0000
  H   H130      1.0  0.05579  0.29009  0.26705  1.0000
  C   C139      1.0  0.48729  0.45633  0.41907  1.0000
  H   H131      1.0  0.41328  0.17038  0.37162  1.0000
  H   H132      1.0  0.07468  0.19518  0.32347  1.0000
  C   C140      1.0  0.02975  0.44818  0.34903  1.0000
  C   C141      1.0  0.02232  0.23270  0.29891  1.0000
  H   H133      1.0  0.22165  0.05961  0.23597  1.0000
  C   C142      1.0  0.41745  0.12889  0.38876  1.0000
  H   H134      1.0  0.48633  0.48733  0.21739  1.0000
  C   C143      1.0  0.14176  0.18818  0.27521  1.0000
  H   H135      1.0  0.12938  0.16475  0.27351  1.0000
  H   H136      1.0  0.02293  0.02174  0.25949  1.0000
  H   H137      1.0  0.15710  0.04067  0.22046  1.0000
  H   H138      1.0  0.06437  0.48807  0.34251  1.0000
  H   H139      1.0  0.51340  0.02217  0.42528  1.0000
  H   H140      1.0  0.02399  0.12019  0.32777  1.0000
  H   H141      1.0  0.27950  0.11724  0.46136  1.0000
  H   H142      1.0  0.46596  0.19636  0.37662  1.0000
  H   H143      1.0  0.49812  0.17030  0.39694  1.0000
  S   S48       1.0  0.51076  0.33098  0.40559  1.0000
  H   H144      1.0  0.20311  0.09871  0.46335  1.0000
  C   C144      1.0  0.21470  0.04342  0.43694  1.0000
  C   C145      1.0  0.22901  0.01723  0.44582  1.0000
  H   H145      1.0  0.01733  0.08070  0.30878  1.0000
  N   N11       1.0  0.01859  0.50521  0.35379  1.0000
  C   C146      1.0  0.49883  0.51524  0.38044  1.0000
  Fe  Fe28      1.0  0.19158  0.20211  0.51699  1.0000
  S   S49       1.0  0.15565  0.16592  0.53083  1.0000
  S   S50       1.0  0.22304  0.19362  0.49496  1.0000
  Fe  Fe29      1.0  0.16875  0.25950  0.53569  1.0000
  S   S51       1.0  0.13172  0.22765  0.55087  1.0000
  S   S52       1.0  0.16567  0.31410  0.53927  1.0000
  Fe  Fe30      1.0  0.17264  0.18837  0.55083  1.0000
  S   S53       1.0  0.18020  0.16391  0.57441  1.0000
  Fe  Fe31      1.0  0.11827  0.20882  0.52970  1.0000
  S   S54       1.0  0.06514  0.20781  0.52340  1.0000
  S   S55       1.0  0.21102  0.22186  0.53708  1.0000
  S   S56       1.0  0.15287  0.24316  0.51444  1.0000
  Fe  Fe32      1.0  0.26688  0.43961  0.60567  1.0000
  S   S57       1.0  0.31417  0.41885  0.59461  1.0000
  S   S58       1.0  0.25192  0.42520  0.63057  1.0000
  S   S59       1.0  0.29802  0.46504  0.56379  1.0000
  Fe  Fe33      1.0  0.28355  0.41487  0.57543  1.0000
  S   S60       1.0  0.29226  0.36759  0.56440  1.0000
  Fe  Fe34      1.0  0.32959  0.47231  0.58386  1.0000
  S   S61       1.0  0.23493  0.43204  0.58724  1.0000
  Fe  Fe35      1.0  0.18088  0.21326  0.69549  1.0000
  S   S62       1.0  0.14189  0.22030  0.67920  1.0000
  S   S63       1.0  0.20459  0.16205  0.69822  1.0000
  Fe  Fe36      1.0  0.16996  0.28294  0.70548  1.0000
  S   S64       1.0  0.13013  0.29562  0.68968  1.0000
  Fe  Fe37      1.0  0.11033  0.24407  0.69751  1.0000
  H   H146      1.0  0.11473  0.32411  0.51553  1.0000
  Fe  Fe38      1.0  0.16523  0.27068  0.67279  1.0000
  S   S65       1.0  0.17899  0.28666  0.64785  1.0000
  C   C147      1.0  0.37711  0.45198  0.58198  1.0000
  S   S66       1.0  0.20661  0.26193  0.68788  1.0000
  Fe  Fe39      1.0  0.31025  0.05137  0.61552  1.0000
  S   S67       1.0  0.35780  0.06590  0.62420  1.0000
  S   S68       1.0  0.30014  0.06593  0.59112  1.0000
  Fe  Fe40      1.0  0.32385  0.07919  0.64437  1.0000
  S   S69       1.0  0.33091  0.12811  0.65348  1.0000
  C   C148      1.0  0.09945  0.38038  0.52822  1.0000
  S   S70       1.0  0.27658  0.06857  0.63484  1.0000
  C   C149      1.0  0.01968  0.28346  0.54474  1.0000
  H   H147      1.0  0.48040  0.10259  0.66130  1.0000
  C   C150      1.0  0.17255  0.06404  0.59117  1.0000
  S   S71       1.0  0.05637  0.23201  0.70688  1.0000
  C   C151      1.0  0.24019  0.15333  0.68596  1.0000
  C   C152      1.0  0.24566  0.12067  0.68214  1.0000
  C   C153      1.0  0.27350  0.11289  0.67217  1.0000
  C   C154      1.0  0.29650  0.13759  0.66629  1.0000
  C   C155      1.0  0.29147  0.17018  0.67031  1.0000
  C   C156      1.0  0.26311  0.17816  0.68002  1.0000
  H   H148      1.0  0.22807  0.10139  0.68678  1.0000
  H   H149      1.0  0.27721  0.08766  0.66917  1.0000
  H   H150      1.0  0.30929  0.18932  0.66581  1.0000
  H   H151      1.0  0.25919  0.20330  0.68310  1.0000
  Fe  Fe41      1.0  0.25190  0.48316  0.57714  1.0000
  C   C157      1.0  0.30679  0.20392  0.47683  1.0000
  H   H152      1.0  0.49012  0.43959  0.60859  1.0000
  H   H153      1.0  0.24676  0.26390  0.63397  1.0000
  H   H154      1.0  0.37426  0.45175  0.60749  1.0000
  C   C158      1.0  0.27781  0.09633  0.48468  1.0000
  H   H155      1.0  0.28869  0.20030  0.62852  1.0000
  C   C159      1.0  0.23215  0.38639  0.63523  1.0000
  C   C160      1.0  0.21941  0.37686  0.65031  1.0000
  C   C161      1.0  0.20324  0.34616  0.65430  1.0000
  C   C162      1.0  0.19968  0.32494  0.64321  1.0000
  C   C163      1.0  0.21283  0.33420  0.62816  1.0000
  C   C164      1.0  0.22902  0.36488  0.62416  1.0000
  H   H156      1.0  0.22173  0.39355  0.65883  1.0000
  H   H157      1.0  0.19301  0.33904  0.66587  1.0000
  H   H158      1.0  0.21045  0.31760  0.61962  1.0000
  H   H159      1.0  0.23911  0.37192  0.61255  1.0000
  C   C165      1.0  0.20193  0.33013  0.54488  1.0000
  C   C166      1.0  0.23140  0.31095  0.54509  1.0000
  C   C167      1.0  0.25959  0.32334  0.55048  1.0000
  C   C168      1.0  0.25821  0.35474  0.55587  1.0000
  C   C169      1.0  0.22905  0.37440  0.55527  1.0000
  C   C170      1.0  0.20095  0.36213  0.54970  1.0000
  H   H160      1.0  0.23251  0.28654  0.54116  1.0000
  H   H161      1.0  0.28224  0.30822  0.55082  1.0000
  H   H162      1.0  0.22804  0.39887  0.55920  1.0000
  H   H163      1.0  0.17827  0.37719  0.54942  1.0000
  C   C171      1.0  0.24118  0.15458  0.49134  1.0000
  C   C172      1.0  0.24766  0.13007  0.50306  1.0000
  C   C173      1.0  0.26585  0.10092  0.49971  1.0000
  H   H164      1.0  0.23945  0.13398  0.51471  1.0000
  H   H165      1.0  0.27128  0.08225  0.50883  1.0000
  C   C174      1.0  0.21604  0.13995  0.57869  1.0000
  C   C175      1.0  0.23938  0.12920  0.56736  1.0000
  C   C176      1.0  0.26584  0.10743  0.57133  1.0000
  C   C177      1.0  0.26925  0.09651  0.58662  1.0000
  C   C178      1.0  0.24646  0.10823  0.59791  1.0000
  C   C179      1.0  0.22000  0.12981  0.59397  1.0000
  H   H166      1.0  0.23653  0.13686  0.55555  1.0000
  H   H167      1.0  0.28331  0.09844  0.56251  1.0000
  H   H168      1.0  0.24847  0.09988  0.60966  1.0000
  H   H169      1.0  0.20197  0.13799  0.60278  1.0000
  C   C180      1.0  0.03909  0.24210  0.52778  1.0000
  N   N12       1.0  0.21513  0.38819  0.69729  1.0000
  H   H170      1.0  0.39842  0.13516  0.66446  1.0000
  H   H171      1.0  0.06157  0.24975  0.54794  1.0000
  H   H172      1.0  0.04753  0.22218  0.67549  1.0000
  C   C181      1.0  0.08845  0.41288  0.53057  1.0000
  C   C182      1.0  0.21994  0.40984  0.70764  1.0000
  C   C183      1.0  0.24170  0.37105  0.69072  1.0000
  C   C184      1.0  0.35216  0.49997  0.59729  1.0000
  C   C185      1.0  0.14391  0.48895  0.54929  1.0000
  C   C186      1.0  0.02934  0.20677  0.69872  1.0000
  C   C187      1.0  0.44670  0.02656  0.67238  1.0000
  H   H173      1.0  0.27139  0.14203  0.62888  1.0000
  N   N13       1.0  0.19774  0.30969  0.58526  1.0000
  C   C188      1.0  0.17581  0.28681  0.58196  1.0000
  C   C189      1.0  0.23093  0.30143  0.58577  1.0000
  C   C190      1.0  0.18698  0.25479  0.57895  1.0000
  C   C191      1.0  0.24302  0.26978  0.58256  1.0000
  C   C192      1.0  0.22082  0.24633  0.57913  1.0000
  C   C193      1.0  0.18515  0.34273  0.58883  1.0000
  H   H174      1.0  0.14953  0.29334  0.58149  1.0000
  H   H175      1.0  0.24846  0.31968  0.58821  1.0000
  H   H176      1.0  0.16955  0.23661  0.57641  1.0000
  H   H177      1.0  0.26952  0.26376  0.58244  1.0000
  H   H178      1.0  0.22968  0.22167  0.57653  1.0000
  H   H179      1.0  0.17182  0.34097  0.60047  1.0000
  H   H180      1.0  0.20579  0.36084  0.58814  1.0000
  H   H181      1.0  0.16768  0.35307  0.58058  1.0000
  C   C194      1.0  0.18154  0.38427  0.69277  1.0000
  S   S72       1.0  0.28035  0.49206  0.59662  1.0000
  C   C195      1.0  0.41335  0.03458  0.67034  1.0000
  C   C196      1.0  0.36823  0.46577  0.59703  1.0000
  C   C197      1.0  0.25204  0.14928  0.47629  1.0000
  H   H182      1.0  0.40809  0.12484  0.64532  1.0000
  H   H183      1.0  0.09261  0.30944  0.53355  1.0000
  N   N14       1.0  0.42844  0.09145  0.66215  1.0000
  C   C198      1.0  0.25194  0.41424  0.71190  1.0000
  C   C199      1.0  0.48612  0.46205  0.60114  1.0000
  H   H184      1.0  0.21964  0.12208  0.64491  1.0000
  H   H185      1.0  0.49705  0.04505  0.67035  1.0000
  H   H186      1.0  0.19003  0.46996  0.55776  1.0000
  H   H187      1.0  0.10564  0.43099  0.53336  1.0000
  N   N15       1.0  0.20448  0.02820  0.60784  1.0000
  H   H188      1.0  0.13769  0.46532  0.54576  1.0000
  C   C200      1.0  0.35309  0.50657  0.56847  1.0000
  H   H189      1.0  0.28512  0.25006  0.64200  1.0000
  C   C201      1.0  0.03294  0.39849  0.52583  1.0000
  H   H190      1.0  0.20285  0.22027  0.65871  1.0000
  H   H191      1.0  0.36927  0.16220  0.48082  1.0000
  H   H192      1.0  0.43588  0.04678  0.63019  1.0000
  H   H193      1.0  0.43442  0.45145  0.59979  1.0000
  C   C202      1.0  0.48811  0.03957  0.63397  1.0000
  C   C203      1.0  0.05500  0.42195  0.52936  1.0000
  H   H194      1.0  0.29490  0.36060  0.68977  1.0000
  H   H195      1.0  0.27311  0.24613  0.47368  1.0000
  H   H196      1.0  0.23788  0.35378  0.68257  1.0000
  C   C204      1.0  0.17355  0.49146  0.55619  1.0000
  C   C205      1.0  0.46126  0.08380  0.66407  1.0000
  H   H197      1.0  0.02743  0.34832  0.52070  1.0000
  H   H198      1.0  0.19885  0.42319  0.71297  1.0000
  C   C206      1.0  0.27404  0.37489  0.69470  1.0000
  C   C207      1.0  0.34367  0.15445  0.47925  1.0000
  S   S73       1.0  0.30181  0.06038  0.48075  1.0000
  C   C208      1.0  0.22216  0.03548  0.58108  1.0000
  H   H199      1.0  0.20286  0.03024  0.63174  1.0000
  H   H200      1.0  0.18526  0.16177  0.65992  1.0000
  C   C209      1.0  0.44853  0.49813  0.58674  1.0000
  C   C210      1.0  0.45430  0.46884  0.59615  1.0000
  N   N16       1.0  0.07776  0.35772  0.52451  1.0000
  S   S74       1.0  0.08661  0.51299  0.53729  1.0000
  C   C211      1.0  0.02883  0.20800  0.68300  1.0000
  C   C212      1.0  0.41839  0.12529  0.65639  1.0000
  H   H201      1.0  0.17782  0.40145  0.68246  1.0000
  H   H202      1.0  0.24635  0.29431  0.71448  1.0000
  H   H203      1.0  0.43960  0.14288  0.65477  1.0000
  H   H204      1.0  0.30189  0.20220  0.48910  1.0000
  H   H205      1.0  0.04628  0.44711  0.53123  1.0000
  H   H206      1.0  0.22884  0.05175  0.47847  1.0000
  C   C213      1.0  0.51271  0.48415  0.59672  1.0000
  H   H207      1.0  0.49449  0.06526  0.63022  1.0000
  C   C214      1.0  0.29041  0.22896  0.46814  1.0000
  C   C215      1.0  0.47084  0.05131  0.66931  1.0000
  C   C216      1.0  0.08984  0.32371  0.52236  1.0000
  H   H208      1.0  0.24824  0.25867  0.65417  1.0000
  C   C217      1.0  0.36940  0.47232  0.56757  1.0000
  H   H209      1.0  0.07250  0.31009  0.51637  1.0000
  C   C218      1.0  0.04230  0.25792  0.54073  1.0000
  H   H210      1.0  0.19208  0.06949  0.56758  1.0000
  H   H211      1.0  0.37659  0.46317  0.55668  1.0000
  H   H212      1.0  0.38972  0.42794  0.58152  1.0000
  H   H213      1.0  0.32918  0.14864  0.49055  1.0000
  C   C219      1.0  0.04481  0.36631  0.52343  1.0000
  C   C220      1.0  0.27052  0.12046  0.47297  1.0000
  H   H214      1.0  0.17782  0.35815  0.69047  1.0000
  S   S75       1.0  0.40859  0.50904  0.58048  1.0000
  N   N17       1.0  0.24690  0.21361  0.64370  1.0000
  C   C221      1.0  0.26562  0.19218  0.63518  1.0000
  C   C222      1.0  0.21780  0.20322  0.65208  1.0000
  C   C223      1.0  0.25587  0.15911  0.63530  1.0000
  C   C224      1.0  0.20751  0.17021  0.65264  1.0000
  C   C225      1.0  0.22680  0.14800  0.64423  1.0000
  C   C226      1.0  0.25740  0.24824  0.64339  1.0000
  H   H215      1.0  0.15193  0.08159  0.58951  1.0000
  H   H216      1.0  0.34531  0.13080  0.47382  1.0000
  C   C227      1.0  0.02100  0.03008  0.69584  1.0000
  H   H217      1.0  0.34729  0.51062  0.60797  1.0000
  S   S76       1.0  0.14782  0.23327  0.71447  1.0000
  H   H218      1.0  0.12543  0.37334  0.52936  1.0000
  H   H219      1.0  0.02183  0.29495  0.55502  1.0000
  H   H220      1.0  0.16185  0.38910  0.70208  1.0000
  C   C228      1.0  0.40459  0.06740  0.66527  1.0000
  C   C229      1.0  0.45486  0.02919  0.63396  1.0000
  H   H221      1.0  0.37867  0.07358  0.66363  1.0000
  C   C230      1.0  0.27909  0.39651  0.70542  1.0000
  H   H222      1.0  0.24693  0.16807  0.46717  1.0000
  H   H223      1.0  0.03784  0.07036  0.66044  1.0000
  C   C231      1.0  0.02713  0.06552  0.67214  1.0000
  N   N18       1.0  0.32709  0.18089  0.46997  1.0000
  C   C232      1.0  0.50730  0.51301  0.58703  1.0000
  C   C233      1.0  0.19506  0.05717  0.57881  1.0000
  C   C234      1.0  0.17753  0.04904  0.60568  1.0000
  S   S77       1.0  0.32666  0.02879  0.65752  1.0000
  H   H224      1.0  0.15997  0.05452  0.61525  1.0000
  C   C235      1.0  0.03556  0.03626  0.68086  1.0000
  H   H225      1.0  0.24052  0.03092  0.57165  1.0000
  H   H226      1.0  0.30383  0.39877  0.70905  1.0000
  H   H227      1.0  0.05237  0.01782  0.67594  1.0000
  C   C236      1.0  0.22655  0.02115  0.59576  1.0000
  C   C237      1.0  0.51307  0.01708  0.63895  1.0000
  C   C238      1.0  0.22449  0.04908  0.46686  1.0000
  Fe  Fe42      1.0  0.28176  0.01646  0.64618  1.0000
  Fe  Fe43      1.0  0.47489  0.13536  0.84043  1.0000
  S   S78       1.0  0.45658  0.18388  0.84910  1.0000
  S   S79       1.0  0.44316  0.08880  0.84597  1.0000
  C   C239      1.0  0.46509  0.15227  0.89266  1.0000
  H   H228      1.0  0.33030  0.28876  0.75764  1.0000
  Fe  Fe44      1.0  0.47148  0.20792  0.82536  1.0000
  S   S80       1.0  0.44212  0.23925  0.80837  1.0000
  H   H229      1.0  0.08123  0.22186  0.84309  1.0000
  C   C240      1.0  0.17996  0.31700  0.95408  1.0000
  C   C241      1.0  0.34534  0.26017  0.79369  1.0000
  Fe  Fe45      1.0  0.29408  0.45319  0.77510  1.0000
  S   S81       1.0  0.32175  0.45145  0.75190  1.0000
  H   H230      1.0  0.41552  0.40974  0.79296  1.0000
  Fe  Fe46      1.0  0.34206  0.40199  0.78955  1.0000
  S   S82       1.0  0.37315  0.39755  0.76746  1.0000
  S   S83       1.0  0.35694  0.37341  0.81123  1.0000
  Fe  Fe47      1.0  0.36785  0.45317  0.76390  1.0000
  H   H231      1.0  0.05931  0.27433  0.85264  1.0000
  Fe  Fe48      1.0  0.32374  0.39598  0.75784  1.0000
  S   S84       1.0  0.31920  0.35727  0.74151  1.0000
  S   S85       1.0  0.34020  0.45830  0.78672  1.0000
  S   S86       1.0  0.29261  0.39713  0.78027  1.0000
  Fe  Fe49      1.0  0.11008  0.46004  0.93595  1.0000
  H   H232      1.0  0.44034  0.50800  0.80364  1.0000
  H   H233      1.0  0.42992  0.41386  0.81083  1.0000
  Fe  Fe50      1.0  0.09935  0.38399  0.93803  1.0000
  C   C242      1.0  0.03668  0.21318  0.83265  1.0000
  S   S87       1.0  0.10840  0.33095  0.93211  1.0000
  S   S88       1.0  0.06469  0.38496  0.95935  1.0000
  C   C243      1.0  0.05653  0.23118  0.84072  1.0000
  H   H234      1.0  0.47833  0.16633  0.90024  1.0000
  C   C244      1.0  0.46942  0.09902  0.88170  1.0000
  S   S89       1.0  0.07472  0.42806  0.92593  1.0000
  S   S90       1.0  0.13861  0.41527  0.94574  1.0000
  C   C245      1.0  0.49086  0.03951  0.83982  1.0000
  C   C246      1.0  0.32359  0.27995  0.81802  1.0000
  H   H235      1.0  0.36364  0.24504  0.77173  1.0000
  C   C247      1.0  0.30852  0.30875  0.77795  1.0000
  Fe  Fe51      1.0  0.51061  0.19120  0.85287  1.0000
  H   H236      1.0  0.44046  0.14469  0.89878  1.0000
  H   H237      1.0  0.36026  0.24133  0.79972  1.0000
  C   C248      1.0  0.30746  0.30648  0.79377  1.0000
  H   H238      1.0  0.29384  0.32766  0.77187  1.0000
  C   C249      1.0  0.42619  0.49918  0.78179  1.0000
  N   N19       1.0  0.32590  0.28251  0.80141  1.0000
  H   H239      1.0  0.16977  0.29959  0.94693  1.0000
  C   C250      1.0  0.27971  0.34518  0.73716  1.0000
  H   H240      1.0  0.03464  0.03521  0.89990  1.0000
  H   H241      1.0  0.50946  0.05870  0.83905  1.0000
  C   C251      1.0  0.34745  0.26217  0.77784  1.0000
  C   C252      1.0  0.21929  0.35212  0.73831  1.0000
  C   C253      1.0  0.25012  0.36039  0.74297  1.0000
  C   C254      1.0  0.48793  0.43958  0.79989  1.0000
  C   C255      1.0  0.04395  0.26089  0.84609  1.0000
  H   H242      1.0  0.04581  0.18975  0.82867  1.0000
  H   H243      1.0  0.25102  0.37910  0.75074  1.0000
  H   H244      1.0  0.05662  0.50269  0.92338  1.0000
  C   C256      1.0  0.06246  0.26690  0.90902  1.0000
  C   C257      1.0  0.08065  0.28032  0.91954  1.0000
  C   C258      1.0  0.08442  0.31500  0.91910  1.0000
  C   C259      1.0  0.06958  0.33620  0.90816  1.0000
  S   S91       1.0  0.24909  0.48831  0.77528  1.0000
  H   H245      1.0  0.11917  0.33673  0.96444  1.0000
  H   H246      1.0  0.09216  0.26376  0.92795  1.0000
  H   H247      1.0  0.07259  0.36291  0.90762  1.0000
  C   C260      1.0  0.05214  0.32277  0.89742  1.0000
  C   C261      1.0  0.21778  0.32856  0.72790  1.0000
  C   C262      1.0  0.42310  0.27902  0.80948  1.0000
  C   C263      1.0  0.41444  0.29223  0.82327  1.0000
  C   C264      1.0  0.39510  0.32193  0.82364  1.0000
  C   C265      1.0  0.38436  0.33847  0.81026  1.0000
  C   C266      1.0  0.39420  0.32588  0.79645  1.0000
  C   C267      1.0  0.41355  0.29639  0.79608  1.0000
  H   H248      1.0  0.42161  0.27898  0.83368  1.0000
  H   H249      1.0  0.38763  0.33157  0.83439  1.0000
  H   H250      1.0  0.38587  0.33799  0.78610  1.0000
  H   H251      1.0  0.42020  0.28632  0.78536  1.0000
  H   H252      1.0  0.06023  0.24014  0.90928  1.0000
  C   C268      1.0  0.45695  0.04757  0.84312  1.0000
  H   H253      1.0  0.19653  0.36449  0.74260  1.0000
  C   C269      1.0  0.43372  0.50507  0.76607  1.0000
  H   H254      1.0  0.50031  0.45278  0.75617  1.0000
  H   H255      1.0  0.28698  0.50828  0.79884  1.0000
  S   S92       1.0  0.07577  0.46549  0.95720  1.0000
  H   H256      1.0  0.25551  0.43044  0.72054  1.0000
  C   C270      1.0  0.49747  0.44863  0.76847  1.0000
  H   H257      1.0  0.46103  0.16962  0.88245  1.0000
  H   H258      1.0  0.44316  0.10157  0.87981  1.0000
  N   N20       1.0  0.48466  0.12305  0.88814  1.0000
  H   H259      1.0  0.48427  0.43646  0.81219  1.0000
  H   H260      1.0  0.20763  0.31393  0.95347  1.0000
  H   H261      1.0  0.29210  0.32425  0.79988  1.0000
  H   H262      1.0  0.17464  0.34298  0.94923  1.0000
  C   C271      1.0  0.45765  0.04190  0.80491  1.0000
  H   H263      1.0  0.44502  0.37937  0.80047  1.0000
  H   H264      1.0  0.04175  0.33933  0.88867  1.0000
  H   H265      1.0  0.32156  0.30520  0.82206  1.0000
  H   H266      1.0  0.46984  0.09278  0.80654  1.0000
  H   H267      1.0  0.30135  0.26527  0.82298  1.0000
  C   C272      1.0  0.04859  0.28811  0.89778  1.0000
  S   S93       1.0  0.41016  0.48682  0.75370  1.0000
  H   H268      1.0  0.34642  0.26780  0.82232  1.0000
  S   S94       1.0  0.13023  0.50652  0.92140  1.0000
  H   H269      1.0  0.45307  0.41969  0.76948  1.0000
  H   H270      1.0  0.15224  0.50963  0.95137  1.0000
  C   C273      1.0  0.47985  0.06827  0.80439  1.0000
  H   H271      1.0  0.40551  0.48354  0.78654  1.0000
  C   C274      1.0  0.47065  0.43006  0.77608  1.0000
  C   C275      1.0  0.32888  0.28666  0.76995  1.0000
  N   N21       1.0  0.46594  0.42612  0.79160  1.0000
  S   S95       1.0  0.48573  0.15870  0.81655  1.0000
  C   C276      1.0  0.43787  0.40628  0.79934  1.0000
  Fe  Fe52      1.0  0.04228  0.43089  0.94783  1.0000
  C   C277      1.0  0.27814  0.32089  0.72709  1.0000
  C   C278      1.0  0.48751  0.07093  0.87726  1.0000
  C   C279      1.0  0.24727  0.31257  0.72246  1.0000
  H   H272      1.0  0.30096  0.30896  0.72259  1.0000
  C   C280      1.0  0.43318  0.02219  0.84435  1.0000
  N   N22       1.0  0.51369  0.06294  0.80184  1.0000
  H   H273      1.0  0.40692  0.02812  0.84706  1.0000
  H   H274      1.0  0.43094  0.04601  0.80752  1.0000
  S   S96       1.0  0.02899  0.27246  0.88325  1.0000
  S   S97       1.0  0.17895  0.32189  0.72119  1.0000
  C   C281      1.0  0.44604  0.51298  0.79147  1.0000
  C   C282      1.0  0.51496  0.45838  0.79264  1.0000
  H   H275      1.0  0.02834  0.33253  0.93990  1.0000
  H   H276      1.0  0.47519  0.05182  0.87228  1.0000
  H   H277      1.0  0.01889  0.31765  0.85336  1.0000
  H   H278      1.0  0.01753  0.37108  0.92919  1.0000
  H   H279      1.0  0.23986  0.53867  0.12912  1.0000
  C   C283      1.0  0.48947  0.70966  0.04251  1.0000
  C   C284      1.0  0.44794  0.95935  0.04884  1.0000
  Fe  Fe53      1.0  0.38834  0.91155  0.01479  1.0000
  S   S98       1.0  0.38048  0.89318  0.03946  1.0000
  S   S99       1.0  0.39170  0.96749  0.01026  1.0000
  Fe  Fe54      1.0  0.38052  0.84194  0.00512  1.0000
  S   S100      1.0  0.37219  0.81859  0.02929  1.0000
  S   S101      1.0  0.38369  0.80979  0.98554  1.0000
  Fe  Fe55      1.0  0.33880  0.86367  0.03311  1.0000
  S   S102      1.0  0.28559  0.86215  0.04468  1.0000
  Fe  Fe56      1.0  0.41494  0.85064  0.03317  1.0000
  S   S103      1.0  0.45711  0.83734  0.04801  1.0000
  S   S104      1.0  0.34439  0.88461  0.00862  1.0000
  S   S105      1.0  0.42561  0.87129  0.00881  1.0000
  H   H280      1.0  0.44837  0.74286  0.08443  1.0000
  S   S106      1.0  0.04550  0.96937  0.08574  1.0000
  C   C285      1.0  0.22595  0.66333  0.97741  1.0000
  H   H281      1.0  0.20365  0.65264  0.97413  1.0000
  C   C286      1.0  0.28525  0.65908  0.97979  1.0000
  H   H282      1.0  0.50983  0.71796  0.06301  1.0000
  C   C287      1.0  0.34913  0.77584  0.96716  1.0000
  H   H283      1.0  0.42149  0.77388  0.19760  1.0000
  C   C288      1.0  0.46331  0.75868  0.07531  1.0000
  S   S107      1.0  0.13146  0.99012  0.10157  1.0000
  Fe  Fe57      1.0  0.34254  0.62266  0.17860  1.0000
  C   C289      1.0  0.25647  0.53362  0.17693  1.0000
  S   S108      1.0  0.29362  0.62744  0.16788  1.0000
  Fe  Fe58      1.0  0.41372  0.65089  0.17814  1.0000
  S   S109      1.0  0.12850  0.01185  0.06491  1.0000
  S   S110      1.0  0.44695  0.69391  0.16777  1.0000
  Fe  Fe59      1.0  0.40124  0.57633  0.18460  1.0000
  H   H284      1.0  0.34693  0.98679  0.03880  1.0000
  H   H285      1.0  0.48299  0.52564  0.15138  1.0000
  H   H286      1.0  0.19277  0.73044  0.97213  1.0000
  S   S111      1.0  0.39165  0.61398  0.16499  1.0000
  S   S112      1.0  0.36325  0.66398  0.18968  1.0000
  S   S113      1.0  0.35097  0.58336  0.19757  1.0000
  H   H287      1.0  0.32219  0.95221  0.02076  1.0000
  H   H288      1.0  0.42111  0.95894  0.05206  1.0000
  C   C290      1.0  0.04247  0.97890  0.12521  1.0000
  H   H289      1.0  0.41736  0.74535  0.03118  1.0000
  C   C291      1.0  0.51469  0.90295  0.03256  1.0000
  Fe  Fe60      1.0  0.09129  0.00168  0.08569  1.0000
  C   C292      1.0  0.43733  0.73856  0.03827  1.0000
  H   H290      1.0  0.21487  0.95029  0.02678  1.0000
  C   C293      1.0  0.48965  0.69534  0.17093  1.0000
  H   H291      1.0  0.19119  0.72958  0.99244  1.0000
  C   C294      1.0  0.50838  0.72373  0.16514  1.0000
  C   C295      1.0  0.29894  0.55689  0.13574  1.0000
  C   C296      1.0  0.25611  0.64512  0.97617  1.0000
  C   C297      1.0  0.27562  0.56213  0.17722  1.0000
  C   C298      1.0  0.26849  0.59180  0.16843  1.0000
  C   C299      1.0  0.24161  0.59276  0.15949  1.0000
  C   C300      1.0  0.22260  0.56401  0.15907  1.0000
  C   C301      1.0  0.43763  0.75179  0.05213  1.0000
  H   H292      1.0  0.29609  0.56090  0.18415  1.0000
  H   H293      1.0  0.23576  0.61568  0.15272  1.0000
  H   H294      1.0  0.20217  0.56488  0.15204  1.0000
  C   C302      1.0  0.43181  0.98415  0.01000  1.0000
  H   H295      1.0  0.30645  0.70238  0.98722  1.0000
  N   N23       1.0  0.42882  0.72739  0.21118  1.0000
  C   C303      1.0  0.46066  0.96523  0.00632  1.0000
  S   S114      1.0  0.41624  0.52627  0.17673  1.0000
  H   H296      1.0  0.35017  0.69387  0.21586  1.0000
  H   H297      1.0  0.45851  0.94006  0.00345  1.0000
  C   C304      1.0  0.23880  0.95091  0.06829  1.0000
  C   C305      1.0  0.21844  0.92655  0.06415  1.0000
  C   C306      1.0  0.23309  0.89902  0.05723  1.0000
  C   C307      1.0  0.26809  0.89594  0.05420  1.0000
  C   C308      1.0  0.28837  0.92012  0.05852  1.0000
  C   C309      1.0  0.27378  0.94729  0.06562  1.0000
  H   H298      1.0  0.19149  0.92900  0.06618  1.0000
  H   H299      1.0  0.21724  0.88028  0.05402  1.0000
  H   H300      1.0  0.31529  0.91785  0.05643  1.0000
  H   H301      1.0  0.28969  0.96592  0.06889  1.0000
  C   C310      1.0  0.49335  0.81405  0.04216  1.0000
  C   C311      1.0  0.46449  0.93152  0.04325  1.0000
  H   H302      1.0  0.49770  0.89016  0.02603  1.0000
  C   C312      1.0  0.26794  0.00606  0.03698  1.0000
  H   H303      1.0  0.47713  0.80354  0.02095  1.0000
  H   H304      1.0  0.51468  0.96466  0.00298  1.0000
  C   C313      1.0  0.28654  0.80092  0.97765  1.0000
  C   C314      1.0  0.31530  0.80968  0.98394  1.0000
  C   C315      1.0  0.34675  0.79731  0.97868  1.0000
  C   C316      1.0  0.23021  0.53425  0.16772  1.0000
  H   H305      1.0  0.26941  0.92511  0.01744  1.0000
  H   H306      1.0  0.26232  0.81077  0.98175  1.0000
  H   H307      1.0  0.31313  0.82625  0.99279  1.0000
  C   C317      1.0  0.49242  0.97923  0.00599  1.0000
  N   N24       1.0  0.22474  0.69430  0.98241  1.0000
  C   C318      1.0  0.25317  0.70807  0.98607  1.0000
  C   C319      1.0  0.23811  0.96256  0.02777  1.0000
  C   C320      1.0  0.23765  0.99171  0.03493  1.0000
  H   H308      1.0  0.40942  0.73692  0.18991  1.0000
  H   H309      1.0  0.04614  0.00211  0.04841  1.0000
  C   C321      1.0  0.51623  0.95985  0.03992  1.0000
  C   C322      1.0  0.19337  0.71381  0.98290  1.0000
  H   H310      1.0  0.30891  0.64552  0.97850  1.0000
  Fe  Fe61      1.0  0.16820  0.00505  0.08106  1.0000
  C   C323      1.0  0.34067  0.54044  0.15278  1.0000
  S   S115      1.0  0.05390  0.52375  0.13936  1.0000
  S   S116      1.0  0.42719  0.61253  0.19681  1.0000
  C   C324      1.0  0.43976  0.69491  0.21158  1.0000
  H   H311      1.0  0.28736  0.57631  0.12854  1.0000
  H   H312      1.0  0.49103  0.64702  0.18376  1.0000
  N   N25       1.0  0.28624  0.52536  0.13802  1.0000
  H   H313      1.0  0.25691  0.62070  0.97203  1.0000
  H   H314      1.0  0.17120  0.69740  0.98441  1.0000
  S   S117      1.0  0.22223  0.98757  0.07578  1.0000
  H   H315      1.0  0.44877  0.52874  0.20444  1.0000
  H   H316      1.0  0.49669  0.74414  0.15861  1.0000
  C   C325      1.0  0.50057  0.98797  0.04564  1.0000
  H   H317      1.0  0.05728  0.95597  0.12541  1.0000
  C   C326      1.0  0.28386  0.69082  0.98473  1.0000
  C   C327      1.0  0.48897  0.72336  0.05629  1.0000
  C   C328      1.0  0.27915  0.64674  0.21153  1.0000
  H   H318      1.0  0.46415  0.70778  0.02251  1.0000
  H   H319      1.0  0.26414  0.69469  0.20110  1.0000
  N   N26       1.0  0.29784  0.99175  0.03198  1.0000
  C   C329      1.0  0.32619  0.56495  0.14314  1.0000
  Fe  Fe62      1.0  0.37544  0.62385  0.20773  1.0000
  H   H320      1.0  0.08394  0.00860  0.12935  1.0000
  N   N27       1.0  0.46349  0.74448  0.06083  1.0000
  C   C330      1.0  0.42807  0.74728  0.19644  1.0000
  H   H321      1.0  0.48918  0.76071  0.07845  1.0000
  C   C331      1.0  0.26869  0.94844  0.02253  1.0000
  H   H322      1.0  0.36135  0.54651  0.15884  1.0000
  H   H323      1.0  0.45027  0.90947  0.04241  1.0000
  H   H324      1.0  0.25242  0.73306  0.98959  1.0000
  C   C332      1.0  0.49636  0.79925  0.02859  1.0000
  C   C333      1.0  0.26690  0.67943  0.21171  1.0000
  H   H325      1.0  0.45304  0.74637  0.18973  1.0000
  C   C334      1.0  0.46352  0.71745  0.03343  1.0000
  C   C335      1.0  0.29849  0.96363  0.02463  1.0000
  H   H326      1.0  0.21410  0.00222  0.03960  1.0000
  C   C336      1.0  0.25796  0.51735  0.12997  1.0000
  H   H327      1.0  0.51489  0.01021  0.04609  1.0000
  H   H328      1.0  0.44800  0.68423  0.20113  1.0000
  N   N28       1.0  0.49805  0.93230  0.03857  1.0000
  C   C337      1.0  0.46615  0.98781  0.04996  1.0000
  H   H329      1.0  0.51066  0.69432  0.03862  1.0000
  C   C338      1.0  0.50501  0.66910  0.17934  1.0000
  H   H330      1.0  0.41766  0.76890  0.05564  1.0000
  C   C339      1.0  0.05775  0.00857  0.12734  1.0000
  H   H331      1.0  0.45361  0.00991  0.05395  1.0000
  H   H332      1.0  0.33526  0.59035  0.14184  1.0000
  H   H333      1.0  0.49640  0.54066  0.17621  1.0000
  H   H334      1.0  0.45246  0.78445  0.07449  1.0000
  C   C340      1.0  0.32958  0.00651  0.03434  1.0000
  C   C341      1.0  0.51066  0.52102  0.17087  1.0000
  C   C342      1.0  0.49550  0.01185  0.00973  1.0000
  H   H335      1.0  0.28590  0.63652  0.20081  1.0000
  H   H336      1.0  0.51670  0.81989  0.06237  1.0000
  C   C343      1.0  0.45728  0.99416  0.45495  1.0000
  S   S118      1.0  0.04053  0.62681  0.33089  1.0000
  S   S119      1.0  0.04970  0.67064  0.36688  1.0000
  H   H337      1.0  0.12638  0.80440  0.30176  1.0000
  S   S120      1.0  0.08003  0.67543  0.29221  1.0000
  Fe  Fe63      1.0  0.23946  0.81132  0.29732  1.0000
  S   S121      1.0  0.23627  0.76828  0.28354  1.0000
  S   S122      1.0  0.19292  0.84457  0.30036  1.0000
  Fe  Fe64      1.0  0.30368  0.78238  0.31010  1.0000
  S   S123      1.0  0.30501  0.73683  0.29766  1.0000
  S   S124      1.0  0.33586  0.79089  0.32859  1.0000
  Fe  Fe65      1.0  0.29193  0.77295  0.27804  1.0000
  S   S125      1.0  0.31329  0.76952  0.25371  1.0000
  Fe  Fe66      1.0  0.24946  0.73560  0.30401  1.0000
  S   S126      1.0  0.22203  0.68989  0.31498  1.0000
  S   S127      1.0  0.29437  0.81936  0.29008  1.0000
  S   S128      1.0  0.24916  0.77781  0.31821  1.0000
  Fe  Fe67      1.0  0.21029  0.81268  0.42110  1.0000
  S   S129      1.0  0.23788  0.76321  0.42341  1.0000
  S   S130      1.0  0.23077  0.85016  0.43518  1.0000
  Fe  Fe68      1.0  0.16573  0.78805  0.39866  1.0000
  S   S131      1.0  0.19124  0.73820  0.39920  1.0000
  S   S132      1.0  0.12648  0.79728  0.38208  1.0000
  Fe  Fe69      1.0  0.18758  0.73979  0.42440  1.0000
  Fe  Fe70      1.0  0.23846  0.76617  0.39820  1.0000
  S   S133      1.0  0.28216  0.75484  0.38159  1.0000
  S   S134      1.0  0.15908  0.78863  0.42411  1.0000
  S   S135      1.0  0.21394  0.81673  0.39566  1.0000
  H   H338      1.0  0.14263  0.63352  0.45504  1.0000
  S   S136      1.0  0.48331  0.63146  0.40459  1.0000
  Fe  Fe71      1.0  0.46673  0.67116  0.36453  1.0000
  S   S137      1.0  0.43945  0.62562  0.37573  1.0000
  S   S138      1.0  0.45811  0.69174  0.34060  1.0000
  Fe  Fe72      1.0  0.43589  0.65383  0.39625  1.0000
  S   S139      1.0  0.38724  0.65616  0.41118  1.0000
  Fe  Fe73      1.0  0.48910  0.60662  0.38297  1.0000
  H   H339      1.0  0.33002  0.74793  0.22435  1.0000
  S   S140      1.0  0.45985  0.70082  0.38456  1.0000
  H   H340      1.0  0.17569  0.82232  0.35846  1.0000
  C   C344      1.0  0.31034  0.72603  0.38967  1.0000
  C   C345      1.0  0.30223  0.70868  0.40398  1.0000
  C   C346      1.0  0.32589  0.68700  0.41052  1.0000
  C   C347      1.0  0.35759  0.68253  0.40272  1.0000
  C   C348      1.0  0.36536  0.69934  0.38826  1.0000
  C   C349      1.0  0.34171  0.72096  0.38176  1.0000
  H   H341      1.0  0.27769  0.71167  0.40998  1.0000
  H   H342      1.0  0.31962  0.67363  0.42162  1.0000
  H   H343      1.0  0.38940  0.69538  0.38199  1.0000
  H   H344      1.0  0.34763  0.73370  0.37057  1.0000
  C   C350      1.0  0.16022  0.76666  0.32438  1.0000
  C   C351      1.0  0.02963  0.53987  0.35265  1.0000
  S   S141      1.0  0.36519  0.63002  0.23273  1.0000
  H   H345      1.0  0.44773  0.96242  0.42177  1.0000
  C   C352      1.0  0.32759  0.73056  0.24814  1.0000
  C   C353      1.0  0.33268  0.70325  0.25878  1.0000
  C   C354      1.0  0.34411  0.67251  0.25391  1.0000
  H   H346      1.0  0.32805  0.70579  0.27075  1.0000
  H   H347      1.0  0.34817  0.65153  0.26221  1.0000
  C   C355      1.0  0.42444  0.71976  0.33735  1.0000
  C   C356      1.0  0.41174  0.72276  0.32319  1.0000
  C   C357      1.0  0.38447  0.74438  0.32035  1.0000
  C   C358      1.0  0.37052  0.76399  0.33152  1.0000
  C   C359      1.0  0.38413  0.76200  0.34543  1.0000
  C   C360      1.0  0.41050  0.73941  0.34849  1.0000
  H   H348      1.0  0.42269  0.70791  0.31445  1.0000
  H   H349      1.0  0.37459  0.74617  0.30948  1.0000
  H   H350      1.0  0.37385  0.77764  0.35397  1.0000
  H   H351      1.0  0.42035  0.73762  0.35937  1.0000
  C   C361      1.0  0.12064  0.67580  0.29782  1.0000
  C   C362      1.0  0.12809  0.65944  0.31175  1.0000
  C   C363      1.0  0.15978  0.66280  0.31668  1.0000
  C   C364      1.0  0.18389  0.68302  0.30784  1.0000
  C   C365      1.0  0.17684  0.69831  0.29367  1.0000
  C   C366      1.0  0.14537  0.69455  0.28863  1.0000
  H   H352      1.0  0.10932  0.64460  0.31884  1.0000
  H   H353      1.0  0.16521  0.65058  0.32758  1.0000
  H   H354      1.0  0.19560  0.71289  0.28654  1.0000
  H   H355      1.0  0.13985  0.70693  0.27777  1.0000
  C   C367      1.0  0.06929  0.70674  0.37126  1.0000
  C   C368      1.0  0.09037  0.70346  0.38292  1.0000
  C   C369      1.0  0.10762  0.73109  0.38638  1.0000
  C   C370      1.0  0.10395  0.76242  0.37825  1.0000
  C   C371      1.0  0.08231  0.76593  0.36678  1.0000
  C   C372      1.0  0.06497  0.73822  0.36330  1.0000
  H   H356      1.0  0.09374  0.67929  0.38919  1.0000
  H   H357      1.0  0.12370  0.72809  0.39536  1.0000
  H   H358      1.0  0.07901  0.79011  0.36051  1.0000
  C   C373      1.0  0.28286  0.62735  0.22520  1.0000
  C   C374      1.0  0.18981  0.88838  0.29576  1.0000
  C   C375      1.0  0.15786  0.90371  0.29642  1.0000
  C   C376      1.0  0.15418  0.93862  0.29353  1.0000
  C   C377      1.0  0.18249  0.95861  0.29018  1.0000
  C   C378      1.0  0.21444  0.94325  0.28961  1.0000
  C   C379      1.0  0.21812  0.90829  0.29228  1.0000
  H   H359      1.0  0.13580  0.88853  0.29917  1.0000
  H   H360      1.0  0.12949  0.95014  0.29407  1.0000
  H   H361      1.0  0.23647  0.95854  0.28704  1.0000
  H   H362      1.0  0.24285  0.89686  0.29175  1.0000
  H   H363      1.0  0.11855  0.76660  0.29348  1.0000
  C   C380      1.0  0.22831  0.81032  0.35659  1.0000
  C   C381      1.0  0.25841  0.69227  0.22563  1.0000
  C   C382      1.0  0.51001  0.87239  0.43811  1.0000
  Fe  Fe74      1.0  0.03908  0.66704  0.31146  1.0000
  H   H364      1.0  0.15844  0.85716  0.33000  1.0000
  C   C383      1.0  0.27421  0.95502  0.42047  1.0000
  C   C384      1.0  0.27860  0.93833  0.43474  1.0000
  C   C385      1.0  0.26518  0.90627  0.43903  1.0000
  C   C386      1.0  0.24770  0.89029  0.42905  1.0000
  C   C387      1.0  0.24392  0.90670  0.41467  1.0000
  C   C388      1.0  0.25693  0.93895  0.41046  1.0000
  H   H365      1.0  0.29196  0.95025  0.44254  1.0000
  H   H366      1.0  0.26829  0.89376  0.45016  1.0000
  H   H367      1.0  0.23036  0.89488  0.40690  1.0000
  H   H368      1.0  0.25326  0.95169  0.39943  1.0000
  C   C389      1.0  0.46969  0.01165  0.44116  1.0000
  C   C390      1.0  0.16233  0.74862  0.33857  1.0000
  S   S142      1.0  0.17932  0.00277  0.28712  1.0000
  C   C391      1.0  0.15172  0.68581  0.45555  1.0000
  H   H369      1.0  0.49921  0.85224  0.46144  1.0000
  C   C392      1.0  0.17270  0.87245  0.33667  1.0000
  C   C393      1.0  0.23346  0.86157  0.33310  1.0000
  C   C394      1.0  0.20000  0.82859  0.35242  1.0000
  C   C395      1.0  0.11299  0.73574  0.32062  1.0000
  S   S143      1.0  0.28811  0.99655  0.41494  1.0000
  S   S144      1.0  0.34623  0.01138  0.44774  1.0000
  H   H370      1.0  0.22481  0.68252  0.25680  1.0000
  C   C396      1.0  0.46480  0.89204  0.45509  1.0000
  H   H371      1.0  0.04498  0.54327  0.36198  1.0000
  H   H372      1.0  0.44771  0.64886  0.22565  1.0000
  C   C397      1.0  0.35049  0.66886  0.23840  1.0000
  N   N29       1.0  0.31266  0.68465  0.35208  1.0000
  C   C398      1.0  0.29767  0.67055  0.36569  1.0000
  C   C399      1.0  0.34463  0.67546  0.34704  1.0000
  C   C400      1.0  0.31484  0.64666  0.37469  1.0000
  C   C401      1.0  0.36266  0.65194  0.35579  1.0000
  C   C402      1.0  0.34759  0.63745  0.36971  1.0000
  C   C403      1.0  0.29455  0.71059  0.34322  1.0000
  H   H373      1.0  0.27271  0.67860  0.36989  1.0000
  H   H374      1.0  0.35655  0.68654  0.33627  1.0000
  H   H375      1.0  0.30332  0.63633  0.38571  1.0000
  H   H376      1.0  0.38836  0.64550  0.35188  1.0000
  H   H377      1.0  0.36155  0.61979  0.37681  1.0000
  H   H378      1.0  0.30865  0.71854  0.33205  1.0000
  H   H379      1.0  0.26991  0.70126  0.34102  1.0000
  H   H380      1.0  0.29072  0.73304  0.34947  1.0000
  C   C404      1.0  0.05277  0.63453  0.44900  1.0000
  H   H381      1.0  0.50410  0.77634  0.34659  1.0000
  C   C405      1.0  0.13932  0.72357  0.34371  1.0000
  S   S145      1.0  0.17260  0.68985  0.43707  1.0000
  H   H382      1.0  0.42799  0.67278  0.24962  1.0000
  H   H383      1.0  0.18179  0.75374  0.34548  1.0000
  H   H384      1.0  0.23674  0.99466  0.44074  1.0000
  H   H385      1.0  0.24656  0.96869  0.46555  1.0000
  H   H386      1.0  0.17802  0.78613  0.32041  1.0000
  H   H387      1.0  0.22599  0.78994  0.36563  1.0000
  H   H388      1.0  0.49046  0.96013  0.41387  1.0000
  H   H389      1.0  0.16065  0.77922  0.29419  1.0000
  S   S146      1.0  0.02744  0.70888  0.32595  1.0000
  H   H390      1.0  0.07741  0.64814  0.42665  1.0000
  C   C406      1.0  0.06946  0.65663  0.43763  1.0000
  C   C407      1.0  0.50353  0.00826  0.43580  1.0000
  H   H391      1.0  0.07443  0.72375  0.42092  1.0000
  H   H392      1.0  0.26620  0.67447  0.26266  1.0000
  C   C408      1.0  0.11431  0.71724  0.33476  1.0000
  H   H393      1.0  0.17892  0.89640  0.32959  1.0000
  H   H394      1.0  0.43582  0.93314  0.44572  1.0000
  H   H395      1.0  0.15668  0.73712  0.45948  1.0000
  H   H396      1.0  0.25700  0.71378  0.25262  1.0000
  C   C409      1.0  0.13908  0.65455  0.46166  1.0000
  N   N30       1.0  0.07601  0.68846  0.44036  1.0000
  C   C410      1.0  0.47853  0.97200  0.46295  1.0000
  C   C411      1.0  0.43998  0.67492  0.22540  1.0000
  C   C412      1.0  0.26238  0.84419  0.33716  1.0000
  C   C413      1.0  0.41780  0.74079  0.22433  1.0000
  N   N31       1.0  0.33209  0.78058  0.41935  1.0000
  C   C414      1.0  0.35194  0.77738  0.40609  1.0000
  C   C415      1.0  0.30928  0.80632  0.42028  1.0000
  C   C416      1.0  0.34866  0.79987  0.39321  1.0000
  C   C417      1.0  0.30533  0.82924  0.40762  1.0000
  C   C418      1.0  0.32500  0.82579  0.39399  1.0000
  C   C419      1.0  0.33374  0.75537  0.43241  1.0000
  H   H397      1.0  0.36968  0.75668  0.40524  1.0000
  H   H398      1.0  0.29330  0.80882  0.43074  1.0000
  H   H399      1.0  0.36349  0.79642  0.38257  1.0000
  H   H400      1.0  0.28660  0.84908  0.40835  1.0000
  H   H401      1.0  0.32153  0.84285  0.38398  1.0000
  H   H402      1.0  0.31097  0.73976  0.43385  1.0000
  H   H403      1.0  0.35592  0.73839  0.43091  1.0000
  H   H404      1.0  0.33525  0.76749  0.44292  1.0000
  H   H405      1.0  0.04845  0.74119  0.35442  1.0000
  C   C420      1.0  0.27405  0.64091  0.23891  1.0000
  Fe  Fe75      1.0  0.02506  0.66843  0.34526  1.0000
  H   H406      1.0  0.45967  0.93367  0.40790  1.0000
  C   C421      1.0  0.45658  0.91600  0.44345  1.0000
  H   H407      1.0  0.14064  0.70919  0.35465  1.0000
  H   H408      1.0  0.40821  0.76624  0.22406  1.0000
  H   H409      1.0  0.28189  0.80453  0.35220  1.0000
  H   H410      1.0  0.11193  0.69776  0.42105  1.0000
  C   C422      1.0  0.25196  0.68658  0.25346  1.0000
  H   H411      1.0  0.24904  0.71776  0.22570  1.0000
  H   H412      1.0  0.44761  0.52754  0.38774  1.0000
  N   N32       1.0  0.26223  0.67308  0.23900  1.0000
  H   H413      1.0  0.28663  0.84995  0.33092  1.0000
  H   H414      1.0  0.09390  0.73018  0.31359  1.0000
  H   H415      1.0  0.27752  0.62575  0.24946  1.0000
  C   C423      1.0  0.04892  0.67791  0.46577  1.0000
  N   N33       1.0  0.47536  0.91872  0.42964  1.0000
  H   H416      1.0  0.23559  0.88088  0.32358  1.0000
  C   C424      1.0  0.25972  0.81853  0.34905  1.0000
  C   C425      1.0  0.49189  0.87031  0.45241  1.0000
  N   N34       1.0  0.13622  0.75961  0.31548  1.0000
  N   N35       1.0  0.20289  0.85410  0.34092  1.0000
  C   C426      1.0  0.33391  0.72690  0.23264  1.0000
  H   H417      1.0  0.09637  0.69769  0.33866  1.0000
  C   C427      1.0  0.34525  0.69617  0.22779  1.0000
  C   C428      1.0  0.13521  0.77838  0.30050  1.0000
  C   C429      1.0  0.42898  0.68838  0.23887  1.0000
  H   H418      1.0  0.15640  0.87851  0.34694  1.0000
  C   C430      1.0  0.06569  0.69934  0.45415  1.0000
  H   H419      1.0  0.10682  0.73069  0.43287  1.0000
  H   H420      1.0  0.07113  0.72445  0.45638  1.0000
  C   C431      1.0  0.50145  0.89699  0.42681  1.0000
  C   C432      1.0  0.04255  0.64529  0.46314  1.0000
  H   H421      1.0  0.40821  0.73194  0.24875  1.0000
  C   C433      1.0  0.41787  0.72155  0.23837  1.0000
  C   C434      1.0  0.46781  0.94495  0.41770  1.0000
  H   H422      1.0  0.04788  0.60914  0.44693  1.0000
  C   C435      1.0  0.09292  0.71137  0.42820  1.0000
  H   H423      1.0  0.29319  0.60218  0.22519  1.0000
  H   H424      1.0  0.02629  0.94446  0.27149  1.0000
  H   H425      1.0  0.04456  0.54682  0.34156  1.0000
  H   H426      1.0  0.50946  0.76068  0.39279  1.0000
  H   H427      1.0  0.43124  0.99708  0.45926  1.0000
  S   S147      1.0  0.51514  0.55567  0.38094  1.0000
  C   C436      1.0  0.14695  0.71295  0.46411  1.0000
  Fe  Fe76      1.0  0.50787  0.67647  0.39111  1.0000
  S   S148      1.0  0.51699  0.65025  0.36998  1.0000
  C   C437      1.0  0.51192  0.96706  0.45702  1.0000
  H   H428      1.0  0.51620  0.89896  0.41582  1.0000
  S   S149      1.0  0.40462  0.98184  0.63951  1.0000
  S   S150      1.0  0.04246  0.87132  0.66810  1.0000
  N   N36       1.0  0.17848  0.84823  0.69587  1.0000
  H   H429      1.0  0.13766  0.61307  0.50640  1.0000
  S   S151      1.0  0.07898  0.82187  0.69295  1.0000
  H   H430      1.0  0.15388  0.65819  0.52056  1.0000
  Fe  Fe77      1.0  0.09326  0.86731  0.67670  1.0000
  S   S152      1.0  0.14336  0.87071  0.66194  1.0000
  Fe  Fe78      1.0  0.02984  0.90481  0.68659  1.0000
  S   S153      1.0  0.08132  0.90282  0.69419  1.0000
  C   C438      1.0  0.16627  0.63390  0.52191  1.0000
  C   C439      1.0  0.19093  0.62785  0.53181  1.0000
  C   C440      1.0  0.18173  0.91315  0.70343  1.0000
  H   H431      1.0  0.18077  0.53072  0.50635  1.0000
  C   C441      1.0  0.25084  0.99345  0.46938  1.0000
  H   H432      1.0  0.19780  0.64740  0.53830  1.0000
  H   H433      1.0  0.02699  0.00676  0.70235  1.0000
  C   C442      1.0  0.16111  0.55044  0.50765  1.0000
  H   H434      1.0  0.27819  0.99817  0.46807  1.0000
  C   C443      1.0  0.15714  0.60820  0.51391  1.0000
  C   C444      1.0  0.50451  0.98394  0.64375  1.0000
  S   S154      1.0  0.23304  0.99918  0.65979  1.0000
  H   H435      1.0  0.20723  0.54633  0.52733  1.0000
  Fe  Fe79      1.0  0.06286  0.62807  0.51061  1.0000
  S   S155      1.0  0.05049  0.60981  0.53534  1.0000
  S   S156      1.0  0.09536  0.67300  0.50321  1.0000
  Fe  Fe80      1.0  0.05790  0.55850  0.52757  1.0000
  H   H436      1.0  0.13843  0.53886  0.51415  1.0000
  S   S157      1.0  0.07374  0.57718  0.50322  1.0000
  C   C445      1.0  0.20615  0.59632  0.53355  1.0000
  C   C446      1.0  0.33238  0.55337  0.58340  1.0000
  C   C447      1.0  0.12990  0.70865  0.47880  1.0000
  C   C448      1.0  0.11703  0.67742  0.48486  1.0000
  S   S158      1.0  0.22098  0.52725  0.56779  1.0000
  H   H437      1.0  0.19218  0.99051  0.62602  1.0000
  N   N37       1.0  0.17227  0.57739  0.51562  1.0000
  H   H438      1.0  0.12647  0.72964  0.48545  1.0000
  H   H439      1.0  0.11164  0.62629  0.48072  1.0000
  H   H440      1.0  0.31297  0.55853  0.57542  1.0000
  H   H441      1.0  0.46879  0.95775  0.47341  1.0000
  H   H442      1.0  0.24830  0.00515  0.59744  1.0000
  C   C449      1.0  0.47126  0.97356  0.64374  1.0000
  H   H443      1.0  0.46485  0.94791  0.64759  1.0000
  H   H444      1.0  0.23508  0.00371  0.62411  1.0000
  C   C450      1.0  0.12160  0.65038  0.47623  1.0000
  H   H445      1.0  0.16623  0.98489  0.67229  1.0000
  C   C451      1.0  0.20276  0.86905  0.68852  1.0000
  H   H446      1.0  0.04177  0.68627  0.47686  1.0000
  C   C452      1.0  0.20881  0.01238  0.62312  1.0000
  H   H447      1.0  0.45399  0.00097  0.67583  1.0000
  C   C453      1.0  0.13103  0.54725  0.55151  1.0000
  C   C454      1.0  0.16037  0.54960  0.55865  1.0000
  H   H448      1.0  0.22449  0.59085  0.54162  1.0000
  H   H449      1.0  0.02996  0.62824  0.47206  1.0000
  H   H450      1.0  0.11476  0.56886  0.54978  1.0000
  H   H451      1.0  0.16651  0.57315  0.56238  1.0000
  C   C455      1.0  0.18209  0.52193  0.56076  1.0000
  C   C456      1.0  0.16693  0.90782  0.65992  1.0000
  C   C457      1.0  0.15505  0.93580  0.66695  1.0000
  C   C458      1.0  0.17550  0.96371  0.66649  1.0000
  C   C459      1.0  0.20790  0.96427  0.65881  1.0000
  C   C460      1.0  0.21953  0.93683  0.65127  1.0000
  C   C461      1.0  0.19910  0.90865  0.65187  1.0000
  H   H452      1.0  0.13025  0.93585  0.67294  1.0000
  H   H453      1.0  0.15495  0.56011  0.49610  1.0000
  H   H454      1.0  0.24449  0.93693  0.64533  1.0000
  H   H455      1.0  0.20848  0.88716  0.64633  1.0000
  N   N38       1.0  0.34514  0.51903  0.58313  1.0000
  C   C462      1.0  0.19630  0.57116  0.52538  1.0000
  C   C463      1.0  0.12272  0.51689  0.54674  1.0000
  H   H456      1.0  0.15729  0.81465  0.68301  1.0000
  H   H457      1.0  0.21986  0.86089  0.67933  1.0000
  C   C464      1.0  0.20496  0.90169  0.69229  1.0000
  H   H458      1.0  0.24172  0.99226  0.48164  1.0000
  H   H459      1.0  0.20006  0.80498  0.68643  1.0000
  Fe  Fe81      1.0  0.02639  0.82985  0.68625  1.0000
  H   H460      1.0  0.22370  0.91844  0.68616  1.0000
  C   C465      1.0  0.47534  0.51999  0.58215  1.0000
  S   S159      1.0  0.31266  0.99798  0.62608  1.0000
  H   H461      1.0  0.32068  0.55788  0.59488  1.0000
  C   C466      1.0  0.17565  0.81444  0.69151  1.0000
  C   C467      1.0  0.44621  0.99612  0.63894  1.0000
  H   H462      1.0  0.47380  0.95301  0.61021  1.0000
  Fe  Fe82      1.0  0.06380  0.85797  0.70988  1.0000
  H   H463      1.0  0.49522  0.01017  0.60363  1.0000
  Fe  Fe83      1.0  0.35775  0.01437  0.63656  1.0000
  H   H464      1.0  0.18256  0.93872  0.70611  1.0000
  H   H465      1.0  0.51389  0.90548  0.61440  1.0000
  C   C468      1.0  0.15688  0.89183  0.71076  1.0000
  H   H466      1.0  0.47130  0.54271  0.57487  1.0000
  H   H467      1.0  0.16707  0.79669  0.70153  1.0000
  C   C469      1.0  0.50061  0.95723  0.60890  1.0000
  H   H468      1.0  0.13569  0.84326  0.71218  1.0000
  H   H469      1.0  0.35348  0.57086  0.58010  1.0000
  H   H470      1.0  0.34897  0.52212  0.55812  1.0000
  C   C470      1.0  0.51288  0.98958  0.60524  1.0000
  C   C471      1.0  0.15553  0.85935  0.70673  1.0000
  Fe  Fe84      1.0  0.01910  0.57664  0.50029  1.0000
  H   H471      1.0  0.01738  0.73976  0.71124  1.0000
  H   H472      1.0  0.39459  0.01525  0.67223  1.0000
  H   H473      1.0  0.45096  0.89104  0.46626  1.0000
  Fe  Fe85      1.0  0.21624  0.66642  0.80275  1.0000
  S   S160      1.0  0.23223  0.69780  0.78102  1.0000
  S   S161      1.0  0.24098  0.61730  0.81077  1.0000
  Fe  Fe86      1.0  0.17582  0.72470  0.81580  1.0000
  S   S162      1.0  0.18957  0.76116  0.79521  1.0000
  S   S163      1.0  0.14956  0.73424  0.83871  1.0000
  Fe  Fe87      1.0  0.17921  0.71799  0.78236  1.0000
  S   S164      1.0  0.15305  0.72146  0.76088  1.0000
  Fe  Fe88      1.0  0.24117  0.73804  0.79552  1.0000
  S   S165      1.0  0.29222  0.76113  0.79152  1.0000
  S   S166      1.0  0.16212  0.68271  0.80310  1.0000
  S   S167      1.0  0.22845  0.70572  0.81715  1.0000
  Fe  Fe89      1.0  0.45368  0.82377  0.82735  1.0000
  S   S168      1.0  0.43414  0.87399  0.81810  1.0000
  Fe  Fe90      1.0  0.43265  0.83774  0.86005  1.0000
  S   S169      1.0  0.41132  0.88858  0.85334  1.0000
  S   S170      1.0  0.42575  0.81890  0.88491  1.0000
  Fe  Fe91      1.0  0.38988  0.86345  0.83536  1.0000
  S   S171      1.0  0.33615  0.87006  0.83045  1.0000
  Fe  Fe92      1.0  0.45763  0.89487  0.83686  1.0000
  S   S172      1.0  0.48988  0.94151  0.83272  1.0000
  S   S173      1.0  0.40748  0.81224  0.84340  1.0000
  S   S174      1.0  0.48097  0.84514  0.84483  1.0000
  Fe  Fe93      1.0  0.28533  0.70076  0.91419  1.0000
  S   S175      1.0  0.25991  0.75063  0.91582  1.0000
  S   S176      1.0  0.33005  0.69483  0.89717  1.0000
  Fe  Fe94      1.0  0.23099  0.66339  0.93548  1.0000
  S   S177      1.0  0.21311  0.61452  0.94851  1.0000
  Fe  Fe95      1.0  0.21329  0.72312  0.91379  1.0000
  S   S178      1.0  0.17824  0.74052  0.89648  1.0000
  S   S179      1.0  0.23921  0.67431  0.91025  1.0000
  S   S180      1.0  0.28004  0.68553  0.93936  1.0000
  H   H474      1.0  0.31390  0.60904  0.78201  1.0000
  S   S181      1.0  0.07589  0.85622  0.91310  1.0000
  H   H475      1.0  0.23531  0.70503  0.85430  1.0000
  H   H476      1.0  0.50267  0.55343  0.76511  1.0000
  S   S182      1.0  0.03308  0.89021  0.87714  1.0000
  H   H477      1.0  0.35624  0.53446  0.78907  1.0000
  C   C472      1.0  0.51520  0.63444  0.83194  1.0000
  C   C473      1.0  0.32863  0.54304  0.76204  1.0000
  C   C474      1.0  0.10353  0.82297  0.90912  1.0000
  C   C475      1.0  0.13025  0.81502  0.91786  1.0000
  C   C476      1.0  0.15303  0.78912  0.91435  1.0000
  C   C477      1.0  0.14914  0.77136  0.90203  1.0000
  C   C478      1.0  0.12254  0.77942  0.89335  1.0000
  C   C479      1.0  0.09993  0.80523  0.89679  1.0000
  H   H478      1.0  0.13326  0.82881  0.92737  1.0000
  H   H479      1.0  0.17366  0.78314  0.92110  1.0000
  H   H480      1.0  0.11977  0.76604  0.88378  1.0000
  H   H481      1.0  0.08021  0.81182  0.88967  1.0000
  C   C480      1.0  0.18973  0.58508  0.94075  1.0000
  C   C481      1.0  0.18203  0.58985  0.92572  1.0000
  C   C482      1.0  0.16378  0.56561  0.91993  1.0000
  C   C483      1.0  0.15298  0.53649  0.92912  1.0000
  C   C484      1.0  0.28069  0.57480  0.75403  1.0000
  C   C485      1.0  0.17872  0.55609  0.94994  1.0000
  H   H482      1.0  0.19032  0.61207  0.91858  1.0000
  H   H483      1.0  0.15811  0.56930  0.90827  1.0000
  H   H484      1.0  0.22066  0.74457  0.84554  1.0000
  H   H485      1.0  0.20539  0.54579  0.77414  1.0000
  C   C486      1.0  0.47677  0.98135  0.83806  1.0000
  H   H486      1.0  0.32240  0.75051  0.95201  1.0000
  H   H487      1.0  0.45740  0.63949  0.80667  1.0000
  C   C487      1.0  0.16036  0.53193  0.94418  1.0000
  H   H488      1.0  0.40236  0.86037  0.90722  1.0000
  C   C488      1.0  0.10756  0.78911  0.73243  1.0000
  H   H489      1.0  0.42432  0.97018  0.84236  1.0000
  H   H490      1.0  0.34363  0.78792  0.86581  1.0000
  C   C489      1.0  0.39975  0.78397  0.88850  1.0000
  C   C490      1.0  0.40258  0.75893  0.87871  1.0000
  C   C491      1.0  0.38155  0.73122  0.88164  1.0000
  C   C492      1.0  0.35738  0.72866  0.89426  1.0000
  C   C493      1.0  0.35466  0.75359  0.90409  1.0000
  C   C494      1.0  0.37594  0.78110  0.90126  1.0000
  H   H491      1.0  0.42130  0.76072  0.86901  1.0000
  H   H492      1.0  0.38374  0.71188  0.87405  1.0000
  H   H493      1.0  0.33627  0.75157  0.91393  1.0000
  H   H494      1.0  0.37345  0.80035  0.90884  1.0000
  C   C495      1.0  0.30248  0.78755  0.80463  1.0000
  C   C496      1.0  0.33604  0.78946  0.80728  1.0000
  C   C497      1.0  0.34627  0.81439  0.81547  1.0000
  C   C498      1.0  0.32285  0.83714  0.82133  1.0000
  C   C499      1.0  0.28892  0.83426  0.81935  1.0000
  C   C500      1.0  0.27867  0.80935  0.81102  1.0000
  H   H495      1.0  0.35445  0.77236  0.80250  1.0000
  H   H496      1.0  0.37250  0.81655  0.81682  1.0000
  H   H497      1.0  0.27074  0.85189  0.82387  1.0000
  H   H498      1.0  0.25271  0.80810  0.80892  1.0000
  C   C501      1.0  0.13522  0.75910  0.75306  1.0000
  C   C502      1.0  0.13058  0.78706  0.76113  1.0000
  C   C503      1.0  0.11411  0.81579  0.75492  1.0000
  H   H499      1.0  0.13905  0.78630  0.77227  1.0000
  H   H500      1.0  0.11003  0.83708  0.76135  1.0000
  C   C504      1.0  0.11250  0.75875  0.84016  1.0000
  C   C505      1.0  0.10127  0.77802  0.82763  1.0000
  C   C506      1.0  0.07300  0.79921  0.82963  1.0000
  C   C507      1.0  0.05638  0.80172  0.84418  1.0000
  C   C508      1.0  0.06740  0.78207  0.85661  1.0000
  C   C509      1.0  0.09498  0.76033  0.85453  1.0000
  H   H501      1.0  0.11452  0.77691  0.81646  1.0000
  H   H502      1.0  0.06445  0.81426  0.81994  1.0000
  H   H503      1.0  0.05455  0.78336  0.86782  1.0000
  H   H504      1.0  0.10277  0.74471  0.86413  1.0000
  C   C510      1.0  0.24248  0.58155  0.80088  1.0000
  C   C511      1.0  0.22068  0.57779  0.78999  1.0000
  C   C512      1.0  0.22256  0.54875  0.78244  1.0000
  H   H505      1.0  0.43889  0.68787  0.82070  1.0000
  C   C513      1.0  0.50432  0.66186  0.83965  1.0000
  C   C514      1.0  0.26622  0.55624  0.80409  1.0000
  H   H506      1.0  0.20210  0.59700  0.78753  1.0000
  H   H507      1.0  0.38433  0.55877  0.77513  1.0000
  H   H508      1.0  0.21042  0.73330  0.86542  1.0000
  H   H509      1.0  0.28291  0.55884  0.81262  1.0000
  S   S183      1.0  0.20123  0.71047  0.93883  1.0000
  N   N39       1.0  0.13866  0.86931  0.87508  1.0000
  C   C515      1.0  0.16457  0.84782  0.87825  1.0000
  C   C516      1.0  0.12209  0.86673  0.86264  1.0000
  C   C517      1.0  0.17403  0.82249  0.86902  1.0000
  C   C518      1.0  0.13097  0.84178  0.85314  1.0000
  C   C519      1.0  0.15701  0.81946  0.85641  1.0000
  C   C520      1.0  0.12961  0.89626  0.88463  1.0000
  H   H510      1.0  0.17737  0.84948  0.88825  1.0000
  H   H511      1.0  0.10165  0.88381  0.86005  1.0000
  H   H512      1.0  0.19365  0.80469  0.87193  1.0000
  H   H513      1.0  0.11742  0.83953  0.84342  1.0000
  H   H514      1.0  0.16365  0.79960  0.84928  1.0000
  H   H515      1.0  0.10207  0.90079  0.88581  1.0000
  H   H516      1.0  0.13643  0.88961  0.89637  1.0000
  H   H517      1.0  0.14237  0.91959  0.87965  1.0000
  C   C521      1.0  0.44299  0.98927  0.84178  1.0000
  S   S184      1.0  0.02221  0.82971  0.84658  1.0000
  H   H518      1.0  0.09812  0.78929  0.72153  1.0000
  C   C522      1.0  0.39791  0.83944  0.94490  1.0000
  C   C523      1.0  0.46020  0.67277  0.82399  1.0000
  C   C524      1.0  0.24672  0.52372  0.78545  1.0000
  C   C525      1.0  0.35455  0.87980  0.93888  1.0000
  N   N40       1.0  0.35888  0.83950  0.77874  1.0000
  C   C526      1.0  0.36093  0.81036  0.77208  1.0000
  C   C527      1.0  0.38602  0.85064  0.78470  1.0000
  C   C528      1.0  0.39031  0.79083  0.77184  1.0000
  C   C529      1.0  0.41580  0.83178  0.78458  1.0000
  C   C530      1.0  0.41781  0.80156  0.77824  1.0000
  C   C531      1.0  0.32759  0.85919  0.77932  1.0000
  H   H519      1.0  0.33929  0.80129  0.76752  1.0000
  H   H520      1.0  0.38434  0.87358  0.79011  1.0000
  H   H521      1.0  0.39140  0.76715  0.76705  1.0000
  H   H522      1.0  0.43704  0.84000  0.78971  1.0000
  H   H523      1.0  0.44055  0.78637  0.77853  1.0000
  H   H524      1.0  0.32812  0.87821  0.76933  1.0000
  H   H525      1.0  0.30555  0.84292  0.77952  1.0000
  H   H526      1.0  0.32375  0.87182  0.78989  1.0000
  H   H527      1.0  0.51485  0.97952  0.79958  1.0000
  N   N41       1.0  0.16704  0.66057  0.87114  1.0000
  C   C532      1.0  0.17533  0.65265  0.85664  1.0000
  C   C533      1.0  0.18439  0.64662  0.88271  1.0000
  C   C534      1.0  0.20105  0.62949  0.85349  1.0000
  C   C535      1.0  0.21012  0.62320  0.87998  1.0000
  C   C536      1.0  0.21839  0.61457  0.86527  1.0000
  C   C537      1.0  0.14060  0.68550  0.87412  1.0000
  H   H528      1.0  0.16197  0.66417  0.84741  1.0000
  H   H529      1.0  0.17829  0.65350  0.89414  1.0000
  H   H530      1.0  0.20740  0.62306  0.84197  1.0000
  H   H531      1.0  0.22349  0.61181  0.88925  1.0000
  H   H532      1.0  0.23820  0.59635  0.86299  1.0000
  H   H533      1.0  0.12957  0.68254  0.88617  1.0000
  H   H534      1.0  0.15110  0.71092  0.87160  1.0000
  H   H535      1.0  0.11998  0.68346  0.86690  1.0000
  N   N42       1.0  0.26145  0.74730  0.85870  1.0000
  C   C538      1.0  0.26559  0.75547  0.87289  1.0000
  C   C539      1.0  0.28661  0.75261  0.84711  1.0000
  C   C540      1.0  0.29505  0.77048  0.87560  1.0000
  C   C541      1.0  0.31663  0.76697  0.84955  1.0000
  C   C542      1.0  0.32061  0.77641  0.86382  1.0000
  C   C543      1.0  0.23046  0.73175  0.85589  1.0000
  H   H536      1.0  0.24618  0.75032  0.88222  1.0000
  H   H537      1.0  0.28359  0.74571  0.83589  1.0000
  H   H538      1.0  0.29842  0.77692  0.88682  1.0000
  H   H539      1.0  0.33677  0.77073  0.84048  1.0000
  H   H540      1.0  0.36023  0.57838  0.79007  1.0000
  H   H541      1.0  0.45473  0.81334  0.93376  1.0000
  Fe  Fe96      1.0  0.25085  0.73367  0.94074  1.0000
  C   C544      1.0  0.30248  0.54744  0.75281  1.0000
  H   H542      1.0  0.18456  0.55213  0.96157  1.0000
  N   N43       1.0  0.40928  0.84016  0.92983  1.0000
  H   H543      1.0  0.03115  0.58502  0.94935  1.0000
  C   C545      1.0  0.50068  0.00653  0.83734  1.0000
  H   H544      1.0  0.48672  0.72038  0.84856  1.0000
  H   H545      1.0  0.35369  0.89569  0.91502  1.0000
  C   C546      1.0  0.49818  0.62632  0.82005  1.0000
  C   C547      1.0  0.47030  0.00992  0.80290  1.0000
  C   C548      1.0  0.10217  0.81677  0.74064  1.0000
  S   S185      1.0  0.46702  0.78630  0.81018  1.0000
  H   H546      1.0  0.45403  0.72894  0.83663  1.0000
  C   C549      1.0  0.36609  0.88016  0.92353  1.0000
  N   N44       1.0  0.33268  0.56505  0.77232  1.0000
  C   C550      1.0  0.47047  0.64552  0.81603  1.0000
  N   N45       1.0  0.47728  0.68078  0.83555  1.0000
  H   H547      1.0  0.36187  0.85904  0.96162  1.0000
  C   C551      1.0  0.50265  0.73284  0.80003  1.0000
  C   C552      1.0  0.28532  0.59744  0.76437  1.0000
  C   C553      1.0  0.26862  0.52760  0.79628  1.0000
  C   C554      1.0  0.48124  0.53853  0.76979  1.0000
  C   C555      1.0  0.32031  0.76698  0.96089  1.0000
  C   C556      1.0  0.35970  0.55900  0.78214  1.0000
  S   S186      1.0  0.07883  0.85204  0.73386  1.0000
  H   H548      1.0  0.45159  0.82918  0.91438  1.0000
  H   H549      1.0  0.12740  0.73881  0.73236  1.0000
  S   S187      1.0  0.49967  0.54645  0.79808  1.0000
  C   C557      1.0  0.12396  0.76040  0.73864  1.0000
  H   H550      1.0  0.45353  0.98891  0.80400  1.0000
  C   C558      1.0  0.31147  0.59204  0.77357  1.0000
  H   H551      1.0  0.07396  0.54636  0.93832  1.0000
  C   C559      1.0  0.50016  0.75646  0.81060  1.0000
  H   H552      1.0  0.26789  0.61824  0.76575  1.0000
  C   C560      1.0  0.39369  0.86011  0.91919  1.0000
  C   C561      1.0  0.04776  0.54443  0.93652  1.0000
  H   H553      1.0  0.48502  0.73381  0.79164  1.0000
  C   C562      1.0  0.43704  0.81804  0.92498  1.0000
  C   C563      1.0  0.46555  0.70882  0.84406  1.0000
  H   H554      1.0  0.44683  0.70011  0.85367  1.0000
  H   H555      1.0  0.50672  0.60542  0.81383  1.0000
  H   H556      1.0  0.25964  0.57789  0.74730  1.0000
  C   C564      1.0  0.03804  0.51981  0.92812  1.0000
  H   H557      1.0  0.40979  0.82323  0.95338  1.0000
  H   H558      1.0  0.42708  0.79384  0.92268  1.0000
  C   C565      1.0  0.50483  0.00465  0.80040  1.0000
  S   S188      1.0  0.25186  0.76926  0.95871  1.0000
  C   C566      1.0  0.47387  0.53224  0.78550  1.0000
  C   C567      1.0  0.37064  0.85951  0.94965  1.0000
  Fe  Fe97      1.0  0.03135  0.85889  0.89964  1.0000
  H   H559      1.0  0.33307  0.89506  0.94246  1.0000
  H   H560      1.0  0.13820  0.90045  0.71928  1.0000
  C   C568      1.0  0.02057  0.74966  0.72185  1.0000
  C   C569      1.0  0.46105  0.52508  0.76009  1.0000
  H   H561      1.0  0.46697  0.52971  0.74792  1.0000
  H   H562      1.0  0.34535  0.52159  0.76111  1.0000
  H   H563      1.0  0.05027  0.70785  0.73036  1.0000
  H   H564      1.0  0.05725  0.73125  0.75435  1.0000
  H   H565      1.0  0.29852  0.52915  0.74513  1.0000
  C   C570      1.0  0.02349  0.56614  0.94269  1.0000
  H   H566      1.0  0.05495  0.77820  0.76841  1.0000
  C   C571      1.0  0.03890  0.73179  0.73257  1.0000
  C   C572      1.0  0.04268  0.74517  0.74613  1.0000
  C   C573      1.0  0.03290  0.78944  0.76308  1.0000
  H   H567      1.0  0.03710  0.81683  0.76109  1.0000
  H   H568      1.0  0.01759  0.97970  0.89382  1.0000
  H   H569      1.0  0.37338  0.76614  0.96303  1.0000
  N   N46       1.0  0.02926  0.77587  0.74874  1.0000
  C   C574      1.0  0.28891  0.77969  0.96607  1.0000
  H   H570      1.0  0.99241  0.51342  0.17747  1.0000
  Fe  Fe98      1.0  0.54806  0.15362  0.00999  1.0000
  S   S189      1.0  0.54190  0.16426  0.03436  1.0000
  S   S190      1.0  0.54739  0.19656  0.99143  1.0000
  H   H571      1.0  0.60214  0.47392  0.17813  1.0000
  H   H572      1.0  0.74897  0.09980  0.02328  1.0000
  H   H573      1.0  0.61684  0.17690  0.99371  1.0000
  Fe  Fe99      1.0  0.57356  0.11757  0.03856  1.0000
  S   S191      1.0  0.61295  0.11431  0.05521  1.0000
  S   S192      1.0  0.58363  0.11001  0.01384  1.0000
  H   H574      1.0  0.66842  0.33797  0.15420  1.0000
  N   N47       1.0  0.71420  0.13091  0.03534  1.0000
  C   C575      1.0  0.66508  0.14881  0.02327  1.0000
  C   C576      1.0  0.00987  0.47878  0.13107  1.0000
  H   H575      1.0  0.71297  0.33165  0.97912  1.0000
  C   C577      1.0  0.59710  0.30926  0.98137  1.0000
  S   S193      1.0  0.75134  0.45145  0.16369  1.0000
  S   S194      1.0  0.90896  0.47173  0.13177  1.0000
  S   S195      1.0  0.81508  0.48392  0.12591  1.0000
  C   C578      1.0  0.70080  0.32639  0.96905  1.0000
  C   C579      1.0  0.72743  0.34159  0.19786  1.0000
  Fe  Fe100     1.0  0.57694  0.36990  0.16874  1.0000
  S   S196      1.0  0.58169  0.36588  0.19368  1.0000
  S   S197      1.0  0.61311  0.39561  0.15020  1.0000
  Fe  Fe101     1.0  0.56223  0.31406  0.19419  1.0000
  H   H576      1.0  0.75231  0.37566  0.18001  1.0000
  S   S198      1.0  0.89854  0.02754  0.07806  1.0000
  H   H577      1.0  0.53507  0.22414  0.17257  1.0000
  S   S199      1.0  0.56178  0.31668  0.16893  1.0000
  C   C580      1.0  0.96396  0.03182  0.08371  1.0000
  H   H578      1.0  0.74926  0.10743  0.04968  1.0000
  C   C581      1.0  0.54654  0.46998  0.15771  1.0000
  H   H579      1.0  0.66935  0.19663  0.97831  1.0000
  Fe  Fe102     1.0  0.52719  0.38112  0.19571  1.0000
  C   C582      1.0  0.57882  0.45920  0.17967  1.0000
  C   C583      1.0  0.72570  0.11416  0.02321  1.0000
  C   C584      1.0  0.71109  0.44090  0.15978  1.0000
  C   C585      1.0  0.68814  0.42794  0.17186  1.0000
  C   C586      1.0  0.65761  0.41476  0.16911  1.0000
  C   C587      1.0  0.64977  0.41459  0.15422  1.0000
  C   C588      1.0  0.67214  0.42866  0.14217  1.0000
  C   C589      1.0  0.70273  0.44185  0.14493  1.0000
  H   H580      1.0  0.69451  0.42720  0.18338  1.0000
  H   H581      1.0  0.64069  0.40400  0.17849  1.0000
  H   H582      1.0  0.66618  0.42870  0.13062  1.0000
  H   H583      1.0  0.72032  0.45165  0.13555  1.0000
  C   C590      1.0  0.99685  0.01968  0.08501  1.0000
  C   C591      1.0  0.97754  0.46773  0.12958  1.0000
  H   H584      1.0  0.57064  0.30416  0.98422  1.0000
  H   H585      1.0  0.97459  0.44364  0.12562  1.0000
  Fe  Fe103     1.0  0.53706  0.07896  0.01837  1.0000
  H   H586      1.0  0.88363  0.49810  0.08178  1.0000
  Fe  Fe104     1.0  0.78527  0.48836  0.14854  1.0000
  C   C592      1.0  0.94904  0.48738  0.13337  1.0000
  C   C593      1.0  0.73439  0.13105  0.04809  1.0000
  C   C594      1.0  0.64655  0.08490  0.05465  1.0000
  C   C595      1.0  0.66683  0.08102  0.06665  1.0000
  C   C596      1.0  0.69668  0.06180  0.06559  1.0000
  C   C597      1.0  0.70685  0.04701  0.05234  1.0000
  C   C598      1.0  0.68579  0.04958  0.04064  1.0000
  C   C599      1.0  0.65559  0.06816  0.04184  1.0000
  H   H587      1.0  0.65993  0.09377  0.07663  1.0000
  H   H588      1.0  0.71268  0.06003  0.07468  1.0000
  H   H589      1.0  0.54014  0.50870  0.18945  1.0000
  H   H590      1.0  0.64015  0.07086  0.03255  1.0000
  Fe  Fe105     1.0  0.85960  0.49983  0.13665  1.0000
  H   H591      1.0  0.65880  0.29782  0.16452  1.0000
  C   C600      1.0  0.68453  0.14847  0.03540  1.0000
  C   C601      1.0  0.58474  0.20791  0.98008  1.0000
  C   C602      1.0  0.61574  0.19505  0.98391  1.0000
  H   H592      1.0  0.61321  0.26440  0.99417  1.0000
  C   C603      1.0  0.95294  0.44670  0.16770  1.0000
  H   H593      1.0  0.94137  0.49275  0.09909  1.0000
  H   H594      1.0  0.67491  0.16108  0.04517  1.0000
  H   H595      1.0  0.75170  0.15244  0.04607  1.0000
  H   H596      1.0  0.97805  0.40317  0.15986  1.0000
  H   H597      1.0  0.57038  0.45388  0.19199  1.0000
  H   H598      1.0  0.64082  0.16146  0.02374  1.0000
  N   N48       1.0  0.68452  0.33005  0.17656  1.0000
  C   C604      1.0  0.62102  0.28695  0.98701  1.0000
  C   C605      1.0  0.53540  0.50287  0.17828  1.0000
  C   C606      1.0  0.98076  0.05607  0.04870  1.0000
  C   C607      1.0  0.73232  0.35774  0.18315  1.0000
  H   H599      1.0  0.71815  0.13281  0.05891  1.0000
  C   C608      1.0  0.65504  0.29298  0.98271  1.0000
  C   C609      1.0  0.98127  0.42683  0.16422  1.0000
  N   N49       1.0  0.01260  0.43758  0.16584  1.0000
  H   H600      1.0  0.74393  0.34641  0.20623  1.0000
  H   H601      1.0  0.71442  0.36456  0.16121  1.0000
  C   C610      1.0  0.71069  0.35140  0.17254  1.0000
  C   C611      1.0  0.67954  0.31407  0.19094  1.0000
  C   C612      1.0  0.64535  0.20625  0.97520  1.0000
  H   H602      1.0  0.67346  0.27473  0.98656  1.0000
  H   H603      1.0  0.66119  0.13102  0.00160  1.0000
  N   N50       1.0  0.99834  0.02660  0.04795  1.0000
  C   C613      1.0  0.87840  0.50548  0.09345  1.0000
  C   C614      1.0  0.66085  0.32484  0.16565  1.0000
  H   H604      1.0  0.01657  0.03681  0.08592  1.0000
  H   H605      1.0  0.69343  0.03815  0.03036  1.0000
  C   C615      1.0  0.99700  0.08534  0.05070  1.0000
  S   S200      1.0  0.80107  0.02482  0.08707  1.0000
  H   H606      1.0  0.95872  0.05834  0.08354  1.0000
  S   S201      1.0  0.52899  0.08415  0.04325  1.0000
  C   C616      1.0  0.67639  0.13148  0.01094  1.0000
  C   C617      1.0  0.70694  0.11409  0.01086  1.0000
  H   H607      1.0  0.58461  0.43475  0.17527  1.0000
  C   C618      1.0  0.95686  0.47778  0.17275  1.0000
  H   H608      1.0  0.63578  0.33490  0.16955  1.0000
  N   N51       1.0  0.66494  0.32076  0.97325  1.0000
  H   H609      1.0  0.56073  0.45027  0.15238  1.0000
  H   H610      1.0  0.98289  0.10849  0.05165  1.0000
  C   C619      1.0  0.98892  0.48872  0.17417  1.0000
  H   H611      1.0  0.71570  0.10008  0.00144  1.0000
  H   H612      1.0  0.65872  0.29719  0.19412  1.0000
  H   H613      1.0  0.92820  0.43867  0.16590  1.0000
  C   C620      1.0  0.60741  0.33767  0.97180  1.0000
  S   S202      1.0  0.74764  0.02981  0.04890  1.0000
  C   C621      1.0  0.01400  0.50973  0.13630  1.0000
  C   C622      1.0  0.70102  0.31942  0.20178  1.0000
  S   S203      1.0  0.58321  0.26635  0.20542  1.0000
  S   S204      1.0  0.83074  0.49995  0.15963  1.0000
  N   N52       1.0  0.55269  0.47748  0.17176  1.0000
  H   H614      1.0  0.93516  0.49385  0.17502  1.0000
  S   S205      1.0  0.53565  0.02774  0.01043  1.0000
  H   H615      1.0  0.51806  0.26212  0.16346  1.0000
  H   H616      1.0  0.87935  0.48291  0.10179  1.0000
  C   C623      1.0  0.52136  0.48707  0.15016  1.0000
  C   C624      1.0  0.64166  0.34324  0.96795  1.0000
  H   H617      1.0  0.99104  0.06120  0.12337  1.0000
  C   C625      1.0  0.00559  0.03812  0.12404  1.0000
  H   H618      1.0  0.95382  0.05683  0.04826  1.0000
  H   H619      1.0  1.00000  0.47674  0.96772  1.0000
  C   C626      1.0  0.95549  0.50772  0.97067  1.0000
  S   S206      1.0  0.52388  0.38852  0.17066  1.0000
  C   C627      1.0  0.58343  0.23156  0.96738  1.0000
  H   H620      1.0  0.69703  0.30667  0.21319  1.0000
  H   H621      1.0  0.58904  0.35506  0.96722  1.0000
  C   C628      1.0  0.01670  0.46828  0.17054  1.0000
  Fe  Fe106     1.0  0.96734  0.37631  0.32105  1.0000
  S   S207      1.0  0.99293  0.32916  0.33074  1.0000
  H   H622      1.0  0.60982  0.23615  0.27316  1.0000
  Fe  Fe107     1.0  0.90545  0.33761  0.31637  1.0000
  S   S208      1.0  0.92586  0.28848  0.32581  1.0000
  S   S209      1.0  0.85390  0.33951  0.30855  1.0000
  Fe  Fe108     1.0  0.94230  0.31758  0.34358  1.0000
  S   S210      1.0  0.93308  0.29540  0.36799  1.0000
  Fe  Fe109     1.0  0.97402  0.30392  0.31202  1.0000
  S   S211      1.0  0.91821  0.36608  0.33530  1.0000
  S   S212      1.0  0.95229  0.35175  0.30131  1.0000
  Fe  Fe110     1.0  0.68596  0.18710  0.30272  1.0000
  S   S213      1.0  0.71379  0.23304  0.29307  1.0000
  S   S214      1.0  0.65973  0.18647  0.32649  1.0000
  Fe  Fe111     1.0  0.71112  0.14905  0.27574  1.0000
  S   S215      1.0  0.74009  0.19306  0.26387  1.0000
  S   S216      1.0  0.71604  0.10289  0.26304  1.0000
  Fe  Fe112     1.0  0.75619  0.19826  0.28674  1.0000
  S   S217      1.0  0.81087  0.20189  0.28986  1.0000
  Fe  Fe113     1.0  0.69495  0.22386  0.27108  1.0000
  S   S218      1.0  0.67668  0.27090  0.25794  1.0000
  S   S219      1.0  0.73005  0.15255  0.29823  1.0000
  S   S220      1.0  0.66398  0.17966  0.28114  1.0000
  S   S221      1.0  0.54608  0.35698  0.37136  1.0000
  S   S222      1.0  0.54879  0.29771  0.34028  1.0000
  Fe  Fe114     1.0  0.56055  0.32591  0.39204  1.0000
  S   S223      1.0  0.61119  0.33560  0.39895  1.0000
  Fe  Fe115     1.0  0.77962  0.20221  0.40659  1.0000
  S   S224      1.0  0.76599  0.23700  0.42430  1.0000
  S   S225      1.0  0.79141  0.22650  0.38264  1.0000
  Fe  Fe116     1.0  0.76660  0.13949  0.42910  1.0000
  S   S226      1.0  0.76267  0.08326  0.43490  1.0000
  Fe  Fe117     1.0  0.72402  0.20157  0.43231  1.0000
  S   S227      1.0  0.66898  0.21108  0.43782  1.0000
  S   S228      1.0  0.73480  0.16958  0.41335  1.0000
  S   S229      1.0  0.81304  0.16890  0.42047  1.0000
  C   C629      1.0  0.62705  0.30110  0.40984  1.0000
  C   C630      1.0  0.66116  0.29938  0.41190  1.0000
  C   C631      1.0  0.67429  0.27161  0.42035  1.0000
  C   C632      1.0  0.65320  0.24582  0.42701  1.0000
  C   C633      1.0  0.61905  0.24765  0.42500  1.0000
  C   C634      1.0  0.60603  0.27510  0.41630  1.0000
  H   H623      1.0  0.67746  0.31947  0.40692  1.0000
  H   H624      1.0  0.70057  0.27051  0.42197  1.0000
  H   H625      1.0  0.60260  0.22785  0.43020  1.0000
  H   H626      1.0  0.57961  0.27641  0.41486  1.0000
  C   C635      1.0  0.65187  0.26903  0.24299  1.0000
  C   C636      1.0  0.64003  0.29893  0.23568  1.0000
  C   C637      1.0  0.64303  0.23856  0.23854  1.0000
  C   C638      1.0  0.82920  0.07334  0.27842  1.0000
  H   H627      1.0  0.65213  0.21540  0.24412  1.0000
  C   C639      1.0  0.62958  0.21800  0.33022  1.0000
  C   C640      1.0  0.61307  0.21820  0.34491  1.0000
  C   C641      1.0  0.58843  0.24261  0.34814  1.0000
  C   C642      1.0  0.58023  0.26714  0.33673  1.0000
  C   C643      1.0  0.59705  0.26715  0.32208  1.0000
  C   C644      1.0  0.62176  0.24274  0.31884  1.0000
  H   H628      1.0  0.61888  0.19898  0.35372  1.0000
  H   H629      1.0  0.57511  0.24180  0.35934  1.0000
  H   H630      1.0  0.59086  0.28608  0.31322  1.0000
  H   H631      1.0  0.63455  0.24284  0.30752  1.0000
  C   C645      1.0  0.84347  0.30315  0.30097  1.0000
  C   C646      1.0  0.81039  0.29881  0.29808  1.0000
  C   C647      1.0  0.80049  0.26820  0.29399  1.0000
  C   C648      1.0  0.82364  0.24185  0.29277  1.0000
  C   C649      1.0  0.85719  0.24686  0.29474  1.0000
  C   C650      1.0  0.86713  0.27753  0.29877  1.0000
  H   H632      1.0  0.79216  0.31882  0.29944  1.0000
  H   H633      1.0  0.77482  0.26492  0.29210  1.0000
  H   H634      1.0  0.87540  0.22686  0.29341  1.0000
  H   H635      1.0  0.89303  0.28126  0.30022  1.0000
  C   C651      1.0  0.98317  0.46675  0.32003  1.0000
  C   C652      1.0  0.95149  0.47408  0.32717  1.0000
  H   H636      1.0  0.88721  0.25628  0.46386  1.0000
  C   C653      1.0  0.71577  0.07109  0.41570  1.0000
  H   H637      1.0  0.93368  0.45426  0.33045  1.0000
  C   C654      1.0  0.74733  0.04271  0.25880  1.0000
  C   C655      1.0  0.83024  0.24688  0.37922  1.0000
  C   C656      1.0  0.83680  0.26918  0.36612  1.0000
  C   C657      1.0  0.86824  0.28420  0.36262  1.0000
  C   C658      1.0  0.89322  0.27736  0.37237  1.0000
  C   C659      1.0  0.88632  0.25584  0.38574  1.0000
  C   C660      1.0  0.85492  0.24059  0.38916  1.0000
  H   H638      1.0  0.81752  0.27488  0.35865  1.0000
  H   H639      1.0  0.87307  0.30129  0.35244  1.0000
  H   H640      1.0  0.90557  0.25040  0.39330  1.0000
  H   H641      1.0  0.85012  0.22346  0.39932  1.0000
  H   H642      1.0  0.84754  0.03984  0.23941  1.0000
  C   C661      1.0  0.59816  0.25848  0.27804  1.0000
  C   C662      1.0  0.74415  0.05823  0.28435  1.0000
  C   C663      1.0  0.73719  0.06557  0.26929  1.0000
  H   H643      1.0  0.94601  0.14841  0.28887  1.0000
  N   N53       1.0  0.58074  0.27949  0.26677  1.0000
  H   H644      1.0  0.73609  0.07539  0.29259  1.0000
  C   C664      1.0  0.61816  0.07282  0.42736  1.0000
  Fe  Fe118     1.0  0.53090  0.30818  0.36435  1.0000
  C   C665      1.0  0.69254  0.05070  0.41048  1.0000
  C   C666      1.0  0.68292  0.02017  0.41873  1.0000
  H   H645      1.0  0.55758  0.38389  0.41456  1.0000
  H   H646      1.0  0.56036  0.40198  0.39506  1.0000
  C   C667      1.0  0.54781  0.28463  0.24562  1.0000
  C   C668      1.0  0.73016  0.06069  0.42905  1.0000
  H   H647      1.0  0.61905  0.27214  0.28172  1.0000
  H   H648      1.0  0.99078  0.17286  0.32736  1.0000
  C   C669      1.0  0.72048  0.03023  0.43733  1.0000
  H   H649      1.0  0.72339  0.09427  0.40911  1.0000
  C   C670      1.0  0.00592  0.49297  0.31582  1.0000
  H   H650      1.0  0.81639  0.09326  0.24191  1.0000
  H   H651      1.0  0.76567  0.02240  0.30056  1.0000
  H   H652      1.0  0.81888  0.14323  0.26756  1.0000
  H   H653      1.0  0.65264  0.05665  0.46050  1.0000
  H   H654      1.0  0.70505  0.11015  0.45256  1.0000
  H   H655      1.0  0.98923  0.41409  0.35591  1.0000
  C   C671      1.0  0.53362  0.49386  0.41263  1.0000
  H   H656      1.0  0.87879  0.26404  0.42502  1.0000
  C   C672      1.0  0.00621  0.12584  0.31945  1.0000
  C   C673      1.0  0.64574  0.07071  0.45019  1.0000
  C   C674      1.0  0.82670  0.30877  0.44159  1.0000
  C   C675      1.0  0.56370  0.40692  0.40681  1.0000
  C   C676      1.0  0.80081  0.12301  0.26718  1.0000
  C   C677      1.0  0.86467  0.28703  0.42127  1.0000
  H   H657      1.0  0.62472  0.11853  0.41246  1.0000
  N   N54       1.0  0.65623  0.28793  0.36969  1.0000
  C   C678      1.0  0.64507  0.25933  0.37822  1.0000
  C   C679      1.0  0.68916  0.29653  0.36884  1.0000
  C   C680      1.0  0.66713  0.23850  0.38618  1.0000
  C   C681      1.0  0.71197  0.27609  0.37654  1.0000
  C   C682      1.0  0.70078  0.24694  0.38527  1.0000
  C   C683      1.0  0.63308  0.30982  0.36138  1.0000
  H   H658      1.0  0.61894  0.25269  0.37912  1.0000
  H   H659      1.0  0.69784  0.31947  0.36228  1.0000
  H   H660      1.0  0.65805  0.21634  0.39327  1.0000
  H   H661      1.0  0.73814  0.28280  0.37593  1.0000
  H   H662      1.0  0.71813  0.23121  0.39148  1.0000
  H   H663      1.0  0.63199  0.33498  0.36545  1.0000
  H   H664      1.0  0.64112  0.31194  0.34900  1.0000
  H   H665      1.0  0.60715  0.30024  0.36303  1.0000
  N   N55       1.0  0.79947  0.23648  0.33193  1.0000
  C   C684      1.0  0.78081  0.20899  0.33108  1.0000
  C   C685      1.0  0.78463  0.26748  0.33179  1.0000
  C   C686      1.0  0.74636  0.21210  0.33000  1.0000
  C   C687      1.0  0.75027  0.27154  0.33054  1.0000
  C   C688      1.0  0.73103  0.24358  0.32973  1.0000
  C   C689      1.0  0.83537  0.23224  0.33344  1.0000
  H   H666      1.0  0.79262  0.18448  0.33104  1.0000
  H   H667      1.0  0.79955  0.28940  0.33216  1.0000
  H   H668      1.0  0.73165  0.19027  0.32919  1.0000
  H   H669      1.0  0.73886  0.29627  0.32990  1.0000
  H   H670      1.0  0.70438  0.24620  0.32862  1.0000
  H   H671      1.0  0.84856  0.25651  0.33138  1.0000
  H   H672      1.0  0.83910  0.22075  0.34505  1.0000
  H   H673      1.0  0.84720  0.21604  0.32499  1.0000
  H   H674      1.0  0.82344  0.08226  0.28947  1.0000
  H   H675      1.0  0.91995  0.18999  0.31121  1.0000
  H   H676      1.0  0.65913  0.14455  0.42928  1.0000
  C   C690      1.0  0.62593  0.05552  0.44098  1.0000
  H   H677      1.0  0.78305  0.12159  0.27767  1.0000
  C   C691      1.0  0.54631  0.31921  0.24583  1.0000
  C   C692      1.0  0.67855  0.11753  0.45564  1.0000
  C   C693      1.0  0.84662  0.04298  0.27735  1.0000
  N   N56       1.0  0.96636  0.16365  0.30812  1.0000
  H   H678      1.0  0.67649  0.14526  0.45418  1.0000
  N   N57       1.0  0.81851  0.09101  0.26580  1.0000
  C   C694      1.0  0.98746  0.49675  0.36074  1.0000
  N   N58       1.0  0.85801  0.30769  0.43387  1.0000
  H   H679      1.0  0.87944  0.30092  0.41142  1.0000
  S   S230      1.0  0.99677  0.42512  0.31735  1.0000
  C   C695      1.0  0.00279  0.10385  0.30869  1.0000
  C   C696      1.0  0.95842  0.48215  0.46575  1.0000
  H   H680      1.0  0.59110  0.32477  0.27561  1.0000
  H   H681      1.0  0.94944  0.47579  0.45542  1.0000
  H   H682      1.0  0.97824  0.09481  0.28928  1.0000
  H   H683      1.0  0.74183  0.04805  0.24716  1.0000
  C   C697      1.0  0.62227  0.23806  0.22684  1.0000
  C   C698      1.0  0.98086  0.11190  0.29769  1.0000
  H   H684      1.0  0.79800  0.02639  0.42134  1.0000
  C   C699      1.0  0.97661  0.46377  0.36184  1.0000
  H   H685      1.0  0.56084  0.36058  0.25696  1.0000
  H   H686      1.0  0.91883  0.51211  0.33631  1.0000
  C   C700      1.0  0.55448  0.46662  0.40938  1.0000
  H   H687      1.0  0.90873  0.32310  0.43237  1.0000
  S   S231      1.0  0.83996  0.22194  0.44968  1.0000
  Fe  Fe119     1.0  0.79704  0.20218  0.43878  1.0000
  S   S232      1.0  0.54886  0.27714  0.38428  1.0000
  H   H688      1.0  0.60997  0.32159  0.21857  1.0000
  C   C701      1.0  0.64956  0.11963  0.43271  1.0000
  C   C702      1.0  0.82047  0.32746  0.45398  1.0000
  C   C703      1.0  0.56189  0.33371  0.25671  1.0000
  C   C704      1.0  0.57898  0.31334  0.26720  1.0000
  H   H689      1.0  0.54727  0.49467  0.37321  1.0000
  C   C705      1.0  0.76081  0.02813  0.28885  1.0000
  H   H690      1.0  0.58042  0.25037  0.28813  1.0000
  C   C706      1.0  0.84276  0.04932  0.25039  1.0000
  C   C707      1.0  0.82519  0.07947  0.25189  1.0000
  N   N59       1.0  0.65689  0.10253  0.44609  1.0000
  S   S233      1.0  0.75354  0.16995  0.44865  1.0000
  H   H691      1.0  0.56673  0.23821  0.25586  1.0000
  H   H692      1.0  0.84116  0.27905  0.41727  1.0000
  C   C708      1.0  0.56514  0.26501  0.25628  1.0000
  H   H693      1.0  0.53644  0.27315  0.23699  1.0000
  H   H694      1.0  0.73170  0.02191  0.44762  1.0000
  C   C709      1.0  0.88376  0.32459  0.43829  1.0000
  H   H695      1.0  0.64669  0.32256  0.23917  1.0000
  C   C710      1.0  0.63001  0.10510  0.42317  1.0000
  H   H696      1.0  0.80665  0.29411  0.43857  1.0000
  H   H697      1.0  0.61771  0.02999  0.44407  1.0000
  C   C711      1.0  0.84654  0.34491  0.45851  1.0000
  H   H698      1.0  0.52803  0.43612  0.37517  1.0000
  N   N60       1.0  0.54205  0.43498  0.41108  1.0000
  C   C712      1.0  0.85349  0.03103  0.26323  1.0000
  H   H699      1.0  0.94971  0.20859  0.29613  1.0000
  C   C713      1.0  0.97258  0.51340  0.46603  1.0000
  C   C714      1.0  0.87842  0.34354  0.45063  1.0000
  H   H700      1.0  0.85391  0.02828  0.28744  1.0000
  H   H701      1.0  0.78545  0.12976  0.25761  1.0000
  C   C715      1.0  0.96276  0.14213  0.29755  1.0000
  H   H702      1.0  0.68204  0.05857  0.39996  1.0000
  C   C716      1.0  0.52122  0.48915  0.37673  1.0000
  H   H703      1.0  0.53333  0.33476  0.23749  1.0000
  C   C717      1.0  0.94687  0.19503  0.30774  1.0000
  C   C718      1.0  0.98751  0.15570  0.31908  1.0000
  H   H704      1.0  0.77675  0.03400  0.40477  1.0000
  H   H705      1.0  0.59059  0.41188  0.40738  1.0000
  H   H706      1.0  0.61537  0.21440  0.22346  1.0000
  H   H707      1.0  0.60395  0.06070  0.41987  1.0000
  C   C719      1.0  0.61930  0.29843  0.22399  1.0000
  C   C720      1.0  0.61022  0.26796  0.21960  1.0000
  S   S234      1.0  0.00491  0.02049  0.29190  1.0000
  H   H708      1.0  0.95145  0.45734  0.36679  1.0000
  H   H709      1.0  0.58038  0.47112  0.40500  1.0000
  S   S235      1.0  0.99777  0.26903  0.29519  1.0000
  H   H710      1.0  0.79592  0.32732  0.46040  1.0000
  C   C721      1.0  0.94317  0.50696  0.33050  1.0000
  C   C722      1.0  0.99785  0.43943  0.35583  1.0000
  H   H711      1.0  0.89896  0.35664  0.45426  1.0000
  H   H712      1.0  0.95561  0.21234  0.31537  1.0000
  H   H713      1.0  0.01359  0.21432  0.27787  1.0000
  C   C723      1.0  0.83488  0.24409  0.46580  1.0000
  C   C724      1.0  0.88596  0.25690  0.52953  1.0000
  S   S236      1.0  0.87100  0.09187  0.68779  1.0000
  S   S237      1.0  0.55226  0.47388  0.60327  1.0000
  H   H714      1.0  0.63244  0.40493  0.58155  1.0000
  S   S238      1.0  0.85221  0.16385  0.70147  1.0000
  H   H715      1.0  0.56378  0.48734  0.53616  1.0000
  Fe  Fe120     1.0  0.82477  0.11754  0.69780  1.0000
  S   S239      1.0  0.77166  0.11656  0.69133  1.0000
  Fe  Fe121     1.0  0.89918  0.13559  0.69382  1.0000
  S   S240      1.0  0.94350  0.15911  0.67880  1.0000
  S   S241      1.0  0.62495  0.50623  0.57212  1.0000
  H   H716      1.0  0.01103  0.24050  0.50859  1.0000
  H   H717      1.0  0.86463  0.27404  0.52955  1.0000
  H   H718      1.0  0.90099  0.27008  0.55047  1.0000
  Fe  Fe122     1.0  0.67106  0.48394  0.58155  1.0000
  S   S242      1.0  0.69598  0.43870  0.57196  1.0000
  H   H719      1.0  0.99772  0.11117  0.67184  1.0000
  C   C725      1.0  0.79070  0.49836  0.60081  1.0000
  H   H720      1.0  0.96539  0.45009  0.50213  1.0000
  C   C726      1.0  0.77716  0.44399  0.59444  1.0000
  N   N61       1.0  0.99812  0.05212  0.70186  1.0000
  H   H721      1.0  0.64036  0.42580  0.55563  1.0000
  C   C727      1.0  0.92014  0.23949  0.69330  1.0000
  C   C728      1.0  0.79872  0.47115  0.59258  1.0000
  Fe  Fe123     1.0  0.92508  0.34693  0.52774  1.0000
  S   S243      1.0  0.91804  0.33701  0.50400  1.0000
  S   S244      1.0  0.96442  0.32360  0.54211  1.0000
  Fe  Fe124     1.0  0.86934  0.40062  0.52904  1.0000
  S   S245      1.0  0.85797  0.39498  0.50538  1.0000
  S   S246      1.0  0.84655  0.44287  0.54188  1.0000
  Fe  Fe125     1.0  0.86309  0.33979  0.51182  1.0000
  S   S247      1.0  0.82349  0.30495  0.50670  1.0000
  Fe  Fe126     1.0  0.91366  0.39294  0.49965  1.0000
  S   S248      1.0  0.93575  0.42107  0.47789  1.0000
  S   S249      1.0  0.87019  0.34546  0.53619  1.0000
  S   S250      1.0  0.92500  0.40270  0.52273  1.0000
  H   H722      1.0  0.58222  0.03263  0.60584  1.0000
  C   C729      1.0  0.95529  0.45933  0.47878  1.0000
  H   H723      1.0  0.96141  0.19555  0.52977  1.0000
  H   H724      1.0  0.59462  0.38106  0.58261  1.0000
  H   H725      1.0  0.54057  0.04793  0.60487  1.0000
  C   C730      1.0  0.55899  0.02935  0.60043  1.0000
  H   H726      1.0  0.78182  0.23651  0.47069  1.0000
  C   C731      1.0  0.72634  0.41511  0.60622  1.0000
  H   H727      1.0  0.71743  0.47079  0.61998  1.0000
  C   C732      1.0  0.85972  0.27839  0.48252  1.0000
  C   C733      1.0  0.82846  0.28207  0.49079  1.0000
  H   H728      1.0  0.54385  0.43291  0.58014  1.0000
  H   H729      1.0  0.88426  0.46999  0.51360  1.0000
  C   C734      1.0  0.99385  0.29360  0.53578  1.0000
  H   H730      1.0  0.88143  0.29013  0.48569  1.0000
  C   C735      1.0  0.57189  0.47007  0.54531  1.0000
  S   S251      1.0  0.64603  0.47636  0.60531  1.0000
  H   H731      1.0  0.90268  0.26094  0.69130  1.0000
  C   C736      1.0  0.73708  0.44094  0.56270  1.0000
  C   C737      1.0  0.75526  0.47044  0.56111  1.0000
  C   C738      1.0  0.78871  0.47080  0.55453  1.0000
  C   C739      1.0  0.80403  0.44184  0.54932  1.0000
  C   C740      1.0  0.78565  0.41253  0.55066  1.0000
  C   C741      1.0  0.75232  0.41207  0.55740  1.0000
  H   H732      1.0  0.91908  0.03726  0.68907  1.0000
  H   H733      1.0  0.80281  0.49357  0.55347  1.0000
  H   H734      1.0  0.79725  0.39009  0.54667  1.0000
  H   H735      1.0  0.73840  0.38916  0.55856  1.0000
  H   H736      1.0  0.74373  0.49283  0.56513  1.0000
  H   H737      1.0  0.97617  0.26695  0.69963  1.0000
  C   C742      1.0  0.96129  0.25526  0.70959  1.0000
  H   H738      1.0  0.56433  0.03481  0.58795  1.0000
  H   H739      1.0  0.97144  0.28630  0.51553  1.0000
  C   C743      1.0  0.75987  0.09265  0.67725  1.0000
  C   C744      1.0  0.72579  0.08611  0.67682  1.0000
  C   C745      1.0  0.71544  0.06718  0.66580  1.0000
  C   C746      1.0  0.73908  0.05531  0.65488  1.0000
  C   C747      1.0  0.77316  0.06184  0.65532  1.0000
  C   C748      1.0  0.78358  0.08012  0.66654  1.0000
  H   H740      1.0  0.70727  0.09582  0.68503  1.0000
  H   H741      1.0  0.68912  0.06255  0.66551  1.0000
  H   H742      1.0  0.79160  0.05283  0.64688  1.0000
  H   H743      1.0  0.80986  0.08507  0.66670  1.0000
  C   C749      1.0  0.97744  0.17549  0.68666  1.0000
  C   C750      1.0  0.97877  0.17316  0.70234  1.0000
  H   H744      1.0  0.82132  0.47108  0.58471  1.0000
  C   C751      1.0  0.00297  0.19236  0.67701  1.0000
  C   C752      1.0  0.56102  0.43960  0.57009  1.0000
  C   C753      1.0  0.89998  0.51156  0.52430  1.0000
  H   H745      1.0  0.73019  0.40013  0.59638  1.0000
  C   C754      1.0  0.61479  0.43542  0.55640  1.0000
  H   H746      1.0  0.69958  0.42314  0.60712  1.0000
  H   H747      1.0  0.59586  0.41721  0.59298  1.0000
  C   C755      1.0  0.80358  0.24802  0.47397  1.0000
  C   C756      1.0  0.60465  0.40656  0.58220  1.0000
  H   H748      1.0  0.95938  0.16041  0.70994  1.0000
  C   C757      1.0  0.96724  0.46771  0.49208  1.0000
  C   C758      1.0  0.90642  0.25429  0.54136  1.0000
  H   H749      1.0  0.94127  0.24099  0.68410  1.0000
  C   C759      1.0  0.60443  0.45677  0.54426  1.0000
  C   C760      1.0  0.89304  0.23716  0.51764  1.0000
  C   C761      1.0  0.80049  0.26668  0.48652  1.0000
  H   H750      1.0  0.94141  0.20926  0.56323  1.0000
  H   H751      1.0  0.77625  0.26932  0.49292  1.0000
  H   H752      1.0  0.87721  0.23896  0.50845  1.0000
  C   C762      1.0  0.00452  0.08830  0.67850  1.0000
  N   N62       1.0  0.59336  0.42783  0.56926  1.0000
  N   N63       1.0  0.74816  0.44417  0.60403  1.0000
  H   H753      1.0  0.97908  0.22056  0.55090  1.0000
  C   C763      1.0  0.54992  0.46129  0.55827  1.0000
  C   C764      1.0  0.95283  0.22833  0.55440  1.0000
  H   H754      1.0  0.52463  0.47167  0.55933  1.0000
  N   N64       1.0  0.93228  0.23929  0.70824  1.0000
  H   H755      1.0  0.62183  0.46357  0.53429  1.0000
  H   H756      1.0  0.92629  0.19985  0.50841  1.0000
  H   H757      1.0  0.89299  0.49963  0.48764  1.0000
  C   C765      1.0  0.92043  0.21510  0.51768  1.0000
  H   H758      1.0  0.78349  0.42306  0.58789  1.0000
  H   H759      1.0  0.73135  0.39905  0.61668  1.0000
  H   H760      1.0  0.99095  0.50544  0.50258  1.0000
  C   C766      1.0  0.99123  0.27861  0.52254  1.0000
  H   H761      1.0  0.95423  0.25234  0.55939  1.0000
  Fe  Fe127     1.0  0.60085  0.50187  0.59610  1.0000
  Fe  Fe128     1.0  0.87601  0.07081  0.71177  1.0000
  C   C767      1.0  0.00465  0.18858  0.70831  1.0000
  C   C768      1.0  0.74024  0.47065  0.61222  1.0000
  C   C769      1.0  0.94012  0.21277  0.52980  1.0000
  N   N65       1.0  0.93303  0.23233  0.54141  1.0000
  C   C770      1.0  0.99025  0.08121  0.69348  1.0000
  H   H762      1.0  0.90707  0.21592  0.69242  1.0000
  H   H763      1.0  0.97249  0.09896  0.69826  1.0000
  H   H764      1.0  0.00674  0.40505  0.52501  1.0000
  C   C771      1.0  0.89763  0.51226  0.49735  1.0000
  H   H765      1.0  0.00221  0.19426  0.66485  1.0000
  S   S252      1.0  0.55418  0.03184  0.63925  1.0000
  C   C772      1.0  0.98186  0.49905  0.49232  1.0000
  C   C773      1.0  0.76137  0.49809  0.61074  1.0000
  C   C774      1.0  0.01357  0.25262  0.51865  1.0000
  S   S253      1.0  0.72728  0.03277  0.64034  1.0000
  C   C775      1.0  0.89302  0.49549  0.51192  1.0000
  H   H766      1.0  0.89639  0.49855  0.53566  1.0000
  H   H767      1.0  0.77939  0.03851  0.70411  1.0000
  H   H768      1.0  0.84226  0.35865  0.46840  1.0000
  C   C776      1.0  0.86294  0.25915  0.47018  1.0000
  H   H769      1.0  0.83719  0.01708  0.69755  1.0000
  C   C777      1.0  0.78388  0.01978  0.69621  1.0000
  H   H770      1.0  0.67154  0.10945  0.46785  1.0000
  H   H771      1.0  0.73219  0.01738  0.69237  1.0000
  H   H772      1.0  0.64944  0.36531  0.96046  1.0000
  S   S254      1.0  0.58238  0.15922  0.80691  1.0000
  C   C778      1.0  0.73386  0.19365  0.75889  1.0000
  C   C779      1.0  0.76643  0.16325  0.78275  1.0000
  Fe  Fe129     1.0  0.72490  0.26760  0.81702  1.0000
  S   S255      1.0  0.73365  0.31398  0.82749  1.0000
  S   S256      1.0  0.70188  0.22516  0.83273  1.0000
  Fe  Fe130     1.0  0.75671  0.29593  0.78613  1.0000
  S   S257      1.0  0.76774  0.34544  0.79412  1.0000
  S   S258      1.0  0.76578  0.28508  0.76162  1.0000
  Fe  Fe131     1.0  0.78431  0.31318  0.81434  1.0000
  S   S259      1.0  0.82706  0.32356  0.82749  1.0000
  Fe  Fe132     1.0  0.71593  0.34193  0.80657  1.0000
  S   S260      1.0  0.67306  0.37903  0.81057  1.0000
  S   S261      1.0  0.77696  0.26423  0.80554  1.0000
  S   S262      1.0  0.70348  0.29503  0.79701  1.0000
  Fe  Fe133     1.0  0.68018  0.28574  0.93303  1.0000
  S   S263      1.0  0.64275  0.32796  0.93052  1.0000
  Fe  Fe134     1.0  0.72494  0.31298  0.90513  1.0000
  S   S264      1.0  0.69164  0.35762  0.90053  1.0000
  S   S265      1.0  0.77053  0.30557  0.88884  1.0000
  Fe  Fe135     1.0  0.68799  0.36103  0.92560  1.0000
  S   S266      1.0  0.69243  0.40615  0.93855  1.0000
  Fe  Fe136     1.0  0.64989  0.32055  0.90560  1.0000
  S   S267      1.0  0.61199  0.32499  0.88830  1.0000
  S   S268      1.0  0.72473  0.31919  0.92972  1.0000
  S   S269      1.0  0.68384  0.27570  0.90856  1.0000
  Fe  Fe137     1.0  0.94711  0.19863  0.86726  1.0000
  S   S270      1.0  0.92644  0.16118  0.88625  1.0000
  S   S271      1.0  0.92534  0.20279  0.84474  1.0000
  Fe  Fe138     1.0  0.99773  0.22579  0.88623  1.0000
  S   S272      1.0  0.98038  0.19096  0.90681  1.0000
  Fe  Fe139     1.0  0.98018  0.15147  0.89052  1.0000
  H   H773      1.0  0.69205  0.27797  0.85731  1.0000
  Fe  Fe140     1.0  0.92845  0.20342  0.90055  1.0000
  S   S273      1.0  0.88516  0.21661  0.91715  1.0000
  S   S274      1.0  0.00105  0.18589  0.87022  1.0000
  S   S275      1.0  0.94582  0.24109  0.88138  1.0000
  N   N66       1.0  0.01248  0.27239  0.84347  1.0000
  C   C780      1.0  0.53643  0.09066  0.80213  1.0000
  C   C781      1.0  0.93087  0.47210  0.94915  1.0000
  C   C782      1.0  0.67061  0.49172  0.79535  1.0000
  C   C783      1.0  0.79430  0.25291  0.75686  1.0000
  H   H774      1.0  0.92117  0.45834  0.94084  1.0000
  C   C784      1.0  0.95578  0.02807  0.87917  1.0000
  C   C785      1.0  0.80295  0.28272  0.89714  1.0000
  C   C786      1.0  0.83244  0.27601  0.88806  1.0000
  C   C787      1.0  0.85765  0.25569  0.89411  1.0000
  C   C788      1.0  0.85397  0.24259  0.90937  1.0000
  C   C789      1.0  0.82461  0.24970  0.91851  1.0000
  C   C790      1.0  0.79897  0.26942  0.91236  1.0000
  H   H775      1.0  0.83540  0.28566  0.87620  1.0000
  H   H776      1.0  0.87936  0.24952  0.88679  1.0000
  H   H777      1.0  0.82139  0.23946  0.93030  1.0000
  H   H778      1.0  0.77604  0.27383  0.91939  1.0000
  C   C791      1.0  0.72553  0.43468  0.93317  1.0000
  C   C792      1.0  0.74069  0.43927  0.91824  1.0000
  C   C793      1.0  0.76453  0.46445  0.91393  1.0000
  C   C794      1.0  0.77374  0.48507  0.92449  1.0000
  C   C795      1.0  0.75928  0.47987  0.93953  1.0000
  C   C796      1.0  0.73521  0.45483  0.94383  1.0000
  H   H779      1.0  0.73345  0.42398  0.90992  1.0000
  H   H780      1.0  0.77567  0.46823  0.90228  1.0000
  H   H781      1.0  0.84784  0.19571  0.77258  1.0000
  H   H782      1.0  0.72370  0.45142  0.95542  1.0000
  C   C797      1.0  0.96554  0.05959  0.88247  1.0000
  C   C798      1.0  0.99365  0.06227  0.89022  1.0000
  C   C799      1.0  0.99279  0.25478  0.83566  1.0000
  H   H783      1.0  0.95073  0.08163  0.87942  1.0000
  H   H784      1.0  0.88664  0.50328  0.95188  1.0000
  C   C800      1.0  0.81347  0.23638  0.76763  1.0000
  H   H785      1.0  0.81249  0.24454  0.77879  1.0000
  C   C801      1.0  0.85467  0.29010  0.83195  1.0000
  C   C802      1.0  0.87214  0.29015  0.84473  1.0000
  C   C803      1.0  0.89376  0.26348  0.84877  1.0000
  C   C804      1.0  0.89865  0.23687  0.83989  1.0000
  C   C805      1.0  0.88173  0.23717  0.82691  1.0000
  C   C806      1.0  0.85950  0.26352  0.82304  1.0000
  H   H786      1.0  0.86872  0.31073  0.85161  1.0000
  H   H787      1.0  0.90662  0.26376  0.85872  1.0000
  H   H788      1.0  0.88554  0.21681  0.81989  1.0000
  H   H789      1.0  0.84672  0.26358  0.81297  1.0000
  C   C807      1.0  0.67264  0.42210  0.80398  1.0000
  C   C808      1.0  0.70130  0.43832  0.79678  1.0000
  C   C809      1.0  0.70034  0.47305  0.79263  1.0000
  H   H790      1.0  0.90289  0.05851  0.92618  1.0000
  C   C810      1.0  0.64175  0.47534  0.80221  1.0000
  C   C811      1.0  0.64289  0.44073  0.80662  1.0000
  H   H791      1.0  0.72425  0.42423  0.79450  1.0000
  H   H792      1.0  0.76619  0.49551  0.94779  1.0000
  C   C812      1.0  0.97330  0.25518  0.72375  1.0000
  H   H793      1.0  0.62062  0.42839  0.81222  1.0000
  C   C813      1.0  0.61705  0.17554  0.81381  1.0000
  C   C814      1.0  0.63961  0.19571  0.80403  1.0000
  C   C815      1.0  0.66600  0.21076  0.80975  1.0000
  C   C816      1.0  0.67041  0.20488  0.82516  1.0000
  C   C817      1.0  0.64868  0.18355  0.83481  1.0000
  C   C818      1.0  0.62162  0.16943  0.82921  1.0000
  H   H794      1.0  0.63604  0.20054  0.79213  1.0000
  H   H795      1.0  0.68274  0.22699  0.80224  1.0000
  H   H796      1.0  0.65211  0.17880  0.84673  1.0000
  H   H797      1.0  0.60433  0.15374  0.83679  1.0000
  C   C819      1.0  0.55258  0.23543  0.87824  1.0000
  C   C820      1.0  0.55089  0.26614  0.86938  1.0000
  C   C821      1.0  0.56899  0.29348  0.87267  1.0000
  C   C822      1.0  0.58918  0.29023  0.88470  1.0000
  C   C823      1.0  0.59121  0.25939  0.89342  1.0000
  C   C824      1.0  0.57271  0.23225  0.89029  1.0000
  Fe  Fe141     1.0  0.85901  0.13752  0.72440  1.0000
  H   H798      1.0  0.56728  0.31727  0.86587  1.0000
  H   H799      1.0  0.60655  0.25660  0.90275  1.0000
  H   H800      1.0  0.57395  0.20869  0.89729  1.0000
  H   H801      1.0  0.56373  0.09134  0.88643  1.0000
  H   H802      1.0  0.96126  0.26328  0.91753  1.0000
  C   C825      1.0  0.77152  0.15203  0.76834  1.0000
  H   H803      1.0  0.94709  0.37645  0.93422  1.0000
  H   H804      1.0  0.53519  0.26903  0.86018  1.0000
  H   H805      1.0  0.52751  0.11373  0.79565  1.0000
  C   C826      1.0  0.72832  0.20560  0.77313  1.0000
  S   S276      1.0  0.68173  0.24590  0.95285  1.0000
  N   N67       1.0  0.75549  0.16738  0.75662  1.0000
  C   C827      1.0  0.95517  0.23909  0.73659  1.0000
  H   H806      1.0  0.96451  0.23837  0.74759  1.0000
  S   S277      1.0  0.52405  0.21883  0.82981  1.0000
  C   C828      1.0  0.76067  0.15478  0.74170  1.0000
  H   H807      1.0  0.98623  0.31897  0.84098  1.0000
  S   S278      1.0  0.52892  0.20080  0.87521  1.0000
  N   N68       1.0  0.79200  0.22688  0.86648  1.0000
  C   C829      1.0  0.77977  0.21936  0.88135  1.0000
  C   C830      1.0  0.82138  0.21268  0.86084  1.0000
  C   C831      1.0  0.79802  0.19845  0.89118  1.0000
  C   C832      1.0  0.84040  0.19187  0.87035  1.0000
  C   C833      1.0  0.82872  0.18497  0.88566  1.0000
  C   C834      1.0  0.77291  0.24928  0.85638  1.0000
  H   H808      1.0  0.75647  0.23062  0.88584  1.0000
  H   H809      1.0  0.83047  0.21779  0.84896  1.0000
  H   H810      1.0  0.78905  0.19385  0.90314  1.0000
  H   H811      1.0  0.86427  0.18161  0.86589  1.0000
  H   H812      1.0  0.84374  0.16983  0.89330  1.0000
  H   H813      1.0  0.78976  0.26278  0.84711  1.0000
  H   H814      1.0  0.75483  0.23470  0.85126  1.0000
  H   H815      1.0  0.75911  0.26867  0.86265  1.0000
  N   N69       1.0  0.77120  0.37599  0.85304  1.0000
  C   C835      1.0  0.77090  0.38772  0.83806  1.0000
  C   C836      1.0  0.74218  0.37499  0.86262  1.0000
  C   C837      1.0  0.74110  0.39964  0.83244  1.0000
  C   C838      1.0  0.71190  0.38660  0.85738  1.0000
  C   C839      1.0  0.71148  0.39914  0.84219  1.0000
  C   C840      1.0  0.80231  0.36271  0.85876  1.0000
  H   H816      1.0  0.79370  0.38762  0.83033  1.0000
  N   N70       1.0  0.64420  0.28343  0.84945  1.0000
  H   H817      1.0  0.74085  0.40874  0.82055  1.0000
  H   H818      1.0  0.68893  0.38583  0.86504  1.0000
  H   H819      1.0  0.68820  0.40820  0.83790  1.0000
  H   H820      1.0  0.82477  0.37282  0.85151  1.0000
  H   H821      1.0  0.80395  0.36899  0.87050  1.0000
  H   H822      1.0  0.80307  0.33509  0.85892  1.0000
  N   N71       1.0  0.97988  0.33445  0.93167  1.0000
  C   C841      1.0  0.95013  0.35148  0.93064  1.0000
  C   C842      1.0  0.98407  0.30324  0.92696  1.0000
  C   C843      1.0  0.91136  0.49768  0.95533  1.0000
  H   H823      1.0  0.75685  0.17486  0.73243  1.0000
  H   H824      1.0  0.74091  0.19952  0.79618  1.0000
  C   C844      1.0  0.00745  0.35034  0.93754  1.0000
  H   H825      1.0  0.93915  0.07583  0.91441  1.0000
  H   H826      1.0  0.69537  0.51127  0.91626  1.0000
  H   H827      1.0  0.74311  0.13424  0.74118  1.0000
  H   H828      1.0  0.78679  0.14530  0.73940  1.0000
  C   C845      1.0  0.99891  0.30284  0.84963  1.0000
  H   H829      1.0  0.97896  0.04567  0.92916  1.0000
  H   H830      1.0  0.78910  0.13156  0.76648  1.0000
  S   S279      1.0  0.85761  0.16069  0.74639  1.0000
  H   H831      1.0  0.78205  0.25546  0.73381  1.0000
  C   C846      1.0  0.95787  0.28805  0.92125  1.0000
  C   C847      1.0  0.61301  0.24260  0.95860  1.0000
  Fe  Fe142     1.0  0.53673  0.16787  0.82284  1.0000
  H   H832      1.0  0.90665  0.29318  0.91613  1.0000
  C   C848      1.0  0.52632  0.03158  0.79997  1.0000
  C   C849      1.0  0.79662  0.24255  0.74224  1.0000
  C   C850      1.0  0.53712  0.09300  0.88524  1.0000
  H   H833      1.0  0.81795  0.20659  0.72745  1.0000
  H   H834      1.0  0.61879  0.48947  0.80443  1.0000
  H   H835      1.0  0.58940  0.22878  0.84029  1.0000
  C   C851      1.0  0.60440  0.27441  0.82660  1.0000
  H   H836      1.0  0.89964  0.35038  0.92439  1.0000
  C   C852      1.0  0.83370  0.20884  0.76404  1.0000
  H   H837      1.0  0.62456  0.32114  0.81569  1.0000
  S   S280      1.0  0.98719  0.43358  0.94487  1.0000
  C   C853      1.0  0.92362  0.51556  0.96609  1.0000
  H   H838      1.0  0.74245  0.36516  0.87441  1.0000
  H   H839      1.0  0.61181  0.26105  0.94891  1.0000
  H   H840      1.0  0.65928  0.32883  0.83621  1.0000
  H   H841      1.0  0.55315  0.02702  0.79850  1.0000
  C   C854      1.0  0.64399  0.30682  0.83714  1.0000
  C   C855      1.0  0.62422  0.30264  0.82551  1.0000
  H   H842      1.0  0.65745  0.27331  0.87209  1.0000
  H   H843      1.0  0.66519  0.48948  0.94079  1.0000
  C   C856      1.0  0.83490  0.19759  0.74967  1.0000
  H   H844      1.0  0.66764  0.31394  0.86317  1.0000
  C   C857      1.0  0.64405  0.23019  0.96259  1.0000
  C   C858      1.0  0.00462  0.22504  0.83008  1.0000
  H   H845      1.0  0.99645  0.49726  0.91993  1.0000
  H   H846      1.0  0.53159  0.47021  0.79922  1.0000
  H   H847      1.0  0.72147  0.20618  0.74959  1.0000
  S   S281      1.0  0.00375  0.10033  0.89687  1.0000
  H   H848      1.0  0.00773  0.28988  0.92763  1.0000
  C   C859      1.0  0.66660  0.28734  0.86105  1.0000
  H   H849      1.0  0.72275  0.48554  0.78730  1.0000
  H   H850      1.0  0.89079  0.21163  0.71983  1.0000
  H   H851      1.0  0.58912  0.27059  0.81764  1.0000
  H   H852      1.0  0.91089  0.21087  0.74505  1.0000
  C   C860      1.0  0.60457  0.25088  0.83927  1.0000
  C   C861      1.0  0.92331  0.33694  0.92507  1.0000
  C   C862      1.0  0.74470  0.19023  0.78512  1.0000
  C   C863      1.0  0.62511  0.25553  0.85054  1.0000
  C   C864      1.0  0.81693  0.21492  0.73862  1.0000
  H   H853      1.0  0.62554  0.23672  0.86017  1.0000
  H   H854      1.0  0.96750  0.26335  0.83393  1.0000
  H   H855      1.0  0.71216  0.22726  0.77471  1.0000
  H   H856      1.0  0.98066  0.29608  0.85970  1.0000
  C   C865      1.0  0.01275  0.03335  0.89397  1.0000
  C   C866      1.0  0.97532  0.48250  0.96426  1.0000
  H   H857      1.0  0.77975  0.15150  0.79192  1.0000
  C   C867      1.0  0.96295  0.46464  0.95349  1.0000
  C   C868      1.0  0.67944  0.51225  0.93996  1.0000
  C   C869      1.0  0.92724  0.30495  0.92040  1.0000
  H   H858      1.0  0.90895  0.05435  0.90602  1.0000
  S   S282      1.0  0.52733  0.14064  0.84607  1.0000
  H   H859      1.0  0.99586  0.05848  0.72525  1.0000
  H   H860      1.0  0.00488  0.18747  0.72048  1.0000
  H   H861      1.0  0.56218  0.08532  0.79695  1.0000
  H   H862      1.0  0.99852  0.36077  0.94833  1.0000
  C   C870      1.0  0.92172  0.05440  0.91648  1.0000
  H   H863      1.0  0.98854  0.21083  0.82418  1.0000
  H   H864      1.0  0.70543  0.34781  0.96015  1.0000
  C   C871      1.0  0.98258  0.04507  0.71749  1.0000
  C   C872      1.0  0.92521  0.22355  0.73516  1.0000
  H   H865      1.0  0.53802  0.09584  0.81402  1.0000
  H   H866      1.0  0.53992  0.47836  0.77110  1.0000
  H   H867      1.0  0.93348  0.02612  0.87353  1.0000
  H   H868      1.0  0.55947  0.24151  0.96436  1.0000
  H   H869      1.0  0.95574  0.05289  0.71839  1.0000
  H   H870      1.0  0.53597  0.04664  0.87526  1.0000
  H   H871      1.0  0.53049  0.13990  0.89460  1.0000
  S   S283      1.0  0.82825  0.09361  0.72153  1.0000
  H   H872      1.0  0.71285  0.30392  0.96442  1.0000
  C   C873      1.0  0.51814  0.12045  0.88985  1.0000
  N   N72       1.0  0.93994  0.02283  0.91967  1.0000
  S   S284      1.0  0.90741  0.11214  0.71702  1.0000
  H   H873      1.0  0.99718  0.26650  0.72461  1.0000
  C   C874      1.0  0.96869  0.02249  0.92665  1.0000
  C   C875      1.0  0.91399  0.22401  0.72082  1.0000
  C   C876      1.0  0.52160  0.06804  0.87896  1.0000
  S   S285      1.0  0.88748  0.01707  0.71925  1.0000
  H   H874      1.0  0.98295  0.01784  0.72128  1.0000
  C   C877      1.0  0.51965  0.46297  0.77683  1.0000
  C   C878      1.0  0.74761  0.65001  0.98080  1.0000
  Fe  Fe143     1.0  0.78767  0.97420  0.09925  1.0000
  S   S286      1.0  0.83727  0.94996  0.09247  1.0000
  S   S287      1.0  0.76635  0.96312  0.12368  1.0000
  N   N73       1.0  0.70684  0.93975  0.17287  1.0000
  Fe  Fe144     1.0  0.81232  0.93786  0.07243  1.0000
  S   S288      1.0  0.81640  0.88849  0.06260  1.0000
  S   S289      1.0  0.76191  0.95852  0.08020  1.0000
  Fe  Fe145     1.0  0.62685  0.73310  0.04316  1.0000
  S   S290      1.0  0.66902  0.76851  0.03517  1.0000
  S   S291      1.0  0.57819  0.73846  0.03200  1.0000
  Fe  Fe146     1.0  0.66766  0.69334  0.06668  1.0000
  S   S292      1.0  0.71222  0.72589  0.06040  1.0000
  S   S293      1.0  0.66735  0.65443  0.08709  1.0000
  Fe  Fe147     1.0  0.67505  0.76817  0.05989  1.0000
  S   S294      1.0  0.67912  0.81307  0.07242  1.0000
  Fe  Fe148     1.0  0.70215  0.72249  0.03627  1.0000
  S   S295      1.0  0.74802  0.71551  0.01969  1.0000
  S   S296      1.0  0.63059  0.73610  0.06786  1.0000
  S   S297      1.0  0.65983  0.68658  0.04255  1.0000
  Fe  Fe149     1.0  0.80441  0.53905  0.12101  1.0000
  S   S298      1.0  0.85093  0.55443  0.13022  1.0000
  S   S299      1.0  0.79730  0.56476  0.09764  1.0000
  Fe  Fe150     1.0  0.81810  0.55322  0.15221  1.0000
  S   S300      1.0  0.81621  0.59295  0.16802  1.0000
  N   N74       1.0  0.73199  0.92538  0.04343  1.0000
  S   S301      1.0  0.77080  0.54213  0.14264  1.0000
  Fe  Fe151     1.0  0.63726  0.74196  0.17213  1.0000
  C   C879      1.0  0.99377  0.94713  0.12117  1.0000
  Fe  Fe152     1.0  0.66571  0.80744  0.15562  1.0000
  S   S302      1.0  0.71797  0.79581  0.16138  1.0000
  S   S303      1.0  0.65527  0.85327  0.13988  1.0000
  Fe  Fe153     1.0  0.70788  0.74494  0.15536  1.0000
  S   S304      1.0  0.74274  0.71983  0.13861  1.0000
  S   S305      1.0  0.65718  0.75734  0.14799  1.0000
  S   S306      1.0  0.64061  0.79365  0.17927  1.0000
  C   C880      1.0  0.55753  0.69962  0.17618  1.0000
  H   H875      1.0  0.74351  0.88256  0.03160  1.0000
  C   C881      1.0  0.95867  0.54170  0.10136  1.0000
  C   C882      1.0  0.91776  0.58625  0.09849  1.0000
  C   C883      1.0  0.82228  0.60451  0.00075  1.0000
  S   S307      1.0  0.80211  0.90824  0.21373  1.0000
  H   H876      1.0  0.55645  0.74784  0.16323  1.0000
  C   C884      1.0  0.76519  0.68604  0.14682  1.0000
  C   C885      1.0  0.76689  0.68138  0.16249  1.0000
  C   C886      1.0  0.78362  0.65324  0.16894  1.0000
  C   C887      1.0  0.79802  0.62947  0.15976  1.0000
  C   C888      1.0  0.79647  0.63428  0.14407  1.0000
  C   C889      1.0  0.78048  0.66280  0.13758  1.0000
  H   H877      1.0  0.75542  0.69943  0.16963  1.0000
  H   H878      1.0  0.78475  0.64946  0.18108  1.0000
  H   H879      1.0  0.80755  0.61601  0.13693  1.0000
  H   H880      1.0  0.77923  0.66637  0.12545  1.0000
  H   H881      1.0  0.71889  0.97442  0.15306  1.0000
  C   C890      1.0  0.68390  0.66417  0.12984  1.0000
  H   H882      1.0  0.95425  0.99715  0.05012  1.0000
  C   C891      1.0  0.69443  0.90244  0.19560  1.0000
  C   C892      1.0  0.74661  0.69164  0.00432  1.0000
  C   C893      1.0  0.71814  0.65436  0.99043  1.0000
  C   C894      1.0  0.71762  0.67506  0.00219  1.0000
  H   H883      1.0  0.69568  0.64149  0.98888  1.0000
  H   H884      1.0  0.69487  0.67809  0.00962  1.0000
  C   C895      1.0  0.70387  0.63010  0.08997  1.0000
  C   C896      1.0  0.73266  0.63347  0.07963  1.0000
  C   C897      1.0  0.76120  0.61340  0.08213  1.0000
  C   C898      1.0  0.76140  0.59032  0.09512  1.0000
  C   C899      1.0  0.73277  0.58733  0.10557  1.0000
  C   C900      1.0  0.70402  0.60689  0.10291  1.0000
  H   H885      1.0  0.73281  0.65131  0.06966  1.0000
  H   H886      1.0  0.78325  0.61584  0.07401  1.0000
  H   H887      1.0  0.73244  0.56921  0.11545  1.0000
  H   H888      1.0  0.68166  0.60366  0.11080  1.0000
  C   C901      1.0  0.78011  0.86426  0.06678  1.0000
  C   C902      1.0  0.75521  0.87192  0.07814  1.0000
  C   C903      1.0  0.72462  0.85531  0.08011  1.0000
  C   C904      1.0  0.71917  0.83012  0.07106  1.0000
  C   C905      1.0  0.74478  0.82087  0.06033  1.0000
  C   C906      1.0  0.77519  0.83808  0.05814  1.0000
  H   H889      1.0  0.75945  0.89060  0.08547  1.0000
  H   H890      1.0  0.70499  0.86236  0.08852  1.0000
  H   H891      1.0  0.74072  0.80138  0.05330  1.0000
  H   H892      1.0  0.79457  0.83170  0.04947  1.0000
  C   C907      1.0  0.73824  0.92976  0.12667  1.0000
  C   C908      1.0  0.71153  0.92903  0.11785  1.0000
  C   C909      1.0  0.68665  0.90482  0.12173  1.0000
  C   C910      1.0  0.68864  0.88092  0.13426  1.0000
  C   C911      1.0  0.71614  0.88085  0.14265  1.0000
  C   C912      1.0  0.74067  0.90538  0.13896  1.0000
  H   H893      1.0  0.70925  0.94803  0.10846  1.0000
  H   H894      1.0  0.66543  0.90510  0.11519  1.0000
  H   H895      1.0  0.71756  0.86331  0.15257  1.0000
  H   H896      1.0  0.76126  0.90584  0.14582  1.0000
  C   C913      1.0  0.77587  0.68779  0.99450  1.0000
  C   C914      1.0  0.94506  0.97591  0.08245  1.0000
  C   C915      1.0  0.97801  0.96375  0.08377  1.0000
  H   H897      1.0  0.92534  0.95893  0.08122  1.0000
  H   H898      1.0  0.98333  0.93728  0.08370  1.0000
  C   C916      1.0  0.54600  0.78677  0.04849  1.0000
  C   C917      1.0  0.54810  0.77056  0.03531  1.0000
  H   H899      1.0  0.83161  0.81296  0.19204  1.0000
  H   H900      1.0  0.56473  0.78165  0.05634  1.0000
  H   H901      1.0  0.85285  0.84093  0.21242  1.0000
  H   H902      1.0  0.64870  0.88195  0.05869  1.0000
  H   H903      1.0  0.63260  0.77346  0.10765  1.0000
  N   N75       1.0  0.77503  0.62344  0.02358  1.0000
  C   C918      1.0  0.80665  0.63610  0.02202  1.0000
  C   C919      1.0  0.83071  0.62687  0.01058  1.0000
  C   C920      1.0  0.75039  0.63225  0.03596  1.0000
  H   H904      1.0  0.81318  0.65396  0.02945  1.0000
  H   H905      1.0  0.85558  0.63734  0.00921  1.0000
  H   H906      1.0  0.75710  0.65566  0.04040  1.0000
  H   H907      1.0  0.72533  0.63697  0.03187  1.0000
  H   H908      1.0  0.74870  0.61184  0.04543  1.0000
  C   C921      1.0  0.71332  0.92823  0.18730  1.0000
  H   H909      1.0  0.79916  0.66409  0.97536  1.0000
  C   C922      1.0  0.72797  0.96582  0.16422  1.0000
  C   C923      1.0  0.66946  0.88780  0.18892  1.0000
  C   C924      1.0  0.68159  0.92631  0.16643  1.0000
  C   C925      1.0  0.73423  0.82191  0.20850  1.0000
  H   H910      1.0  0.67122  0.81465  0.11443  1.0000
  H   H911      1.0  0.96809  0.59303  0.10390  1.0000
  C   C926      1.0  0.65928  0.76812  0.10684  1.0000
  H   H912      1.0  0.66082  0.93785  0.06624  1.0000
  C   C927      1.0  0.54224  0.72590  0.16774  1.0000
  C   C928      1.0  0.67201  0.73830  0.10175  1.0000
  Fe  Fe154     1.0  0.77940  0.00655  0.06718  1.0000
  H   H913      1.0  0.65523  0.72003  0.09875  1.0000
  C   C929      1.0  0.77560  0.87524  0.21193  1.0000
  C   C930      1.0  0.72509  0.89519  0.03889  1.0000
  C   C931      1.0  0.70886  0.94113  0.05277  1.0000
  C   C932      1.0  0.69469  0.87958  0.04401  1.0000
  C   C933      1.0  0.67853  0.92584  0.05840  1.0000
  C   C934      1.0  0.67157  0.89475  0.05404  1.0000
  H   H914      1.0  0.71399  0.96542  0.05611  1.0000
  H   H915      1.0  0.68977  0.85503  0.04086  1.0000
  C   C935      1.0  0.76654  0.60158  0.01396  1.0000
  H   H916      1.0  0.93144  0.53414  0.14112  1.0000
  H   H917      1.0  0.74131  0.59208  0.01500  1.0000
  C   C936      1.0  0.78995  0.59189  0.00237  1.0000
  S   S308      1.0  0.82891  0.98492  0.05809  1.0000
  C   C937      1.0  0.74911  0.84125  0.19568  1.0000
  H   H918      1.0  0.77050  0.95965  0.04533  1.0000
  H   H919      1.0  0.64894  0.67741  0.15571  1.0000
  C   C938      1.0  0.69556  0.61805  0.17412  1.0000
  H   H920      1.0  0.84063  0.59731  0.99175  1.0000
  C   C939      1.0  0.76377  0.94151  0.03769  1.0000
  H   H921      1.0  0.78284  0.57536  0.99446  1.0000
  H   H922      1.0  0.75936  0.81385  0.10494  1.0000
  H   H923      1.0  0.74768  0.79879  0.12468  1.0000
  H   H924      1.0  0.75450  0.75072  0.10365  1.0000
  H   H925      1.0  0.73447  0.58837  0.16322  1.0000
  N   N76       1.0  0.80402  0.77671  0.20732  1.0000
  H   H926      1.0  0.67657  0.93513  0.15493  1.0000
  C   C940      1.0  0.71068  0.62250  0.14706  1.0000
  C   C941      1.0  0.71523  0.60749  0.16161  1.0000
  H   H927      1.0  0.65565  0.65142  0.18157  1.0000
  H   H928      1.0  0.99242  0.97382  0.05151  1.0000
  C   C942      1.0  0.72778  0.75596  0.10435  1.0000
  C   C943      1.0  0.82498  0.80327  0.20377  1.0000
  H   H929      1.0  0.70746  0.66232  0.12216  1.0000
  C   C944      1.0  0.73802  0.80902  0.11387  1.0000
  C   C945      1.0  0.66767  0.65777  0.15726  1.0000
  H   H930      1.0  0.79832  0.70071  0.99604  1.0000
  H   H931      1.0  0.72544  0.83346  0.11555  1.0000
  C   C946      1.0  0.66284  0.89987  0.17426  1.0000
  H   H932      1.0  0.98279  0.99353  0.03322  1.0000
  S   S309      1.0  0.89993  0.54871  0.97331  1.0000
  N   N77       1.0  0.68775  0.64794  0.14509  1.0000
  H   H933      1.0  0.78462  0.92278  0.03710  1.0000
  C   C947      1.0  0.77642  0.66700  0.98280  1.0000
  C   C948      1.0  0.98113  0.99632  0.04552  1.0000
  H   H934      1.0  0.91059  0.61239  0.09860  1.0000
  N   N78       1.0  0.71511  0.78516  0.10933  1.0000
  C   C949      1.0  0.67131  0.64306  0.17195  1.0000
  C   C950      1.0  0.89455  0.56300  0.09568  1.0000
  H   H935      1.0  0.86946  0.57158  0.09354  1.0000
  H   H936      1.0  0.55045  0.65083  0.18847  1.0000
  C   C951      1.0  0.83729  0.81905  0.21523  1.0000
  H   H937      1.0  0.78373  0.77924  0.18611  1.0000
  H   H938      1.0  0.66335  0.65251  0.12496  1.0000
  C   C952      1.0  0.00418  0.98562  0.08480  1.0000
  S   S310      1.0  0.59992  0.70065  0.17983  1.0000
  H   H939      1.0  0.72859  0.98782  0.17067  1.0000
  C   C953      1.0  0.99094  0.00791  0.12218  1.0000
  C   C954      1.0  0.79188  0.76034  0.19507  1.0000
  C   C955      1.0  0.76981  0.86785  0.19741  1.0000
  C   C956      1.0  0.94996  0.57542  0.10143  1.0000
  C   C957      1.0  0.93804  0.01016  0.08208  1.0000
  H   H940      1.0  0.67832  0.69124  0.13020  1.0000
  C   C958      1.0  0.53876  0.67128  0.18195  1.0000
  Fe  Fe155     1.0  0.69275  0.77837  0.18444  1.0000
  H   H941      1.0  0.81191  0.74415  0.19001  1.0000
  H   H942      1.0  0.69924  0.60695  0.18547  1.0000
  H   H943      1.0  0.78158  0.88259  0.18748  1.0000
  H   H944      1.0  0.73363  0.93851  0.19238  1.0000
  S   S311      1.0  0.68799  0.72579  0.17899  1.0000
  H   H945      1.0  0.74495  0.83558  0.18447  1.0000
  S   S312      1.0  0.71026  0.78686  0.20692  1.0000
  S   S313      1.0  0.74792  0.62223  0.96679  1.0000
  H   H946      1.0  0.71655  0.70898  0.09652  1.0000
  H   H947      1.0  0.64383  0.88837  0.16881  1.0000
  H   H948      1.0  0.98350  0.53290  0.10385  1.0000
  H   H949      1.0  0.76188  0.95500  0.02628  1.0000
  H   H950      1.0  0.96484  0.00799  0.12003  1.0000
  C   C959      1.0  0.70646  0.73212  0.10047  1.0000
  Fe  Fe156     1.0  0.84956  0.99921  0.07894  1.0000
  C   C960      1.0  0.98554  0.52981  0.13966  1.0000
  C   C961      1.0  0.68133  0.79143  0.11061  1.0000
  H   H951      1.0  0.98853  0.55387  0.14365  1.0000
  H   H952      1.0  0.76960  0.74482  0.19923  1.0000
  H   H953      1.0  0.72639  0.61441  0.13740  1.0000
  H   H954      1.0  0.75393  0.95599  0.16180  1.0000
  H   H955      1.0  0.53734  0.90998  0.02468  1.0000
  H   H956      1.0  0.65557  0.86686  0.19504  1.0000
  H   H957      1.0  0.96934  0.95108  0.11638  1.0000
  C   C962      1.0  0.95316  0.51866  0.13828  1.0000
  H   H958      1.0  0.01009  0.93259  0.11327  1.0000
  H   H959      1.0  0.98958  0.93225  0.13242  1.0000
  H   H960      1.0  0.54277  0.96080  0.03605  1.0000
  H   H961      1.0  0.69992  0.89311  0.20698  1.0000
  N   N79       1.0  0.90301  0.52981  0.09612  1.0000
  N   N80       1.0  0.00946  0.97885  0.12270  1.0000
  C   C963      1.0  0.52356  0.77751  0.02523  1.0000
  C   C964      1.0  0.93473  0.51911  0.09865  1.0000
  H   H962      1.0  0.96504  0.52143  0.97903  1.0000
  H   H963      1.0  0.52506  0.76516  0.01498  1.0000
  H   H964      1.0  0.52184  0.88493  0.04205  1.0000
  H   H965      1.0  0.85239  0.51574  0.09486  1.0000
  C   C965      1.0  0.51870  0.80838  0.05189  1.0000
  H   H966      1.0  0.53098  0.85546  0.43588  1.0000
  S   S314      1.0  0.65315  0.89565  0.42055  1.0000
  C   C966      1.0  0.99206  0.91084  0.26395  1.0000
  H   H967      1.0  0.96861  0.85049  0.25384  1.0000
  S   S315      1.0  0.58108  0.93253  0.42500  1.0000
  H   H968      1.0  0.76193  0.92109  0.44433  1.0000
  Fe  Fe157     1.0  0.59928  0.87975  0.42318  1.0000
  S   S316      1.0  0.56974  0.85493  0.40698  1.0000
  Fe  Fe158     1.0  0.63457  0.94712  0.42499  1.0000
  C   C967      1.0  0.75844  0.93618  0.43375  1.0000
  C   C968      1.0  0.53473  0.80183  0.40024  1.0000
  H   H969      1.0  0.83729  0.81956  0.23938  1.0000
  C   C969      1.0  0.98364  0.00798  0.27733  1.0000
  C   C970      1.0  0.79127  0.01471  0.41134  1.0000
  C   C971      1.0  0.52613  0.76862  0.35223  1.0000
  Fe  Fe159     1.0  0.82306  0.91041  0.23622  1.0000
  S   S317      1.0  0.80234  0.88775  0.25940  1.0000
  H   H970      1.0  0.01551  0.54559  0.31590  1.0000
  Fe  Fe160     1.0  0.88545  0.93567  0.24816  1.0000
  S   S318      1.0  0.86999  0.91441  0.27204  1.0000
  S   S319      1.0  0.93408  0.96207  0.24091  1.0000
  Fe  Fe161     1.0  0.85525  0.86902  0.26194  1.0000
  S   S320      1.0  0.87330  0.81507  0.26614  1.0000
  Fe  Fe162     1.0  0.81908  0.93572  0.26723  1.0000
  S   S321      1.0  0.79289  0.96823  0.28434  1.0000
  S   S322      1.0  0.87457  0.88910  0.23822  1.0000
  S   S323      1.0  0.83594  0.95942  0.24385  1.0000
  Fe  Fe163     1.0  0.97371  0.69779  0.32407  1.0000
  S   S324      1.0  0.98526  0.65894  0.30788  1.0000
  S   S325      1.0  0.93524  0.74041  0.32349  1.0000
  C   C972      1.0  0.99755  0.52587  0.31907  1.0000
  Fe  Fe164     1.0  0.98583  0.62134  0.32858  1.0000
  S   S326      1.0  0.95562  0.57311  0.33257  1.0000
  H   H971      1.0  0.93327  0.86576  0.28634  1.0000
  S   S327      1.0  0.97024  0.65985  0.34468  1.0000
  C   C973      1.0  0.99865  0.01042  0.26236  1.0000
  H   H972      1.0  0.55068  0.98405  0.43958  1.0000
  H   H973      1.0  0.61344  0.81580  0.36097  1.0000
  C   C974      1.0  0.79517  0.76492  0.22216  1.0000
  C   C975      1.0  0.69672  0.01017  0.43229  1.0000
  C   C976      1.0  0.89363  0.79718  0.28183  1.0000
  C   C977      1.0  0.88797  0.80917  0.29603  1.0000
  C   C978      1.0  0.90183  0.79208  0.30860  1.0000
  C   C979      1.0  0.92205  0.76335  0.30702  1.0000
  C   C980      1.0  0.92883  0.75218  0.29268  1.0000
  C   C981      1.0  0.91427  0.76876  0.28020  1.0000
  H   H974      1.0  0.87176  0.83072  0.29748  1.0000
  H   H975      1.0  0.89627  0.80076  0.31968  1.0000
  H   H976      1.0  0.94441  0.73015  0.29131  1.0000
  H   H977      1.0  0.91878  0.75932  0.26924  1.0000
  C   C982      1.0  0.52459  0.98621  0.44375  1.0000
  C   C983      1.0  0.96628  0.53296  0.32668  1.0000
  H   H978      1.0  0.72145  0.90370  0.42785  1.0000
  C   C984      1.0  0.93601  0.98055  0.26965  1.0000
  C   C985      1.0  0.95159  0.98176  0.25480  1.0000
  C   C986      1.0  0.53532  0.73493  0.35404  1.0000
  H   H979      1.0  0.87118  0.71004  0.33756  1.0000
  H   H980      1.0  0.91201  0.96894  0.27259  1.0000
  H   H981      1.0  0.77194  0.99551  0.25504  1.0000
  H   H982      1.0  0.57850  0.82886  0.37370  1.0000
  C   C987      1.0  0.53004  0.76793  0.39855  1.0000
  C   C988      1.0  0.80720  0.77999  0.23390  1.0000
  H   H983      1.0  0.97039  0.51575  0.36498  1.0000
  C   C989      1.0  0.76039  0.85613  0.22471  1.0000
  C   C990      1.0  0.73980  0.82952  0.22299  1.0000
  N   N81       1.0  0.77146  0.98461  0.41605  1.0000
  C   C991      1.0  0.77120  0.00540  0.27831  1.0000
  H   H984      1.0  0.76451  0.86179  0.23593  1.0000
  H   H985      1.0  0.72832  0.81463  0.23294  1.0000
  C   C992      1.0  0.56190  0.81173  0.40736  1.0000
  H   H986      1.0  0.54309  0.51913  0.41059  1.0000
  H   H987      1.0  0.94029  0.99180  0.29246  1.0000
  C   C993      1.0  0.58216  0.74908  0.36682  1.0000
  C   C994      1.0  0.57958  0.75353  0.41117  1.0000
  C   C995      1.0  0.58394  0.78733  0.41310  1.0000
  S   S328      1.0  0.65401  0.99517  0.41163  1.0000
  H   H988      1.0  0.95054  0.88947  0.24599  1.0000
  H   H989      1.0  0.59737  0.73492  0.41524  1.0000
  H   H990      1.0  0.60511  0.79458  0.41849  1.0000
  C   C996      1.0  0.95236  0.87224  0.25651  1.0000
  N   N82       1.0  0.96598  0.88949  0.26810  1.0000
  C   C997      1.0  0.95363  0.88309  0.28302  1.0000
  C   C998      1.0  0.55284  0.74366  0.40379  1.0000
  C   C999      1.0  0.73059  0.94597  0.41099  1.0000
  C   C1000     1.0  0.95201  0.99364  0.28089  1.0000
  C   C1001     1.0  0.56351  0.72506  0.36138  1.0000
  H   H991      1.0  0.79426  0.97302  0.43656  1.0000
  C   C1002     1.0  0.74905  0.97508  0.40687  1.0000
  C   C1003     1.0  0.73549  0.92639  0.42449  1.0000
  H   H992      1.0  0.89706  0.67808  0.34577  1.0000
  H   H993      1.0  0.85317  0.67005  0.34475  1.0000
  C   C1004     1.0  0.77649  0.96548  0.42929  1.0000
  C   C1005     1.0  0.82835  0.80724  0.23038  1.0000
  C   C1006     1.0  0.59382  0.80706  0.37017  1.0000
  S   S329      1.0  0.59719  0.86656  0.44847  1.0000
  S   S330      1.0  0.63387  0.93864  0.45022  1.0000
  H   H994      1.0  0.71210  0.93905  0.40391  1.0000
  C   C1007     1.0  0.54552  0.79207  0.35773  1.0000
  S   S331      1.0  0.55091  0.70141  0.40011  1.0000
  H   H995      1.0  0.77809  0.74424  0.22499  1.0000
  Fe  Fe165     1.0  0.58162  0.92033  0.45002  1.0000
  N   N83       1.0  0.88435  0.66997  0.32397  1.0000
  C   C1008     1.0  0.87918  0.68958  0.31088  1.0000
  C   C1009     1.0  0.89675  0.63812  0.32341  1.0000
  C   C1010     1.0  0.88734  0.67772  0.29674  1.0000
  C   C1011     1.0  0.90486  0.62533  0.30948  1.0000
  C   C1012     1.0  0.90035  0.64540  0.29607  1.0000
  C   C1013     1.0  0.87582  0.68258  0.33874  1.0000
  H   H996      1.0  0.86951  0.71491  0.31128  1.0000
  H   H997      1.0  0.90087  0.62251  0.33378  1.0000
  H   H998      1.0  0.88408  0.69378  0.28640  1.0000
  H   H999      1.0  0.91521  0.60021  0.30910  1.0000
  H   H1000     1.0  0.90724  0.63598  0.28519  1.0000
  H   H1001     1.0  0.60608  0.79652  0.38029  1.0000
  C   C1014     1.0  0.96679  0.89912  0.29419  1.0000
  H   H1002     1.0  0.74463  0.99041  0.39648  1.0000
  Fe  Fe166     1.0  0.64985  0.88623  0.44611  1.0000
  H   H1003     1.0  0.81455  0.00842  0.40426  1.0000
  H   H1004     1.0  0.86657  0.00732  0.26228  1.0000
  H   H1005     1.0  0.60348  0.74093  0.37288  1.0000
  H   H1006     1.0  0.79975  0.77105  0.24567  1.0000
  S   S332      1.0  0.69713  0.86492  0.45552  1.0000
  N   N84       1.0  0.57301  0.78209  0.36501  1.0000
  H   H1007     1.0  0.95650  0.89453  0.30597  1.0000
  H   H1008     1.0  0.92671  0.86311  0.26040  1.0000
  H   H1009     1.0  0.68967  0.98665  0.43870  1.0000
  C   C1015     1.0  0.98266  0.99724  0.25113  1.0000
  H   H1010     1.0  0.57060  0.69888  0.36317  1.0000
  C   C1016     1.0  0.76447  0.01291  0.26324  1.0000
  C   C1017     1.0  0.99314  0.92127  0.29003  1.0000
  S   S333      1.0  0.53682  0.93533  0.46558  1.0000
  H   H1011     1.0  0.53835  0.81825  0.35622  1.0000
  H   H1012     1.0  0.51765  0.82054  0.39568  1.0000
  H   H1013     1.0  0.97440  0.53098  0.45591  1.0000
  H   H1014     1.0  0.00153  0.91627  0.25209  1.0000
  H   H1015     1.0  0.52049  0.71650  0.34982  1.0000
  H   H1016     1.0  0.00795  0.55766  0.35320  1.0000
  H   H1017     1.0  0.99473  0.99844  0.23963  1.0000
  H   H1018     1.0  0.00315  0.93457  0.29848  1.0000
  C   C1018     1.0  0.00614  0.92689  0.27485  1.0000
  C   C1019     1.0  0.78305  0.90227  0.53417  1.0000
  H   H1019     1.0  0.94408  0.60001  0.49451  1.0000
  Fe  Fe167     1.0  0.64456  0.55457  0.57750  1.0000
  H   H1020     1.0  0.69153  0.65911  0.69776  1.0000
  S   S334      1.0  0.64540  0.60014  0.56079  1.0000
  C   C1020     1.0  0.69555  0.84821  0.47472  1.0000
  N   N85       1.0  0.91630  0.56051  0.50753  1.0000
  S   S335      1.0  0.61672  0.55257  0.60082  1.0000
  Fe  Fe168     1.0  0.75642  0.74127  0.56350  1.0000
  S   S336      1.0  0.80585  0.76482  0.56419  1.0000
  S   S337      1.0  0.74164  0.70118  0.58215  1.0000
  Fe  Fe169     1.0  0.73805  0.78917  0.53665  1.0000
  S   S338      1.0  0.78661  0.81615  0.53520  1.0000
  S   S339      1.0  0.69286  0.80770  0.52489  1.0000
  Fe  Fe170     1.0  0.81020  0.76461  0.53893  1.0000
  S   S340      1.0  0.85669  0.74748  0.52482  1.0000
  Fe  Fe171     1.0  0.77710  0.81321  0.56064  1.0000
  S   S341      1.0  0.78158  0.85500  0.57533  1.0000
  S   S342      1.0  0.76197  0.73792  0.53841  1.0000
  S   S343      1.0  0.72753  0.78909  0.56191  1.0000
  Fe  Fe172     1.0  0.80875  0.74069  0.66873  1.0000
  S   S344      1.0  0.76298  0.74590  0.68534  1.0000
  S   S345      1.0  0.84892  0.78054  0.66436  1.0000
  Fe  Fe173     1.0  0.77770  0.68363  0.65465  1.0000
  S   S346      1.0  0.73018  0.68420  0.67019  1.0000
  S   S347      1.0  0.78431  0.65534  0.63391  1.0000
  Fe  Fe174     1.0  0.73308  0.73981  0.66606  1.0000
  S   S348      1.0  0.68669  0.76660  0.65894  1.0000
  Fe  Fe175     1.0  0.76366  0.68974  0.68829  1.0000
  S   S349      1.0  0.77807  0.73913  0.64916  1.0000
  S   S350      1.0  0.81200  0.68462  0.67304  1.0000
  Fe  Fe176     1.0  0.64804  0.95223  0.62433  1.0000
  S   S351      1.0  0.60404  0.94392  0.64212  1.0000
  S   S352      1.0  0.64846  0.92359  0.60379  1.0000
  H   H1021     1.0  0.77020  0.66134  0.52280  1.0000
  Fe  Fe177     1.0  0.64223  0.94602  0.65865  1.0000
  S   S353      1.0  0.65048  0.91005  0.67899  1.0000
  H   H1022     1.0  0.83123  0.63669  0.56867  1.0000
  S   S354      1.0  0.68609  0.94958  0.64093  1.0000
  C   C1021     1.0  0.76373  0.89102  0.51055  1.0000
  Fe  Fe178     1.0  0.60172  0.99974  0.64164  1.0000
  S   S355      1.0  0.94938  0.62169  0.54364  1.0000
  N   N86       1.0  0.72452  0.89370  0.53276  1.0000
  H   H1023     1.0  0.67514  0.57061  0.71121  1.0000
  C   C1022     1.0  0.69448  0.82174  0.50539  1.0000
  H   H1024     1.0  0.90506  0.61241  0.50478  1.0000
  C   C1023     1.0  0.67876  0.80704  0.66423  1.0000
  C   C1024     1.0  0.65723  0.82830  0.65615  1.0000
  C   C1025     1.0  0.64921  0.86023  0.66046  1.0000
  C   C1026     1.0  0.66171  0.87059  0.67321  1.0000
  C   C1027     1.0  0.68314  0.84927  0.68135  1.0000
  C   C1028     1.0  0.69219  0.81774  0.67670  1.0000
  H   H1025     1.0  0.64677  0.82015  0.64651  1.0000
  H   H1026     1.0  0.63272  0.87656  0.65412  1.0000
  H   H1027     1.0  0.69309  0.85737  0.69113  1.0000
  H   H1028     1.0  0.70920  0.80175  0.68287  1.0000
  C   C1029     1.0  0.66512  0.83470  0.49958  1.0000
  H   H1029     1.0  0.96557  0.01197  0.67344  1.0000
  H   H1030     1.0  0.79491  0.64207  0.58224  1.0000
  C   C1030     1.0  0.72450  0.82217  0.49585  1.0000
  H   H1031     1.0  0.74727  0.81232  0.50024  1.0000
  C   C1031     1.0  0.74430  0.87266  0.58381  1.0000
  C   C1032     1.0  0.74571  0.89277  0.59563  1.0000
  C   C1033     1.0  0.71647  0.90819  0.60207  1.0000
  C   C1034     1.0  0.68572  0.90400  0.59653  1.0000
  C   C1035     1.0  0.68438  0.88402  0.58469  1.0000
  C   C1036     1.0  0.71342  0.86814  0.57849  1.0000
  H   H1032     1.0  0.76951  0.89669  0.59977  1.0000
  H   H1033     1.0  0.71786  0.92377  0.61111  1.0000
  H   H1034     1.0  0.66073  0.88083  0.58028  1.0000
  H   H1035     1.0  0.71199  0.85327  0.56926  1.0000
  C   C1037     1.0  0.88228  0.71263  0.53038  1.0000
  C   C1038     1.0  0.87653  0.69423  0.54463  1.0000
  C   C1039     1.0  0.89727  0.66649  0.54854  1.0000
  C   C1040     1.0  0.92420  0.65712  0.53834  1.0000
  C   C1041     1.0  0.93000  0.67565  0.52413  1.0000
  C   C1042     1.0  0.90910  0.70315  0.52018  1.0000
  H   H1036     1.0  0.85653  0.70182  0.55270  1.0000
  H   H1037     1.0  0.89290  0.65259  0.55962  1.0000
  H   H1038     1.0  0.95068  0.66901  0.51620  1.0000
  H   H1039     1.0  0.91390  0.71737  0.50918  1.0000
  C   C1043     1.0  0.66756  0.63101  0.56764  1.0000
  C   C1044     1.0  0.67668  0.66011  0.55823  1.0000
  C   C1045     1.0  0.69846  0.68262  0.56290  1.0000
  C   C1046     1.0  0.71102  0.67597  0.57696  1.0000
  C   C1047     1.0  0.70031  0.64797  0.58672  1.0000
  C   C1048     1.0  0.67876  0.62535  0.58204  1.0000
  H   H1040     1.0  0.66777  0.66469  0.54715  1.0000
  H   H1041     1.0  0.70584  0.70474  0.55550  1.0000
  H   H1042     1.0  0.70924  0.64336  0.59776  1.0000
  H   H1043     1.0  0.67130  0.60328  0.58949  1.0000
  C   C1049     1.0  0.71165  0.57114  0.63020  1.0000
  C   C1050     1.0  0.71562  0.58170  0.64439  1.0000
  C   C1051     1.0  0.73711  0.60807  0.64561  1.0000
  C   C1052     1.0  0.75557  0.62349  0.63266  1.0000
  C   C1053     1.0  0.75177  0.61285  0.61846  1.0000
  C   C1054     1.0  0.72955  0.58707  0.61719  1.0000
  H   H1044     1.0  0.70207  0.56933  0.65452  1.0000
  H   H1045     1.0  0.74007  0.61578  0.65662  1.0000
  H   H1046     1.0  0.76587  0.62478  0.60840  1.0000
  H   H1047     1.0  0.72672  0.57915  0.60620  1.0000
  C   C1055     1.0  0.97196  0.96973  0.68993  1.0000
  C   C1056     1.0  0.96016  0.95366  0.70412  1.0000
  S   S356      1.0  0.68631  0.53627  0.62935  1.0000
  C   C1057     1.0  0.73101  0.88917  0.51773  1.0000
  S   S357      1.0  0.99629  0.78305  0.68515  1.0000
  H   H1048     1.0  0.73336  0.58475  0.71437  1.0000
  C   C1058     1.0  0.95479  0.78307  0.67988  1.0000
  C   C1059     1.0  0.93696  0.75303  0.68192  1.0000
  C   C1060     1.0  0.90424  0.75188  0.67758  1.0000
  C   C1061     1.0  0.88918  0.78075  0.67096  1.0000
  C   C1062     1.0  0.90702  0.81075  0.66893  1.0000
  C   C1063     1.0  0.93951  0.81200  0.67346  1.0000
  H   H1049     1.0  0.94857  0.73048  0.68683  1.0000
  H   H1050     1.0  0.89092  0.72859  0.67917  1.0000
  H   H1051     1.0  0.89569  0.83322  0.66379  1.0000
  H   H1052     1.0  0.95292  0.83526  0.67177  1.0000
  H   H1053     1.0  0.74820  0.83542  0.47316  1.0000
  H   H1054     1.0  0.60027  0.72502  0.69070  1.0000
  C   C1064     1.0  0.90938  0.54497  0.49535  1.0000
  H   H1055     1.0  0.94129  0.60132  0.51456  1.0000
  C   C1065     1.0  0.95652  0.99951  0.68443  1.0000
  H   H1056     1.0  0.68653  0.86260  0.54449  1.0000
  C   C1066     1.0  0.82192  0.98470  0.68190  1.0000
  H   H1057     1.0  0.52343  0.96637  0.64761  1.0000
  C   C1067     1.0  0.79479  0.97351  0.67527  1.0000
  C   C1068     1.0  0.73493  0.97271  0.67214  1.0000
  C   C1069     1.0  0.62615  0.73474  0.68916  1.0000
  H   H1058     1.0  0.57521  0.91617  0.61167  1.0000
  H   H1059     1.0  0.64183  0.83458  0.50693  1.0000
  C   C1070     1.0  0.91153  0.54438  0.52190  1.0000
  H   H1060     1.0  0.72209  0.58761  0.55595  1.0000
  C   C1071     1.0  0.91873  0.99817  0.70756  1.0000
  H   H1061     1.0  0.80322  0.90650  0.54091  1.0000
  H   H1062     1.0  0.80720  0.51958  0.59953  1.0000
  S   S358      1.0  0.63642  0.00130  0.65998  1.0000
  C   C1072     1.0  0.98425  0.52205  0.47928  1.0000
  H   H1063     1.0  0.71335  0.99060  0.67228  1.0000
  C   C1073     1.0  0.67436  0.74001  0.70316  1.0000
  H   H1064     1.0  0.74228  0.96938  0.66000  1.0000
  S   S359      1.0  0.69320  0.53283  0.58476  1.0000
  C   C1074     1.0  0.69039  0.88936  0.54028  1.0000
  H   H1065     1.0  0.74515  0.90325  0.55294  1.0000
  C   C1075     1.0  0.66562  0.84791  0.48430  1.0000
  H   H1066     1.0  0.59546  0.97365  0.60512  1.0000
  Fe  Fe179     1.0  0.99728  0.60747  0.52941  1.0000
  N   N87       1.0  0.84393  0.74274  0.62370  1.0000
  C   C1076     1.0  0.82468  0.72900  0.61428  1.0000
  C   C1077     1.0  0.84427  0.77663  0.62400  1.0000
  C   C1078     1.0  0.80420  0.74921  0.60521  1.0000
  C   C1079     1.0  0.82427  0.79761  0.61498  1.0000
  C   C1080     1.0  0.80409  0.78375  0.60556  1.0000
  C   C1081     1.0  0.86512  0.72098  0.63311  1.0000
  H   H1067     1.0  0.82476  0.70218  0.61389  1.0000
  H   H1068     1.0  0.85973  0.78760  0.63138  1.0000
  H   H1069     1.0  0.78866  0.73812  0.59792  1.0000
  H   H1070     1.0  0.82443  0.82446  0.61529  1.0000
  H   H1071     1.0  0.78861  0.79979  0.59846  1.0000
  H   H1072     1.0  0.85227  0.69715  0.63740  1.0000
  H   H1073     1.0  0.88915  0.71545  0.62640  1.0000
  H   H1074     1.0  0.87068  0.73284  0.64325  1.0000
  N   N88       1.0  0.76303  0.98535  0.67898  1.0000
  H   H1075     1.0  0.64282  0.85775  0.47993  1.0000
  C   C1082     1.0  0.56874  0.96926  0.60622  1.0000
  C   C1083     1.0  0.68590  0.65479  0.70991  1.0000
  Fe  Fe180     1.0  0.67845  0.00496  0.64116  1.0000
  H   H1076     1.0  0.71086  0.88359  0.51127  1.0000
  H   H1077     1.0  0.84713  0.97542  0.67891  1.0000
  H   H1078     1.0  0.63348  0.64589  0.70883  1.0000
  H   H1079     1.0  0.62552  0.76114  0.68400  1.0000
  H   H1080     1.0  0.91689  0.55681  0.53158  1.0000
  H   H1081     1.0  0.68572  0.90464  0.54998  1.0000
  H   H1082     1.0  0.97204  0.93072  0.70845  1.0000
  C   C1084     1.0  0.75004  0.90012  0.54098  1.0000
  H   H1083     1.0  0.76871  0.88654  0.49872  1.0000
  C   C1085     1.0  0.78990  0.89764  0.51885  1.0000
  C   C1086     1.0  0.92714  0.59528  0.50521  1.0000
  H   H1084     1.0  0.52758  0.53022  0.58350  1.0000
  S   S360      1.0  0.00952  0.62952  0.50538  1.0000
  N   N89       1.0  0.64122  0.73275  0.70350  1.0000
  C   C1087     1.0  0.75731  0.00786  0.68945  1.0000
  H   H1085     1.0  0.81551  0.89838  0.51352  1.0000
  H   H1086     1.0  0.79928  0.95543  0.66708  1.0000
  H   H1087     1.0  0.72708  0.61746  0.53002  1.0000
  N   N90       1.0  0.70074  0.73696  0.61587  1.0000
  C   C1088     1.0  0.68122  0.73689  0.60421  1.0000
  C   C1089     1.0  0.70903  0.76648  0.62069  1.0000
  C   C1090     1.0  0.66883  0.76683  0.59729  1.0000
  C   C1091     1.0  0.69674  0.79688  0.61417  1.0000
  C   C1092     1.0  0.67642  0.79695  0.60243  1.0000
  C   C1093     1.0  0.71437  0.70539  0.62264  1.0000
  H   H1088     1.0  0.67546  0.71358  0.60008  1.0000
  H   H1089     1.0  0.72484  0.76666  0.62979  1.0000
  H   H1090     1.0  0.65364  0.76661  0.58795  1.0000
  H   H1091     1.0  0.70280  0.82022  0.61824  1.0000
  H   H1092     1.0  0.66662  0.82030  0.59732  1.0000
  H   H1093     1.0  0.71803  0.70658  0.63475  1.0000
  H   H1094     1.0  0.69723  0.68436  0.62227  1.0000
  H   H1095     1.0  0.73878  0.69949  0.61630  1.0000
  H   H1096     1.0  0.80713  0.67502  0.54164  1.0000
  H   H1097     1.0  0.80946  0.67658  0.56934  1.0000
  N   N91       1.0  0.78475  0.64001  0.55930  1.0000
  C   C1094     1.0  0.76178  0.61526  0.56323  1.0000
  C   C1095     1.0  0.78854  0.65575  0.54485  1.0000
  C   C1096     1.0  0.74113  0.60642  0.55267  1.0000
  C   C1097     1.0  0.76791  0.64792  0.53408  1.0000
  C   C1098     1.0  0.74391  0.62324  0.53809  1.0000
  C   C1099     1.0  0.80629  0.64908  0.57043  1.0000
  H   H1098     1.0  0.75850  0.60292  0.57470  1.0000
  C   C1100     1.0  0.93338  0.96779  0.71288  1.0000
  C   C1101     1.0  0.72499  0.83537  0.48054  1.0000
  N   N92       1.0  0.54653  0.99530  0.60426  1.0000
  H   H1099     1.0  0.75496  0.51894  0.61731  1.0000
  S   S361      1.0  0.00796  0.95541  0.67945  1.0000
  H   H1100     1.0  0.64136  0.71985  0.68102  1.0000
  C   C1102     1.0  0.55737  0.93660  0.60988  1.0000
  S   S362      1.0  0.64375  0.00815  0.62274  1.0000
  H   H1101     1.0  0.67146  0.89690  0.53228  1.0000
  S   S363      1.0  0.75334  0.66335  0.71198  1.0000
  H   H1102     1.0  0.72642  0.94846  0.67831  1.0000
  S   S364      1.0  0.00349  0.55421  0.52393  1.0000
  S   S365      1.0  0.99992  0.56248  0.47914  1.0000
  S   S366      1.0  0.01048  0.86383  0.70425  1.0000
  C   C1103     1.0  0.93018  0.01388  0.69327  1.0000
  H   H1103     1.0  0.68914  0.74662  0.69241  1.0000
  C   C1104     1.0  0.52306  0.93063  0.61133  1.0000
  Fe  Fe181     1.0  0.66420  0.52750  0.60782  1.0000
  C   C1105     1.0  0.81635  0.00805  0.69240  1.0000
  H   H1104     1.0  0.91367  0.55757  0.48394  1.0000
  H   H1105     1.0  0.96489  0.58351  0.95961  1.0000
  Fe  Fe182     1.0  0.98144  0.90773  0.88545  1.0000
  S   S367      1.0  0.95627  0.86600  0.87632  1.0000
  S   S368      1.0  0.95826  0.95968  0.88068  1.0000
  C   C1106     1.0  0.86610  0.73659  0.88562  1.0000
  Fe  Fe183     1.0  0.96015  0.83668  0.89898  1.0000
  S   S369      1.0  0.91483  0.80980  0.91156  1.0000
  S   S370      1.0  0.98159  0.87976  0.90867  1.0000
  H   H1106     1.0  0.84448  0.72530  0.89244  1.0000
  Fe  Fe184     1.0  0.58456  0.63196  0.79688  1.0000
  S   S371      1.0  0.54849  0.62724  0.77975  1.0000
  S   S372      1.0  0.58122  0.67360  0.81235  1.0000
  Fe  Fe185     1.0  0.62315  0.56692  0.78918  1.0000
  S   S373      1.0  0.58875  0.55777  0.77187  1.0000
  Fe  Fe186     1.0  0.59397  0.61277  0.76454  1.0000
  S   S374      1.0  0.60385  0.63143  0.73954  1.0000
  Fe  Fe187     1.0  0.54745  0.57313  0.78890  1.0000
  H   H1107     1.0  0.71533  0.55720  0.76205  1.0000
  S   S375      1.0  0.63014  0.62139  0.78108  1.0000
  S   S376      1.0  0.58151  0.57829  0.80691  1.0000
  Fe  Fe188     1.0  0.79735  0.60719  0.95453  1.0000
  S   S377      1.0  0.80399  0.60973  0.92902  1.0000
  C   C1107     1.0  0.71788  0.56905  0.93757  1.0000
  H   H1108     1.0  0.53748  0.62032  0.83479  1.0000
  S   S378      1.0  0.87333  0.56753  0.93257  1.0000
  N   N93       1.0  0.71589  0.55249  0.92509  1.0000
  Fe  Fe189     1.0  0.85775  0.62169  0.93098  1.0000
  S   S379      1.0  0.89390  0.65386  0.91448  1.0000
  Fe  Fe190     1.0  0.81891  0.55551  0.93297  1.0000
  C   C1108     1.0  0.70118  0.55721  0.95163  1.0000
  N   N94       1.0  0.92344  0.76501  0.86961  1.0000
  H   H1109     1.0  0.56603  0.72882  0.82997  1.0000
  H   H1110     1.0  0.94002  0.58213  0.94425  1.0000
  H   H1111     1.0  0.52689  0.00057  0.83453  1.0000
  S   S380      1.0  0.00992  0.81351  0.89188  1.0000
  C   C1109     1.0  0.68402  0.56696  0.72235  1.0000
  C   C1110     1.0  0.71690  0.57496  0.72423  1.0000
  S   S381      1.0  0.80170  0.51816  0.91811  1.0000
  H   H1112     1.0  0.85268  0.78664  0.89071  1.0000
  N   N95       1.0  0.72762  0.57221  0.73838  1.0000
  H   H1113     1.0  0.59632  0.71754  0.71735  1.0000
  H   H1114     1.0  0.01001  0.78460  0.77109  1.0000
  C   C1111     1.0  0.70373  0.64982  0.73510  1.0000
  C   C1112     1.0  0.67095  0.64205  0.74136  1.0000
  H   H1115     1.0  0.90375  0.81136  0.87655  1.0000
  H   H1116     1.0  0.95054  0.80600  0.85719  1.0000
  Fe  Fe191     1.0  0.86232  0.56888  0.95760  1.0000
  H   H1117     1.0  0.72326  0.65083  0.74250  1.0000
  H   H1118     1.0  0.66560  0.63731  0.75346  1.0000
  C   C1113     1.0  0.52768  0.70773  0.80029  1.0000
  C   C1114     1.0  0.97421  0.99899  0.88338  1.0000
  H   H1119     1.0  0.52917  0.68970  0.79213  1.0000
  C   C1115     1.0  0.94410  0.96328  0.91941  1.0000
  H   H1120     1.0  0.76319  0.59106  0.75131  1.0000
  H   H1121     1.0  0.97199  0.61288  0.94266  1.0000
  C   C1116     1.0  0.91198  0.76576  0.91433  1.0000
  C   C1117     1.0  0.93636  0.74516  0.90750  1.0000
  C   C1118     1.0  0.93122  0.71057  0.90832  1.0000
  C   C1119     1.0  0.90185  0.69624  0.91606  1.0000
  C   C1120     1.0  0.87816  0.71661  0.92347  1.0000
  C   C1121     1.0  0.88317  0.75127  0.92253  1.0000
  H   H1122     1.0  0.95867  0.75598  0.90122  1.0000
  H   H1123     1.0  0.94967  0.69495  0.90258  1.0000
  H   H1124     1.0  0.85542  0.70590  0.92943  1.0000
  H   H1125     1.0  0.86421  0.76704  0.92787  1.0000
  H   H1126     1.0  0.00939  0.99241  0.93513  1.0000
  C   C1122     1.0  0.63694  0.72215  0.73069  1.0000
  H   H1127     1.0  0.77092  0.60183  0.73133  1.0000
  C   C1123     1.0  0.55057  0.70600  0.81112  1.0000
  C   C1124     1.0  0.96573  0.58669  0.94703  1.0000
  C   C1125     1.0  0.64544  0.64058  0.73197  1.0000
  Fe  Fe192     1.0  0.00809  0.84624  0.86993  1.0000
  C   C1126     1.0  0.73302  0.56553  0.91036  1.0000
  H   H1128     1.0  0.52169  0.77322  0.82949  1.0000
  C   C1127     1.0  0.01118  0.79350  0.73830  1.0000
  C   C1128     1.0  0.70683  0.55998  0.75081  1.0000
  H   H1129     1.0  0.88794  0.68955  0.88000  1.0000
  S   S382      1.0  0.67090  0.53549  0.79046  1.0000
  C   C1129     1.0  0.97367  0.96272  0.92633  1.0000
  C   C1130     1.0  0.66233  0.55548  0.73503  1.0000
  H   H1130     1.0  0.93878  0.71528  0.86571  1.0000
  H   H1131     1.0  0.95459  0.53673  0.93069  1.0000
  C   C1131     1.0  0.87063  0.77098  0.88462  1.0000
  S   S383      1.0  0.84980  0.62366  0.95622  1.0000
  C   C1132     1.0  0.71138  0.65610  0.71936  1.0000
  H   H1132     1.0  0.93475  0.94046  0.91604  1.0000
  H   H1133     1.0  0.90503  0.99392  0.91036  1.0000
  C   C1133     1.0  0.00315  0.00185  0.89055  1.0000
  C   C1134     1.0  0.95458  0.77970  0.86195  1.0000
  C   C1135     1.0  0.52321  0.75502  0.82136  1.0000
  H   H1134     1.0  0.65748  0.54224  0.75924  1.0000
  H   H1135     1.0  0.63645  0.55020  0.73383  1.0000
  H   H1136     1.0  0.97367  0.77933  0.87010  1.0000
  C   C1136     1.0  0.67393  0.55147  0.74931  1.0000
  H   H1137     1.0  0.00071  0.81793  0.74030  1.0000
  C   C1137     1.0  0.89054  0.71650  0.87860  1.0000
  C   C1138     1.0  0.00637  0.78055  0.72477  1.0000
  H   H1138     1.0  0.71635  0.58333  0.90421  1.0000
  H   H1139     1.0  0.62228  0.71402  0.74135  1.0000
  H   H1140     1.0  0.96485  0.76590  0.85230  1.0000
  N   N96       1.0  0.99052  0.56351  0.94043  1.0000
  H   H1141     1.0  0.98726  0.93934  0.92854  1.0000
  C   C1139     1.0  0.69667  0.52465  0.92610  1.0000
  C   C1140     1.0  0.67081  0.72929  0.73043  1.0000
  H   H1142     1.0  0.77895  0.55942  0.73926  1.0000
  C   C1141     1.0  0.89974  0.78483  0.87661  1.0000
  H   H1143     1.0  0.70334  0.57020  0.96153  1.0000
  C   C1142     1.0  0.76192  0.58144  0.74016  1.0000
  C   C1143     1.0  0.54831  0.72986  0.82160  1.0000
  C   C1144     1.0  0.68195  0.52855  0.95282  1.0000
  H   H1144     1.0  0.66925  0.51886  0.96370  1.0000
  C   C1145     1.0  0.91934  0.73120  0.87066  1.0000
  H   H1145     1.0  0.92453  0.95557  0.72395  1.0000
  C   C1146     1.0  0.92740  0.99370  0.91618  1.0000
  C   C1147     1.0  0.98607  0.99248  0.93002  1.0000
  H   H1146     1.0  0.73260  0.59147  0.93680  1.0000
  C   C1148     1.0  0.98079  0.53936  0.93222  1.0000
  S   S384      1.0  0.80926  0.55229  0.95829  1.0000
  H   H1147     1.0  0.75646  0.57830  0.91180  1.0000
  H   H1148     1.0  0.74089  0.54491  0.90334  1.0000
  H   H1149     1.0  0.68260  0.72697  0.74089  1.0000
  C   C1149     1.0  0.00436  0.51706  0.92602  1.0000
  C   C1150     1.0  0.68970  0.73832  0.71659  1.0000
  C   C1151     1.0  0.62244  0.72401  0.71703  1.0000
  H   H1150     1.0  0.71626  0.74311  0.71623  1.0000
  H   H1151     1.0  0.51826  0.66842  0.84863  1.0000
  C   C1152     1.0  0.65303  0.64706  0.71620  1.0000
  H   H1152     1.0  0.99184  0.79441  0.71653  1.0000
