data_image0
_chemical_formula_structural       CSCFeSCFeSCSFe2S2FeCFeHS2HC2SHC3SH3C8H4NHC2NHCHNHC2H2CHCH6CSHFe2HC2HC3NCHC3HCH2CHCHCH3C3SHSCHCH3SHCHCSHSCFeSFeS3CHC7H4C3HC2H3SCHCH3CHC2HC2HCNHNC4H3CHFeSC2H5SHCH3SHC2HC3SHC2FeSHFeS2HFeS2CFeSHFeS2Fe2SHSC2HC5SH3C7H5NSCHC2HCHC3H5CFeH4C3HNHNC6H8SC3SCH2SHC4HCNCHSFeS2FeS2FeSFeHS2CH4CH3C2HCHSC6H4C3HC2H2CHC6H5C4H3SHCH3CNC5H3CNH2C2HCHSH4NH2C6H2CH2CHCSH2CHCNHFeH2CHC3FeS2FeCFeHS2HC2FeCFeS2FeHFeHS2H2C2HSHC6H5FeH2NSC6H3C2HC3H2C6H3C5SH2SHCHNSNC3FeHCH2SH3FeC2H2CFeHCHC3HSCSCNHSHCHCH2SHSNC6H8SHC2H5SHC2HSCH3SCHCH2CS2FeSFeSFe2S2FeCFeHS2FeCFeS2FeCFeS3CFeS2FeSHFeSHSCHFeS2FeHFeNS4H3SCH2C3NHCH4C6H6C2HC6H4C5SHC2H4C6H4C6HCH3C3HCH2C2SCH3CHSHCFeC4H3C4NCHFeNCHNCSH2CH2C2H2SCFeH5CH4CHCH2NCH2CHCH3C2HNCH4CHCHC4HC2HSCHSHC4SH2SHC3HFeS2HFeNS2FeSFeCSFe2S2H3C6H4C2H3FeHCHCHSC2NC3H3CH2C2HSHSCHCSHC2FeHC3HCHC2NS3HFeS2FeS2FeSFeS3HCNC2H4C2HNHCHC6H4C6H4C6H4C2HCHCHC6H4SHCFeHCSNC2HCH3C3NHC2H5CHC2HCHCHC2SCH3NSCH2CH2C4H9C2H5CH2CHCHCHC2HCSCS2HCHFeSCFeS2FeSFeHFeS3HCFeCSHS2FeHSFeHSHCH2S3HC3FeC8H4SCH2C4HC6H2CHC6H4C3H5SHC4HNCH4NHCNCH2CH2CH4C3HCSCHC3HNCH2NHC2HC2H2C3HCHNCH2NH2C3H2C3H7CFeH2CFeC2H2C2SNH6CHS2C3NFeHC2SFeHCFeHCHCSCH2S2FeSFeS2FeS2FeSCSHFe2S2FeNFeCS2FeHFeS2FeHFeCS2HNFeHFeS2FeHFeS3H2SH2C5H3C2H5C6H4C2H2C7H4C3HC2H3SCH2C6H2CHC2HC3H2C3SH4SNH2FeHCH2CHC3H2NC6HCH6CFeHC5H2NHCSCNC6H8SHC2SCHC2HC3SH2S2FeSHSFeSFeS2FeS2FeSFeS3H4SCH3C2S2FeH3CFeHSCHCFeCH2CNHCNHC2SH6C2HC10H4C6H4C5H3C6H4C6H4SCNCNC2HCH2CNCHSCNC3HC3H3C2H2NC6H11C3HCH3NC2HCH3CH2C2SC3HFeHFeH2CH2SCH3SH2C2S2CH2CH3CSHSHFeS2FeS2FeSFeS3C2H2FeSCHC2SH2NH2SHNH3SC6H4C6H4C6H5C5H3CHCHC5HC6HSHCH2C2HCH4CNCH2C2H3CSC2HCH3N2H2CH4CHCSH3CHCFeS2FeHFeHFeS3C2HSHCFeSHFeSCFeS2Fe2S2FeCS2HS3HSHC4HC4HFeHCH4C6H4C5H3C2HCN2FeH2NC6H7CHCH2CH2SCSH2FeC2SHCHCH2CH2S2CSFeSFeS2HCSCHSC7H4C6H5CNHSH4CH2CHCFeHCHCN2CHC2HCHCNC2HCH3CH2CSCHCH2C2H2CH3CSH3FeS2FeCFeHFeCS2FeSFeSCFeS2CFeS2Fe2CHSHC2H4C6H4C7H4FeHSHCHCSC2HSHFeCNH2C2HCSCHCH4CHCSNHCHC2HSCH3NS3H2CFeCSCH2S
_chemical_formula_sum              "C864 S288 Fe144 H864 N72"
_cell_length_a       72.3716
_cell_length_b       72.2013
_cell_length_c       35.3554
_cell_angle_alpha    90.7449
_cell_angle_beta     91.0301
_cell_angle_gamma    112.335

_space_group_name_H-M_alt    "P 1"
_space_group_IT_number       1

loop_
  _space_group_symop_operation_xyz
  'x, y, z'

loop_
  _atom_site_type_symbol
  _atom_site_label
  _atom_site_symmetry_multiplicity
  _atom_site_fract_x
  _atom_site_fract_y
  _atom_site_fract_z
  _atom_site_occupancy
  C   C1        1.0  0.16836  0.33391  0.43152  1.0000
  S   S1        1.0  0.09853  0.37936  0.06175  1.0000
  C   C2        1.0  0.99259  0.28339  0.48619  1.0000
  Fe  Fe1       1.0  0.12340  0.34461  0.02263  1.0000
  S   S2        1.0  0.14039  0.37307  0.05387  1.0000
  C   C3        1.0  0.04465  0.33973  0.34466  1.0000
  Fe  Fe2       1.0  0.11493  0.36345  0.09449  1.0000
  S   S3        1.0  0.12395  0.36162  0.15635  1.0000
  C   C4        1.0  0.23057  0.36011  0.36026  1.0000
  S   S4        1.0  0.09864  0.33384  0.06458  1.0000
  Fe  Fe3       1.0  0.12286  0.38006  0.45474  1.0000
  Fe  Fe4       1.0  0.10154  0.36327  0.37754  1.0000
  S   S5        1.0  0.09154  0.33142  0.39691  1.0000
  S   S6        1.0  0.09114  0.37066  0.32003  1.0000
  Fe  Fe5       1.0  0.08381  0.34272  0.45196  1.0000
  C   C5        1.0  0.18224  0.32593  0.41926  1.0000
  Fe  Fe6       1.0  0.12310  0.34124  0.42133  1.0000
  H   H1        1.0  0.15200  0.30949  0.08802  1.0000
  S   S7        1.0  0.09207  0.37422  0.43132  1.0000
  S   S8        1.0  0.13319  0.37234  0.39907  1.0000
  H   H2        1.0  0.16588  0.36726  0.14085  1.0000
  C   C6        1.0  0.00853  0.29327  0.07754  1.0000
  C   C7        1.0  0.19704  0.36137  0.35606  1.0000
  S   S9        1.0  0.11448  0.34929  0.47802  1.0000
  H   H3        1.0  0.22384  0.34677  0.34120  1.0000
  C   C8        1.0  0.17435  0.34922  0.45914  1.0000
  C   C9        1.0  0.22165  0.38417  0.39744  1.0000
  C   C10       1.0  0.19083  0.35818  0.13212  1.0000
  S   S10       1.0  0.04950  0.34152  0.02092  1.0000
  H   H4        1.0  0.02931  0.27862  0.07187  1.0000
  H   H5        1.0  0.02077  0.34059  0.11203  1.0000
  H   H6        1.0  0.16777  0.36288  0.35627  1.0000
  C   C11       1.0  0.05171  0.37441  0.36583  1.0000
  C   C12       1.0  0.15658  0.33791  0.11485  1.0000
  C   C13       1.0  0.10012  0.36760  0.27464  1.0000
  C   C14       1.0  0.09120  0.37194  0.24194  1.0000
  C   C15       1.0  0.09806  0.37000  0.20547  1.0000
  C   C16       1.0  0.11405  0.36378  0.20130  1.0000
  C   C17       1.0  0.12286  0.35935  0.23398  1.0000
  C   C18       1.0  0.11593  0.36116  0.27038  1.0000
  H   H7        1.0  0.07906  0.37706  0.24486  1.0000
  H   H8        1.0  0.09129  0.37373  0.18074  1.0000
  H   H9        1.0  0.13522  0.35453  0.23118  1.0000
  H   H10       1.0  0.12295  0.35775  0.29515  1.0000
  N   N1        1.0  0.04073  0.32524  0.10893  1.0000
  H   H11       1.0  0.99614  0.28108  0.06404  1.0000
  C   C19       1.0  0.18048  0.34836  0.02030  1.0000
  C   C20       1.0  0.20804  0.34881  0.46144  1.0000
  N   N2        1.0  0.04442  0.35440  0.37352  1.0000
  H   H12       1.0  0.05382  0.34786  0.15141  1.0000
  C   C21       1.0  0.18307  0.36936  0.36714  1.0000
  H   H13       1.0  0.17787  0.39103  0.40349  1.0000
  N   N3        1.0  0.21605  0.36876  0.37130  1.0000
  H   H14       1.0  0.03683  0.29779  0.43910  1.0000
  C   C22       1.0  0.21811  0.34687  0.12009  1.0000
  C   C23       1.0  0.03202  0.31341  0.48781  1.0000
  H   H15       1.0  0.05757  0.33533  0.35023  1.0000
  H   H16       1.0  0.05752  0.37960  0.33817  1.0000
  C   C24       1.0  0.17065  0.35560  0.13042  1.0000
  H   H17       1.0  0.03306  0.35646  0.46549  1.0000
  C   C25       1.0  0.02253  0.32676  0.10452  1.0000
  H   H18       1.0  0.00243  0.27163  0.43758  1.0000
  H   H19       1.0  0.07112  0.33885  0.12988  1.0000
  H   H20       1.0  0.04607  0.39288  0.45193  1.0000
  H   H21       1.0  0.05849  0.40439  0.38771  1.0000
  H   H22       1.0  0.04631  0.34602  0.31579  1.0000
  H   H23       1.0  0.21200  0.36445  0.03463  1.0000
  C   C26       1.0  0.04323  0.30816  0.09760  1.0000
  S   S11       1.0  0.14390  0.32482  0.41105  1.0000
  H   H24       1.0  0.03064  0.32616  0.34479  1.0000
  Fe  Fe7       1.0  0.12237  0.38589  0.01785  1.0000
  Fe  Fe8       1.0  0.08331  0.34991  0.02943  1.0000
  H   H25       1.0  0.14092  0.33587  0.11292  1.0000
  C   C27       1.0  0.20205  0.33344  0.43390  1.0000
  C   C28       1.0  0.02717  0.29191  0.08185  1.0000
  H   H26       1.0  0.18779  0.31461  0.09204  1.0000
  C   C29       1.0  0.18305  0.32603  0.10366  1.0000
  C   C30       1.0  0.00664  0.28341  0.45906  1.0000
  C   C31       1.0  0.18869  0.38506  0.39380  1.0000
  N   N4        1.0  0.19677  0.34344  0.11902  1.0000
  C   C32       1.0  0.16277  0.32302  0.10132  1.0000
  H   H27       1.0  0.06183  0.35483  0.10366  1.0000
  C   C33       1.0  0.03778  0.34798  0.40881  1.0000
  C   C34       1.0  0.03801  0.36168  0.43736  1.0000
  C   C35       1.0  0.04537  0.38208  0.42976  1.0000
  H   H28       1.0  0.03260  0.33221  0.41529  1.0000
  C   C36       1.0  0.05230  0.38853  0.39377  1.0000
  H   H29       1.0  0.16381  0.35546  0.46893  1.0000
  H   H30       1.0  0.17637  0.36101  0.02613  1.0000
  C   C37       1.0  0.20069  0.35032  0.02517  1.0000
  H   H31       1.0  0.21243  0.40432  0.43066  1.0000
  C   C38       1.0  0.19110  0.31548  0.00705  1.0000
  H   H32       1.0  0.19232  0.34878  0.33621  1.0000
  C   C39       1.0  0.19400  0.35643  0.47432  1.0000
  H   H33       1.0  0.20173  0.37209  0.14379  1.0000
  H   H34       1.0  0.00851  0.33589  0.00741  1.0000
  H   H35       1.0  0.05778  0.30717  0.09988  1.0000
  C   C40       1.0  0.20810  0.39255  0.40905  1.0000
  C   C41       1.0  0.02620  0.29827  0.45982  1.0000
  C   C42       1.0  0.16569  0.32989  0.00835  1.0000
  S   S12       1.0  0.22997  0.33338  0.02938  1.0000
  H   H36       1.0  0.17767  0.31393  0.39821  1.0000
  S   S13       1.0  0.23267  0.35884  0.48119  1.0000
  C   C43       1.0  0.05772  0.34250  0.12427  1.0000
  H   H37       1.0  0.22483  0.35227  0.14863  1.0000
  C   C44       1.0  0.20596  0.33366  0.01905  1.0000
  H   H38       1.0  0.21253  0.32707  0.42444  1.0000
  H   H39       1.0  0.99188  0.31222  0.08454  1.0000
  H   H40       1.0  0.22070  0.33299  0.11312  1.0000
  S   S14       1.0  0.14470  0.40570  0.49070  1.0000
  H   H41       1.0  0.22611  0.35816  0.09886  1.0000
  C   C45       1.0  0.17130  0.31368  0.00133  1.0000
  H   H42       1.0  0.19842  0.36817  0.49588  1.0000
  C   C46       1.0  0.00614  0.31077  0.08901  1.0000
  S   S15       1.0  0.13995  0.32555  0.00179  1.0000
  H   H43       1.0  0.19490  0.30252  0.00230  1.0000
  S   S16       1.0  0.05649  0.33270  0.49035  1.0000
  C   C47       1.0  0.02896  0.32084  0.00091  1.0000
  Fe  Fe9       1.0  0.14959  0.45262  0.77262  1.0000
  S   S17       1.0  0.12903  0.43144  0.81506  1.0000
  Fe  Fe10      1.0  0.14820  0.45976  0.68693  1.0000
  S   S18       1.0  0.12627  0.44759  0.63718  1.0000
  S   S19       1.0  0.15677  0.43834  0.72116  1.0000
  S   S20       1.0  0.13860  0.47256  0.73806  1.0000
  C   C48       1.0  0.09335  0.36327  0.55940  1.0000
  H   H44       1.0  0.10115  0.42499  0.57546  1.0000
  C   C49       1.0  0.12213  0.39502  0.64190  1.0000
  C   C50       1.0  0.13282  0.42729  0.86342  1.0000
  C   C51       1.0  0.11847  0.41085  0.88092  1.0000
  C   C52       1.0  0.12056  0.40696  0.91936  1.0000
  C   C53       1.0  0.13687  0.41977  0.94101  1.0000
  C   C54       1.0  0.15116  0.43637  0.92365  1.0000
  C   C55       1.0  0.14931  0.43999  0.88490  1.0000
  H   H45       1.0  0.10560  0.40100  0.86462  1.0000
  H   H46       1.0  0.10940  0.39421  0.93235  1.0000
  H   H47       1.0  0.16380  0.44640  0.94023  1.0000
  H   H48       1.0  0.16050  0.45268  0.87181  1.0000
  C   C56       1.0  0.13178  0.43676  0.59576  1.0000
  C   C57       1.0  0.15119  0.43821  0.58836  1.0000
  C   C58       1.0  0.15490  0.42890  0.55568  1.0000
  H   H49       1.0  0.10329  0.45505  0.82628  1.0000
  C   C59       1.0  0.11983  0.41639  0.53778  1.0000
  C   C60       1.0  0.11618  0.42601  0.57010  1.0000
  H   H50       1.0  0.16335  0.44652  0.60775  1.0000
  H   H51       1.0  0.11955  0.40338  0.66562  1.0000
  H   H52       1.0  0.15662  0.36362  0.96826  1.0000
  S   S21       1.0  0.18073  0.47576  0.77983  1.0000
  C   C61       1.0  0.12867  0.37547  0.57861  1.0000
  H   H53       1.0  0.02220  0.32509  0.53659  1.0000
  C   C62       1.0  0.14474  0.38631  0.60291  1.0000
  H   H54       1.0  0.15977  0.38767  0.59626  1.0000
  H   H55       1.0  0.22939  0.48957  0.75894  1.0000
  H   H56       1.0  0.13187  0.33983  0.92420  1.0000
  C   C63       1.0  0.99297  0.30577  0.98535  1.0000
  H   H57       1.0  0.09159  0.38378  0.62224  1.0000
  C   C64       1.0  0.13923  0.41774  0.53051  1.0000
  C   C65       1.0  0.13583  0.36184  0.88098  1.0000
  H   H58       1.0  0.12467  0.35161  0.86170  1.0000
  C   C66       1.0  0.14625  0.38170  0.87104  1.0000
  C   C67       1.0  0.16039  0.39473  0.89653  1.0000
  H   H59       1.0  0.07852  0.36171  0.57019  1.0000
  C   C68       1.0  0.14141  0.39614  0.63474  1.0000
  N   N5        1.0  0.16366  0.38830  0.93133  1.0000
  H   H60       1.0  0.16830  0.41016  0.88867  1.0000
  N   N6        1.0  0.10977  0.37430  0.58600  1.0000
  C   C69       1.0  0.10638  0.38399  0.61705  1.0000
  C   C70       1.0  0.01792  0.31353  0.51471  1.0000
  C   C71       1.0  0.99834  0.29867  0.51391  1.0000
  C   C72       1.0  0.13980  0.35524  0.91599  1.0000
  H   H61       1.0  0.10772  0.40819  0.51825  1.0000
  H   H62       1.0  0.13154  0.36851  0.55319  1.0000
  H   H63       1.0  0.09545  0.37115  0.53206  1.0000
  C   C73       1.0  0.15383  0.36877  0.94093  1.0000
  H   H64       1.0  0.98780  0.29890  0.53506  1.0000
  Fe  Fe11      1.0  0.18718  0.46300  0.72561  1.0000
  S   S22       1.0  0.21241  0.45259  0.71422  1.0000
  C   C74       1.0  0.03064  0.30294  0.98939  1.0000
  C   C75       1.0  0.13085  0.48024  0.83831  1.0000
  H   H65       1.0  0.16998  0.43016  0.55011  1.0000
  H   H66       1.0  0.13676  0.47154  0.85608  1.0000
  H   H67       1.0  0.09287  0.34788  0.55396  1.0000
  H   H68       1.0  0.15384  0.40522  0.65308  1.0000
  H   H69       1.0  0.14316  0.38712  0.84408  1.0000
  S   S23       1.0  0.17918  0.48380  0.68767  1.0000
  H   H70       1.0  0.18031  0.41789  0.95291  1.0000
  C   C76       1.0  0.23604  0.46510  0.73599  1.0000
  H   H71       1.0  0.04503  0.30163  0.99105  1.0000
  H   H72       1.0  0.08973  0.47440  0.78393  1.0000
  H   H73       1.0  0.01503  0.27274  0.96765  1.0000
  S   S24       1.0  0.10646  0.35760  0.98407  1.0000
  H   H74       1.0  0.19293  0.40044  0.95563  1.0000
  C   C77       1.0  0.01355  0.28653  0.97625  1.0000
  C   C78       1.0  0.11183  0.47082  0.82156  1.0000
  H   H75       1.0  0.17312  0.39905  0.98755  1.0000
  C   C79       1.0  0.99460  0.28780  0.97416  1.0000
  C   C80       1.0  0.17836  0.40209  0.95801  1.0000
  C   C81       1.0  0.10429  0.48166  0.79771  1.0000
  S   S25       1.0  0.14023  0.41529  0.98938  1.0000
  H   H76       1.0  0.16015  0.29940  0.99200  1.0000
  C   C82       1.0  0.01004  0.32215  0.99853  1.0000
  C   C83       1.0  0.06388  0.72681  0.19046  1.0000
  Fe  Fe12      1.0  0.08997  0.71384  0.03230  1.0000
  S   S26       1.0  0.10021  0.68970  0.05098  1.0000
  H   H77       1.0  0.20725  0.79673  0.39545  1.0000
  Fe  Fe13      1.0  0.13119  0.74725  0.05272  1.0000
  S   S27       1.0  0.14371  0.72493  0.07294  1.0000
  S   S28       1.0  0.14933  0.78074  0.06261  1.0000
  H   H78       1.0  0.00219  0.65519  0.42923  1.0000
  Fe  Fe14      1.0  0.11436  0.70998  0.10144  1.0000
  S   S29       1.0  0.11065  0.69567  0.15946  1.0000
  S   S30       1.0  0.10246  0.73323  0.08455  1.0000
  C   C84       1.0  0.18300  0.81588  0.47562  1.0000
  Fe  Fe15      1.0  0.12936  0.75051  0.45365  1.0000
  S   S31       1.0  0.13906  0.73179  0.41364  1.0000
  H   H79       1.0  0.20813  0.84413  0.47097  1.0000
  Fe  Fe16      1.0  0.08558  0.71842  0.45603  1.0000
  S   S32       1.0  0.09255  0.69810  0.41482  1.0000
  S   S33       1.0  0.05768  0.71136  0.49193  1.0000
  Fe  Fe17      1.0  0.12106  0.70587  0.44995  1.0000
  Fe  Fe18      1.0  0.10984  0.72603  0.38232  1.0000
  S   S34       1.0  0.10929  0.73579  0.32085  1.0000
  H   H80       1.0  0.19004  0.76349  0.13743  1.0000
  S   S35       1.0  0.10078  0.74591  0.42165  1.0000
  C   C85       1.0  0.99413  0.66178  0.48477  1.0000
  C   C86       1.0  0.20139  0.82793  0.04366  1.0000
  H   H81       1.0  0.17605  0.82137  0.49761  1.0000
  C   C87       1.0  0.20993  0.82205  0.43133  1.0000
  C   C88       1.0  0.20067  0.80209  0.41823  1.0000
  C   C89       1.0  0.18243  0.78922  0.43303  1.0000
  C   C90       1.0  0.17328  0.79619  0.46127  1.0000
  C   C91       1.0  0.20126  0.82877  0.46078  1.0000
  S   S36       1.0  0.23047  0.83850  0.40621  1.0000
  H   H82       1.0  0.17576  0.82130  0.07912  1.0000
  H   H83       1.0  0.17520  0.77409  0.42186  1.0000
  H   H84       1.0  0.22455  0.83846  0.15727  1.0000
  C   C92       1.0  0.06279  0.68804  0.18668  1.0000
  C   C93       1.0  0.11239  0.70773  0.20431  1.0000
  C   C94       1.0  0.11415  0.72766  0.20777  1.0000
  C   C95       1.0  0.11367  0.73609  0.24379  1.0000
  C   C96       1.0  0.11154  0.72479  0.27676  1.0000
  C   C97       1.0  0.11028  0.70502  0.27338  1.0000
  C   C98       1.0  0.11064  0.69655  0.23733  1.0000
  H   H85       1.0  0.11542  0.73642  0.18266  1.0000
  H   H86       1.0  0.11463  0.75139  0.24606  1.0000
  H   H87       1.0  0.10864  0.69614  0.29844  1.0000
  H   H88       1.0  0.10929  0.68112  0.23499  1.0000
  H   H89       1.0  0.17333  0.77627  0.12721  1.0000
  N   N7        1.0  0.20401  0.79254  0.11494  1.0000
  S   S37       1.0  0.12980  0.68113  0.47373  1.0000
  C   C99       1.0  0.18169  0.78864  0.01513  1.0000
  H   H90       1.0  0.19487  0.80665  0.16024  1.0000
  C   C100      1.0  0.00729  0.66443  0.45457  1.0000
  C   C101      1.0  0.17267  0.79584  0.04331  1.0000
  H   H91       1.0  0.04463  0.67523  0.11425  1.0000
  C   C102      1.0  0.03357  0.69163  0.48867  1.0000
  H   H92       1.0  0.06214  0.69737  0.09333  1.0000
  C   C103      1.0  0.05980  0.68712  0.11759  1.0000
  C   C104      1.0  0.06431  0.69755  0.22199  1.0000
  C   C105      1.0  0.21030  0.82083  0.01512  1.0000
  H   H93       1.0  0.03671  0.68108  0.43293  1.0000
  H   H94       1.0  0.20881  0.84306  0.05472  1.0000
  H   H95       1.0  0.06580  0.69013  0.24771  1.0000
  H   H96       1.0  0.07114  0.68022  0.11592  1.0000
  H   H97       1.0  0.21647  0.78214  0.06897  1.0000
  C   C106      1.0  0.20620  0.80804  0.13961  1.0000
  Fe  Fe19      1.0  0.12848  0.70702  0.02067  1.0000
  H   H98       1.0  0.18239  0.76599  0.08934  1.0000
  H   H99       1.0  0.08563  0.66341  0.49134  1.0000
  H   H100      1.0  0.06311  0.67314  0.18541  1.0000
  H   H101      1.0  0.06465  0.74210  0.19156  1.0000
  C   C107      1.0  0.06219  0.71678  0.15561  1.0000
  C   C108      1.0  0.18668  0.77362  0.11753  1.0000
  C   C109      1.0  0.06494  0.71709  0.22382  1.0000
  H   H102      1.0  0.06145  0.72446  0.12978  1.0000
  N   N8        1.0  0.06180  0.69768  0.15409  1.0000
  H   H103      1.0  0.06682  0.72483  0.25105  1.0000
  N   N9        1.0  0.14787  0.80206  0.38183  1.0000
  C   C110      1.0  0.16606  0.81689  0.37563  1.0000
  C   C111      1.0  0.14197  0.78426  0.36202  1.0000
  C   C112      1.0  0.17909  0.81391  0.34966  1.0000
  C   C113      1.0  0.15469  0.78069  0.33612  1.0000
  C   C114      1.0  0.17339  0.79561  0.33007  1.0000
  C   C115      1.0  0.13431  0.80564  0.40866  1.0000
  H   H104      1.0  0.17087  0.83090  0.39168  1.0000
  H   H105      1.0  0.12745  0.77260  0.36637  1.0000
  H   H106      1.0  0.19383  0.82544  0.34601  1.0000
  H   H107      1.0  0.15002  0.76635  0.32114  1.0000
  H   H108      1.0  0.18355  0.79289  0.31061  1.0000
  H   H109      1.0  0.14281  0.81466  0.43357  1.0000
  H   H110      1.0  0.12563  0.81350  0.39461  1.0000
  H   H111      1.0  0.12378  0.79135  0.42021  1.0000
  S   S38       1.0  0.14919  0.78139  0.47756  1.0000
  C   C116      1.0  0.02692  0.67911  0.45659  1.0000
  C   C117      1.0  0.18263  0.81555  0.05742  1.0000
  C   C118      1.0  0.22289  0.82604  0.13808  1.0000
  S   S39       1.0  0.11343  0.72509  0.49189  1.0000
  C   C119      1.0  0.21831  0.79430  0.08888  1.0000
  H   H112      1.0  0.04776  0.66490  0.02261  1.0000
  H   H113      1.0  0.07700  0.68340  0.49337  1.0000
  S   S40       1.0  0.05832  0.70802  0.00952  1.0000
  H   H114      1.0  0.01657  0.63530  0.00821  1.0000
  C   C120      1.0  0.23514  0.81210  0.08651  1.0000
  C   C121      1.0  0.03497  0.66693  0.00997  1.0000
  C   C122      1.0  0.01719  0.65014  0.00183  1.0000
  C   C123      1.0  0.03607  0.68623  0.00166  1.0000
  H   H115      1.0  0.17420  0.77355  0.00392  1.0000
  C   C124      1.0  0.20029  0.80115  0.00087  1.0000
  N   N10       1.0  0.08774  0.67683  0.54613  1.0000
  C   C125      1.0  0.07274  0.66150  0.88585  1.0000
  H   H116      1.0  0.15639  0.59727  0.62390  1.0000
  S   S41       1.0  0.18031  0.52801  0.76078  1.0000
  Fe  Fe20      1.0  0.15326  0.66365  0.77244  1.0000
  S   S42       1.0  0.17432  0.64808  0.78477  1.0000
  S   S43       1.0  0.13234  0.67213  0.81010  1.0000
  Fe  Fe21      1.0  0.16626  0.67162  0.68941  1.0000
  S   S44       1.0  0.18870  0.65700  0.69535  1.0000
  S   S45       1.0  0.16228  0.69207  0.64434  1.0000
  Fe  Fe22      1.0  0.16465  0.63297  0.72739  1.0000
  S   S46       1.0  0.15407  0.59956  0.71103  1.0000
  Fe  Fe23      1.0  0.19671  0.67304  0.75199  1.0000
  H   H117      1.0  0.09548  0.65122  0.55022  1.0000
  S   S47       1.0  0.14173  0.64685  0.71743  1.0000
  S   S48       1.0  0.17624  0.68929  0.74382  1.0000
  C   C126      1.0  0.09141  0.66152  0.95502  1.0000
  H   H118      1.0  0.08157  0.70345  0.54960  1.0000
  H   H119      1.0  0.01974  0.70324  0.97883  1.0000
  H   H120      1.0  0.22982  0.70208  0.69862  1.0000
  H   H121      1.0  0.21193  0.56714  0.69468  1.0000
  C   C127      1.0  0.13474  0.51068  0.80826  1.0000
  H   H122      1.0  0.20246  0.62142  0.67488  1.0000
  H   H123      1.0  0.03997  0.67107  0.92362  1.0000
  H   H124      1.0  0.11245  0.66135  0.61295  1.0000
  C   C128      1.0  0.09839  0.70054  0.59821  1.0000
  C   C129      1.0  0.00096  0.67394  0.51727  1.0000
  H   H125      1.0  0.05991  0.69533  0.93013  1.0000
  C   C130      1.0  0.09590  0.66491  0.56389  1.0000
  H   H126      1.0  0.07532  0.67921  0.97496  1.0000
  S   S49       1.0  0.11757  0.73020  0.99857  1.0000
  C   C131      1.0  0.13719  0.67848  0.85864  1.0000
  C   C132      1.0  0.14860  0.67073  0.88087  1.0000
  C   C133      1.0  0.15075  0.67478  0.92010  1.0000
  C   C134      1.0  0.14187  0.68690  0.93725  1.0000
  C   C135      1.0  0.13095  0.69515  0.91482  1.0000
  C   C136      1.0  0.12846  0.69077  0.87570  1.0000
  H   H127      1.0  0.15529  0.66117  0.86802  1.0000
  H   H128      1.0  0.15926  0.66838  0.93729  1.0000
  H   H129      1.0  0.12411  0.70457  0.92771  1.0000
  H   H130      1.0  0.11957  0.69677  0.85862  1.0000
  C   C137      1.0  0.15491  0.68865  0.59592  1.0000
  C   C138      1.0  0.15319  0.70491  0.57702  1.0000
  C   C139      1.0  0.14596  0.70283  0.53944  1.0000
  H   H131      1.0  0.21149  0.70213  0.92356  1.0000
  C   C140      1.0  0.14259  0.66822  0.53864  1.0000
  C   C141      1.0  0.14982  0.67029  0.57648  1.0000
  H   H132      1.0  0.15725  0.71920  0.59170  1.0000
  H   H133      1.0  0.14487  0.71556  0.52538  1.0000
  C   C142      1.0  0.10553  0.67055  0.59930  1.0000
  H   H134      1.0  0.15115  0.65767  0.59072  1.0000
  C   C143      1.0  0.17204  0.54739  0.74781  1.0000
  C   C144      1.0  0.18154  0.56657  0.76463  1.0000
  C   C145      1.0  0.17591  0.58260  0.75458  1.0000
  C   C146      1.0  0.16065  0.57961  0.72754  1.0000
  C   C147      1.0  0.15081  0.56030  0.71144  1.0000
  C   C148      1.0  0.15645  0.54427  0.72146  1.0000
  H   H135      1.0  0.19353  0.56914  0.78527  1.0000
  H   H136      1.0  0.18357  0.59731  0.76735  1.0000
  H   H137      1.0  0.13891  0.55778  0.69062  1.0000
  H   H138      1.0  0.14889  0.52960  0.70844  1.0000
  H   H139      1.0  0.13843  0.65396  0.52381  1.0000
  C   C149      1.0  0.02049  0.68885  0.51903  1.0000
  C   C150      1.0  0.00021  0.65233  0.98559  1.0000
  C   C151      1.0  0.08841  0.69419  0.56327  1.0000
  C   C152      1.0  0.01911  0.68842  0.98544  1.0000
  H   H140      1.0  0.98845  0.67365  0.96506  1.0000
  H   H141      1.0  0.16097  0.71276  0.80505  1.0000
  H   H142      1.0  0.10606  0.64450  0.92655  1.0000
  S   S50       1.0  0.22738  0.69104  0.77790  1.0000
  H   H143      1.0  0.09906  0.66204  0.98196  1.0000
  C   C153      1.0  0.17911  0.57584  0.63446  1.0000
  H   H144      1.0  0.18403  0.73103  0.78850  1.0000
  H   H145      1.0  0.11541  0.69359  0.64277  1.0000
  H   H146      1.0  0.02542  0.69846  0.54396  1.0000
  C   C154      1.0  0.09532  0.65162  0.92391  1.0000
  N   N11       1.0  0.18537  0.72017  0.84405  1.0000
  C   C155      1.0  0.18032  0.72123  0.88091  1.0000
  C   C156      1.0  0.19961  0.71276  0.83521  1.0000
  C   C157      1.0  0.18984  0.71505  0.91011  1.0000
  C   C158      1.0  0.20929  0.70627  0.86362  1.0000
  C   C159      1.0  0.20432  0.70740  0.90129  1.0000
  H   H147      1.0  0.22087  0.60350  0.70797  1.0000
  H   H148      1.0  0.17500  0.62079  0.63766  1.0000
  H   H149      1.0  0.20353  0.71173  0.80602  1.0000
  C   C160      1.0  0.17272  0.60628  0.62320  1.0000
  N   N12       1.0  0.18383  0.59573  0.64251  1.0000
  H   H150      1.0  0.05281  0.68499  0.88341  1.0000
  H   H151      1.0  0.09955  0.71469  0.61096  1.0000
  C   C161      1.0  0.17461  0.72587  0.81374  1.0000
  C   C162      1.0  0.19892  0.60574  0.66800  1.0000
  H   H152      1.0  0.14372  0.52617  0.80234  1.0000
  C   C163      1.0  0.16209  0.50926  0.84885  1.0000
  H   H153      1.0  0.06556  0.66142  0.85861  1.0000
  S   S51       1.0  0.14476  0.69122  0.98668  1.0000
  H   H154      1.0  0.20699  0.79552  0.97869  1.0000
  H   H155      1.0  0.99106  0.67217  0.54068  1.0000
  H   H156      1.0  0.18547  0.71553  0.93924  1.0000
  H   H157      1.0  0.08949  0.64453  0.86437  1.0000
  N   N13       1.0  0.06909  0.67131  0.91647  1.0000
  H   H158      1.0  0.16773  0.52589  0.84804  1.0000
  H   H159      1.0  0.17009  0.73825  0.82314  1.0000
  C   C164      1.0  0.08603  0.65166  0.88901  1.0000
  C   C165      1.0  0.07816  0.67135  0.95078  1.0000
  C   C166      1.0  0.20446  0.57532  0.67924  1.0000
  C   C167      1.0  0.14035  0.68443  0.52017  1.0000
  C   C168      1.0  0.10711  0.68867  0.61617  1.0000
  C   C169      1.0  0.00130  0.67164  0.97753  1.0000
  H   H160      1.0  0.17745  0.60915  0.59344  1.0000
  H   H161      1.0  0.16858  0.72648  0.88791  1.0000
  C   C170      1.0  0.20942  0.59569  0.68679  1.0000
  H   H162      1.0  0.22040  0.70020  0.85622  1.0000
  H   H163      1.0  0.16702  0.56788  0.61457  1.0000
  C   C171      1.0  0.05473  0.68111  0.91312  1.0000
  H   H164      1.0  0.18503  0.54938  0.64740  1.0000
  C   C172      1.0  0.18930  0.56533  0.65275  1.0000
  S   S52       1.0  0.23384  0.83579  0.99640  1.0000
  H   H165      1.0  0.11029  0.51022  0.77183  1.0000
  H   H166      1.0  0.17261  0.50446  0.83279  1.0000
  C   C173      1.0  0.07751  0.67045  0.50928  1.0000
  H   H167      1.0  0.06193  0.65978  0.51315  1.0000
  C   C174      1.0  0.11580  0.50172  0.79091  1.0000
  N   N14       1.0  0.14196  0.49996  0.83183  1.0000
  H   H168      1.0  0.16223  0.50495  0.87887  1.0000
  Fe  Fe24      1.0  0.17026  0.49505  0.74158  1.0000
  H   H169      1.0  0.22704  0.80921  0.50097  1.0000
  H   H170      1.0  0.42068  0.08134  0.04300  1.0000
  C   C175      1.0  0.42679  0.14434  0.02409  1.0000
  H   H171      1.0  0.47435  0.22542  0.27286  1.0000
  C   C176      1.0  0.45044  0.26657  0.14100  1.0000
  C   C177      1.0  0.43283  0.25661  0.08087  1.0000
  C   C178      1.0  0.37788  0.27467  0.40690  1.0000
  Fe  Fe25      1.0  0.29125  0.38245  0.09752  1.0000
  S   S53       1.0  0.28194  0.34999  0.08105  1.0000
  S   S54       1.0  0.29814  0.39592  0.15771  1.0000
  Fe  Fe26      1.0  0.30536  0.36009  0.03634  1.0000
  C   C179      1.0  0.41069  0.29633  0.38747  1.0000
  Fe  Fe27      1.0  0.26171  0.35639  0.03781  1.0000
  H   H172      1.0  0.37672  0.10489  0.06627  1.0000
  S   S55       1.0  0.31607  0.39246  0.05563  1.0000
  S   S56       1.0  0.26973  0.38826  0.05691  1.0000
  H   H173      1.0  0.34673  0.13989  0.42267  1.0000
  C   C180      1.0  0.41292  0.14250  0.43582  1.0000
  C   C181      1.0  0.47172  0.31402  0.10920  1.0000
  Fe  Fe28      1.0  0.30321  0.39510  0.45292  1.0000
  C   C182      1.0  0.31717  0.28346  0.48466  1.0000
  Fe  Fe29      1.0  0.28622  0.36612  0.38368  1.0000
  S   S57       1.0  0.27200  0.33986  0.42229  1.0000
  S   S58       1.0  0.27830  0.35670  0.32113  1.0000
  Fe  Fe30      1.0  0.26204  0.36129  0.45497  1.0000
  H   H174      1.0  0.30220  0.30990  0.01270  1.0000
  Fe  Fe31      1.0  0.30096  0.35205  0.45690  1.0000
  H   H175      1.0  0.30022  0.30065  0.46446  1.0000
  S   S59       1.0  0.27541  0.38705  0.41599  1.0000
  S   S60       1.0  0.31563  0.37690  0.41630  1.0000
  H   H176      1.0  0.47945  0.30530  0.05494  1.0000
  H   H177      1.0  0.39925  0.11073  0.44399  1.0000
  C   C183      1.0  0.42384  0.13076  0.09759  1.0000
  C   C184      1.0  0.40926  0.12938  0.03635  1.0000
  H   H178      1.0  0.41377  0.32879  0.48083  1.0000
  S   S61       1.0  0.48136  0.29488  0.24155  1.0000
  H   H179      1.0  0.47440  0.21870  0.36383  1.0000
  C   C185      1.0  0.29167  0.38487  0.20284  1.0000
  C   C186      1.0  0.29950  0.39674  0.23569  1.0000
  C   C187      1.0  0.29561  0.38847  0.27209  1.0000
  C   C188      1.0  0.28375  0.36818  0.27613  1.0000
  C   C189      1.0  0.27586  0.35634  0.24325  1.0000
  C   C190      1.0  0.27977  0.36459  0.20685  1.0000
  H   H180      1.0  0.30871  0.41245  0.23300  1.0000
  H   H181      1.0  0.30177  0.39780  0.29701  1.0000
  H   H182      1.0  0.26666  0.34063  0.24599  1.0000
  H   H183      1.0  0.27372  0.35523  0.18194  1.0000
  H   H184      1.0  0.36450  0.26122  0.40296  1.0000
  Fe  Fe32      1.0  0.29391  0.39541  0.01332  1.0000
  H   H185      1.0  0.36602  0.34039  0.01829  1.0000
  H   H186      1.0  0.45689  0.16382  0.03990  1.0000
  N   N15       1.0  0.37493  0.14261  0.44556  1.0000
  S   S62       1.0  0.46133  0.32626  0.17757  1.0000
  C   C191      1.0  0.38989  0.10640  0.08468  1.0000
  C   C192      1.0  0.45677  0.31676  0.13034  1.0000
  C   C193      1.0  0.43784  0.31243  0.11328  1.0000
  C   C194      1.0  0.43374  0.30512  0.07560  1.0000
  C   C195      1.0  0.44873  0.30254  0.05433  1.0000
  C   C196      1.0  0.46776  0.30718  0.07127  1.0000
  H   H187      1.0  0.34081  0.40549  0.17930  1.0000
  H   H188      1.0  0.42623  0.31466  0.12931  1.0000
  H   H189      1.0  0.41907  0.30169  0.06288  1.0000
  C   C197      1.0  0.44999  0.25546  0.06550  1.0000
  C   C198      1.0  0.46122  0.29359  0.38875  1.0000
  H   H190      1.0  0.23647  0.38960  0.41048  1.0000
  C   C199      1.0  0.44596  0.29708  0.46085  1.0000
  C   C200      1.0  0.43974  0.27848  0.44200  1.0000
  C   C201      1.0  0.44740  0.27675  0.40632  1.0000
  H   H191      1.0  0.42903  0.26539  0.45494  1.0000
  H   H192      1.0  0.44247  0.26226  0.39213  1.0000
  C   C202      1.0  0.45511  0.10356  0.37145  1.0000
  C   C203      1.0  0.44034  0.08736  0.38879  1.0000
  C   C204      1.0  0.43341  0.08960  0.42490  1.0000
  C   C205      1.0  0.44153  0.10801  0.44437  1.0000
  C   C206      1.0  0.45639  0.12419  0.42712  1.0000
  C   C207      1.0  0.46302  0.12207  0.39068  1.0000
  H   H193      1.0  0.43421  0.07297  0.37419  1.0000
  H   H194      1.0  0.42203  0.07701  0.43788  1.0000
  H   H195      1.0  0.46286  0.13846  0.44208  1.0000
  C   C208      1.0  0.45863  0.10805  0.10506  1.0000
  C   C209      1.0  0.44043  0.09358  0.09141  1.0000
  C   C210      1.0  0.43467  0.09264  0.05297  1.0000
  C   C211      1.0  0.44723  0.10598  0.02745  1.0000
  C   C212      1.0  0.46567  0.12021  0.04087  1.0000
  S   S63       1.0  0.32287  0.42587  0.47783  1.0000
  H   H196      1.0  0.43066  0.08302  0.11078  1.0000
  H   H197      1.0  0.42314  0.29972  0.36848  1.0000
  S   S64       1.0  0.37605  0.07706  0.49852  1.0000
  H   H198      1.0  0.23654  0.35519  0.38575  1.0000
  C   C213      1.0  0.31372  0.30122  0.47900  1.0000
  H   H199      1.0  0.48544  0.13243  0.08962  1.0000
  N   N16       1.0  0.40794  0.12285  0.07275  1.0000
  S   S65       1.0  0.38746  0.25285  0.49517  1.0000
  N   N17       1.0  0.39674  0.30431  0.44364  1.0000
  C   C214      1.0  0.35486  0.14261  0.45039  1.0000
  C   C215      1.0  0.40980  0.16039  0.43380  1.0000
  C   C216      1.0  0.37970  0.28762  0.43777  1.0000
  Fe  Fe33      1.0  0.48584  0.32450  0.21684  1.0000
  H   H200      1.0  0.47446  0.13462  0.37775  1.0000
  C   C217      1.0  0.35534  0.30905  0.00231  1.0000
  H   H201      1.0  0.30621  0.26930  0.47433  1.0000
  H   H202      1.0  0.48053  0.25934  0.07609  1.0000
  S   S66       1.0  0.46438  0.10858  0.15417  1.0000
  H   H203      1.0  0.47815  0.32529  0.39451  1.0000
  H   H204      1.0  0.42780  0.14244  0.43284  1.0000
  H   H205      1.0  0.39235  0.09211  0.08323  1.0000
  Fe  Fe34      1.0  0.48261  0.12355  0.28646  1.0000
  C   C218      1.0  0.45995  0.31390  0.44349  1.0000
  C   C219      1.0  0.47129  0.12138  0.07958  1.0000
  H   H206      1.0  0.32867  0.99780  0.41316  1.0000
  H   H207      1.0  0.45424  0.15173  0.10599  1.0000
  C   C220      1.0  0.39357  0.27902  0.38178  1.0000
  Fe  Fe35      1.0  0.48555  0.12868  0.20000  1.0000
  H   H208      1.0  0.36549  0.11107  0.45293  1.0000
  C   C221      1.0  0.46745  0.31222  0.40752  1.0000
  H   H209      1.0  0.38622  0.10902  0.11414  1.0000
  C   C222      1.0  0.44150  0.14594  0.08644  1.0000
  C   C223      1.0  0.31702  0.30975  0.01008  1.0000
  C   C224      1.0  0.37783  0.12496  0.44708  1.0000
  H   H210      1.0  0.34249  0.40325  0.12953  1.0000
  S   S67       1.0  0.48517  0.19167  0.26583  1.0000
  C   C225      1.0  0.39843  0.31719  0.47695  1.0000
  S   S68       1.0  0.46996  0.29024  0.34343  1.0000
  C   C226      1.0  0.39055  0.16015  0.43844  1.0000
  N   N18       1.0  0.46708  0.26501  0.12589  1.0000
  H   H211      1.0  0.42555  0.32211  0.42335  1.0000
  S   S69       1.0  0.33191  0.35065  0.02785  1.0000
  H   H212      1.0  0.48254  0.36841  0.19768  1.0000
  C   C227      1.0  0.46712  0.25980  0.08852  1.0000
  H   H213      1.0  0.47656  0.25402  0.36690  1.0000
  C   C228      1.0  0.44299  0.15267  0.04937  1.0000
  H   H214      1.0  0.47557  0.13046  0.02127  1.0000
  H   H215      1.0  0.42321  0.12493  0.12591  1.0000
  S   S70       1.0  0.46403  0.09960  0.32692  1.0000
  H   H216      1.0  0.41973  0.25402  0.06287  1.0000
  S   S71       1.0  0.28925  0.37066  0.49354  1.0000
  N   N19       1.0  0.33486  0.37578  0.15848  1.0000
  C   C229      1.0  0.33372  0.36409  0.12708  1.0000
  C   C230      1.0  0.32658  0.36722  0.19158  1.0000
  C   C231      1.0  0.32352  0.34331  0.12796  1.0000
  C   C232      1.0  0.31611  0.34651  0.19339  1.0000
  C   C233      1.0  0.31452  0.33451  0.16126  1.0000
  C   C234      1.0  0.34572  0.39752  0.15690  1.0000
  H   H217      1.0  0.34055  0.37083  0.10096  1.0000
  H   H218      1.0  0.32752  0.37645  0.21658  1.0000
  H   H219      1.0  0.32243  0.33414  0.10275  1.0000
  H   H220      1.0  0.30902  0.33992  0.21942  1.0000
  H   H221      1.0  0.30629  0.31845  0.16208  1.0000
  H   H222      1.0  0.36202  0.40129  0.16022  1.0000
  H   H223      1.0  0.45072  0.27164  0.17013  1.0000
  H   H224      1.0  0.24324  0.37135  0.34545  1.0000
  S   S72       1.0  0.46760  0.13626  0.24430  1.0000
  H   H225      1.0  0.38835  0.17421  0.43779  1.0000
  C   C235      1.0  0.39685  0.12466  0.44222  1.0000
  C   C236      1.0  0.41199  0.30894  0.41864  1.0000
  H   H226      1.0  0.35560  0.15716  0.46267  1.0000
  H   H227      1.0  0.35587  0.40994  0.49113  1.0000
  H   H228      1.0  0.39257  0.26894  0.35811  1.0000
  H   H229      1.0  0.33435  0.38739  0.49051  1.0000
  H   H230      1.0  0.39685  0.12281  0.01635  1.0000
  S   S73       1.0  0.43364  0.11162  0.49013  1.0000
  H   H231      1.0  0.34622  0.13086  0.47039  1.0000
  C   C237      1.0  0.43303  0.26226  0.11882  1.0000
  C   C238      1.0  0.32756  0.31958  0.49281  1.0000
  H   H232      1.0  0.46493  0.32836  0.45785  1.0000
  S   S74       1.0  0.32371  0.34239  0.48865  1.0000
  C   C239      1.0  0.33380  0.32738  0.01673  1.0000
  H   H233      1.0  0.42226  0.17439  0.42933  1.0000
  H   H234      1.0  0.45017  0.25202  0.03554  1.0000
  H   H235      1.0  0.42005  0.26405  0.13055  1.0000
  S   S75       1.0  0.44444  0.29310  0.00702  1.0000
  C   C240      1.0  0.35293  0.32685  0.01317  1.0000
  H   H236      1.0  0.48162  0.26399  0.17831  1.0000
  C   C241      1.0  0.48526  0.27011  0.14951  1.0000
  H   H237      1.0  0.38758  0.32465  0.47442  1.0000
  H   H238      1.0  0.36757  0.28401  0.45745  1.0000
  C   C242      1.0  0.34031  0.99641  0.49908  1.0000
  S   S76       1.0  0.32178  0.46005  0.75237  1.0000
  S   S77       1.0  0.36940  0.47686  0.73272  1.0000
  Fe  Fe36      1.0  0.34014  0.46993  0.70028  1.0000
  S   S78       1.0  0.32418  0.44613  0.65457  1.0000
  Fe  Fe37      1.0  0.35061  0.46890  0.78508  1.0000
  S   S79       1.0  0.35309  0.44691  0.82867  1.0000
  Fe  Fe38      1.0  0.40838  0.08756  0.95791  1.0000
  Fe  Fe39      1.0  0.37914  0.07483  0.88832  1.0000
  S   S80       1.0  0.35263  0.06449  0.92654  1.0000
  S   S81       1.0  0.36788  0.07191  0.82660  1.0000
  Fe  Fe40      1.0  0.36921  0.09299  0.96019  1.0000
  C   C243      1.0  0.24074  0.48338  0.75535  1.0000
  Fe  Fe41      1.0  0.36970  0.05018  0.96148  1.0000
  H   H239      1.0  0.30912  0.00547  0.86837  1.0000
  S   S82       1.0  0.39446  0.10393  0.92031  1.0000
  S   S83       1.0  0.39567  0.05929  0.92170  1.0000
  Fe  Fe42      1.0  0.41474  0.27835  0.97425  1.0000
  C   C244      1.0  0.39250  0.16420  0.52789  1.0000
  Fe  Fe43      1.0  0.39541  0.27271  0.89284  1.0000
  S   S84       1.0  0.36840  0.24671  0.91080  1.0000
  S   S85       1.0  0.39772  0.28684  0.83430  1.0000
  Fe  Fe44      1.0  0.36985  0.26590  0.96281  1.0000
  C   C245      1.0  0.34884  0.39542  0.50555  1.0000
  Fe  Fe45      1.0  0.38965  0.23618  0.94315  1.0000
  S   S86       1.0  0.39478  0.20694  0.93657  1.0000
  S   S87       1.0  0.39594  0.29242  0.94348  1.0000
  S   S88       1.0  0.41669  0.26128  0.92175  1.0000
  C   C246      1.0  0.28673  0.45375  0.83918  1.0000
  Fe  Fe46      1.0  0.36847  0.08991  0.55165  1.0000
  S   S89       1.0  0.39997  0.10381  0.57304  1.0000
  S   S90       1.0  0.35074  0.10995  0.55441  1.0000
  Fe  Fe47      1.0  0.37209  0.04978  0.53346  1.0000
  S   S91       1.0  0.40438  0.06193  0.55433  1.0000
  H   H240      1.0  0.24013  0.48487  0.65584  1.0000
  Fe  Fe48      1.0  0.39368  0.07512  0.60354  1.0000
  S   S92       1.0  0.40686  0.07786  0.66376  1.0000
  H   H241      1.0  0.29310  0.45871  0.81184  1.0000
  S   S93       1.0  0.36133  0.06151  0.58488  1.0000
  C   C247      1.0  0.32818  0.38546  0.60272  1.0000
  H   H242      1.0  0.26034  0.43483  0.61043  1.0000
  Fe  Fe49      1.0  0.38993  0.25440  0.60605  1.0000
  S   S94       1.0  0.36478  0.23177  0.57118  1.0000
  S   S95       1.0  0.38668  0.24593  0.66883  1.0000
  Fe  Fe50      1.0  0.38870  0.22913  0.53474  1.0000
  H   H243      1.0  0.35417  0.17908  0.54546  1.0000
  Fe  Fe51      1.0  0.36597  0.25779  0.53529  1.0000
  N   N20       1.0  0.27371  0.46382  0.63774  1.0000
  S   S96       1.0  0.41393  0.25061  0.57047  1.0000
  S   S97       1.0  0.38934  0.28062  0.57224  1.0000
  S   S98       1.0  0.35585  0.11506  0.98115  1.0000
  S   S99       1.0  0.34081  0.26885  0.98016  1.0000
  H   H244      1.0  0.36841  0.10803  0.68564  1.0000
  H   H245      1.0  0.37824  0.00953  0.88923  1.0000
  H   H246      1.0  0.39838  0.18572  0.86631  1.0000
  S   S100      1.0  0.33778  0.26101  0.51189  1.0000
  C   C248      1.0  0.36332  0.13589  0.54705  1.0000
  H   H247      1.0  0.35818  0.38636  0.50251  1.0000
  H   H248      1.0  0.32964  0.33109  0.93545  1.0000
  C   C249      1.0  0.38205  0.17701  0.53073  1.0000
  C   C250      1.0  0.36244  0.16939  0.54351  1.0000
  C   C251      1.0  0.35308  0.14886  0.55149  1.0000
  N   N21       1.0  0.38774  0.12816  0.64710  1.0000
  H   H249      1.0  0.32213  0.29664  0.91095  1.0000
  C   C252      1.0  0.33454  0.28387  0.50381  1.0000
  H   H250      1.0  0.34727  0.46053  0.52290  1.0000
  H   H251      1.0  0.35334  0.30484  0.63671  1.0000
  H   H252      1.0  0.35832  0.10599  0.63765  1.0000
  H   H253      1.0  0.32573  0.21790  0.61785  1.0000
  C   C253      1.0  0.39535  0.27525  0.78856  1.0000
  C   C254      1.0  0.39926  0.28725  0.75624  1.0000
  C   C255      1.0  0.39719  0.27869  0.71943  1.0000
  C   C256      1.0  0.39099  0.25793  0.71445  1.0000
  C   C257      1.0  0.38697  0.24593  0.74675  1.0000
  C   C258      1.0  0.38921  0.25450  0.78353  1.0000
  H   H254      1.0  0.40411  0.30333  0.75974  1.0000
  H   H255      1.0  0.40042  0.28816  0.69498  1.0000
  H   H256      1.0  0.38212  0.22986  0.74332  1.0000
  H   H257      1.0  0.38613  0.24505  0.80800  1.0000
  H   H258      1.0  0.33717  0.03281  0.83943  1.0000
  H   H259      1.0  0.28259  0.48133  0.85076  1.0000
  C   C259      1.0  0.27050  0.46791  0.74480  1.0000
  C   C260      1.0  0.33102  0.22568  0.64564  1.0000
  H   H260      1.0  0.35321  0.10013  0.87062  1.0000
  C   C261      1.0  0.37917  0.07341  0.78181  1.0000
  C   C262      1.0  0.36690  0.06912  0.74891  1.0000
  C   C263      1.0  0.37503  0.07017  0.71264  1.0000
  C   C264      1.0  0.39564  0.07578  0.70878  1.0000
  C   C265      1.0  0.40791  0.08007  0.74171  1.0000
  C   C266      1.0  0.39976  0.07886  0.77803  1.0000
  H   H261      1.0  0.35093  0.06478  0.75148  1.0000
  H   H262      1.0  0.36530  0.06641  0.68777  1.0000
  H   H263      1.0  0.42387  0.08432  0.73912  1.0000
  H   H264      1.0  0.40943  0.08219  0.80299  1.0000
  C   C267      1.0  0.36739  0.14108  0.97202  1.0000
  C   C268      1.0  0.38631  0.14916  0.95626  1.0000
  C   C269      1.0  0.39462  0.16950  0.94697  1.0000
  C   C270      1.0  0.38423  0.18215  0.95338  1.0000
  C   C271      1.0  0.36551  0.17429  0.97010  1.0000
  S   S101      1.0  0.39295  0.20131  0.51225  1.0000
  H   H265      1.0  0.39454  0.13977  0.95084  1.0000
  C   C272      1.0  0.33949  0.40336  0.62182  1.0000
  C   C273      1.0  0.35715  0.15382  0.97941  1.0000
  H   H266      1.0  0.33308  0.28250  0.58447  1.0000
  H   H267      1.0  0.38327  0.11603  0.83210  1.0000
  H   H268      1.0  0.29455  0.41093  0.84638  1.0000
  H   H269      1.0  0.39131  0.13404  0.53231  1.0000
  C   C274      1.0  0.33911  0.44083  0.87075  1.0000
  C   C275      1.0  0.33575  0.42239  0.88796  1.0000
  C   C276      1.0  0.32419  0.41678  0.92071  1.0000
  C   C277      1.0  0.31618  0.42975  0.93706  1.0000
  C   C278      1.0  0.32013  0.44847  0.92053  1.0000
  C   C279      1.0  0.33126  0.45387  0.88729  1.0000
  H   H270      1.0  0.34188  0.41225  0.87557  1.0000
  H   H271      1.0  0.32134  0.40236  0.93311  1.0000
  H   H272      1.0  0.31423  0.45873  0.93317  1.0000
  H   H273      1.0  0.33392  0.46821  0.87469  1.0000
  C   C280      1.0  0.32353  0.44205  0.60480  1.0000
  C   C281      1.0  0.33714  0.45528  0.58047  1.0000
  C   C282      1.0  0.33654  0.45037  0.54149  1.0000
  C   C283      1.0  0.32236  0.43226  0.52650  1.0000
  C   C284      1.0  0.30849  0.41938  0.55081  1.0000
  C   C285      1.0  0.30910  0.42423  0.58960  1.0000
  H   H274      1.0  0.34832  0.46908  0.59169  1.0000
  C   C286      1.0  0.27290  0.46064  0.89674  1.0000
  H   H275      1.0  0.29727  0.40561  0.53981  1.0000
  H   H276      1.0  0.29846  0.41387  0.60806  1.0000
  H   H277      1.0  0.34400  0.22205  0.65508  1.0000
  C   C287      1.0  0.25580  0.46617  0.63817  1.0000
  C   C288      1.0  0.39751  0.16192  0.62560  1.0000
  C   C289      1.0  0.27075  0.44175  0.90958  1.0000
  H   H278      1.0  0.35575  0.33410  0.52273  1.0000
  C   C290      1.0  0.35811  0.14879  0.87862  1.0000
  H   H279      1.0  0.39346  0.17379  0.61412  1.0000
  H   H280      1.0  0.37015  0.30897  0.99930  1.0000
  C   C291      1.0  0.27505  0.44567  0.62117  1.0000
  C   C292      1.0  0.33858  0.29145  0.99538  1.0000
  S   S102      1.0  0.36098  0.01765  0.98045  1.0000
  C   C293      1.0  0.29163  0.42232  0.82899  1.0000
  H   H281      1.0  0.28083  0.43803  0.64279  1.0000
  H   H282      1.0  0.30604  0.43113  0.81558  1.0000
  H   H283      1.0  0.28547  0.44964  0.59716  1.0000
  C   C294      1.0  0.35409  0.41854  0.60259  1.0000
  H   H284      1.0  0.30471  0.47629  0.65309  1.0000
  S   S103      1.0  0.29978  0.42268  0.97586  1.0000
  H   H285      1.0  0.35732  0.18385  0.97516  1.0000
  C   C295      1.0  0.35693  0.41576  0.56422  1.0000
  Fe  Fe52      1.0  0.40753  0.08956  0.52194  1.0000
  C   C296      1.0  0.29059  0.47833  0.65306  1.0000
  C   C297      1.0  0.37084  0.31697  0.89053  1.0000
  C   C298      1.0  0.37560  0.33643  0.90492  1.0000
  C   C299      1.0  0.36068  0.34158  0.92098  1.0000
  H   H286      1.0  0.38252  0.31310  0.87794  1.0000
  H   H287      1.0  0.39081  0.34735  0.90390  1.0000
  H   H288      1.0  0.36417  0.35649  0.93294  1.0000
  C   C300      1.0  0.37603  0.12517  0.84499  1.0000
  C   C301      1.0  0.35012  0.12806  0.88367  1.0000
  C   C302      1.0  0.35911  0.11620  0.86658  1.0000
  C   C303      1.0  0.32150  0.99523  0.51054  1.0000
  N   N22       1.0  0.33705  0.24742  0.64292  1.0000
  C   C304      1.0  0.27533  0.48645  0.76326  1.0000
  H   H289      1.0  0.31890  0.21972  0.66628  1.0000
  Fe  Fe53      1.0  0.41104  0.27451  0.53314  1.0000
  N   N23       1.0  0.28493  0.43541  0.85228  1.0000
  C   C305      1.0  0.35370  0.28034  0.67058  1.0000
  H   H290      1.0  0.33751  0.28017  0.85157  1.0000
  N   N24       1.0  0.37471  0.15746  0.85733  1.0000
  C   C306      1.0  0.38376  0.14596  0.84084  1.0000
  S   S104      1.0  0.44023  0.10541  0.97891  1.0000
  H   H291      1.0  0.42919  0.17903  0.62407  1.0000
  H   H292      1.0  0.38444  0.18292  0.82208  1.0000
  C   C307      1.0  0.33944  0.99691  0.99433  1.0000
  H   H293      1.0  0.26525  0.43708  0.93768  1.0000
  H   H294      1.0  0.28023  0.41465  0.80660  1.0000
  C   C308      1.0  0.33734  0.27622  0.60927  1.0000
  C   C309      1.0  0.38327  0.17922  0.85255  1.0000
  H   H295      1.0  0.39714  0.15287  0.82462  1.0000
  H   H296      1.0  0.36047  0.27971  0.87088  1.0000
  S   S105      1.0  0.38864  0.25283  0.99699  1.0000
  C   C310      1.0  0.34125  0.32731  0.92234  1.0000
  Fe  Fe54      1.0  0.32515  0.49184  0.75966  1.0000
  H   H297      1.0  0.33742  0.12131  0.90177  1.0000
  H   H298      1.0  0.36257  0.28985  0.69362  1.0000
  H   H299      1.0  0.36783  0.42789  0.54914  1.0000
  H   H300      1.0  0.33769  0.14291  0.56013  1.0000
  H   H301      1.0  0.35157  0.25310  0.69727  1.0000
  C   C311      1.0  0.40735  0.13111  0.65385  1.0000
  H   H302      1.0  0.41136  0.11909  0.66473  1.0000
  H   H303      1.0  0.35130  0.15793  0.89280  1.0000
  H   H304      1.0  0.32335  0.24598  0.58825  1.0000
  H   H305      1.0  0.34254  0.14777  0.99179  1.0000
  C   C312      1.0  0.41756  0.16484  0.63113  1.0000
  H   H306      1.0  0.27544  0.41473  0.89743  1.0000
  C   C313      1.0  0.33709  0.30788  0.90839  1.0000
  H   H307      1.0  0.37411  0.18674  0.86596  1.0000
  H   H308      1.0  0.37707  0.09637  0.64819  1.0000
  N   N25       1.0  0.35182  0.30292  0.89288  1.0000
  C   C314      1.0  0.42256  0.14940  0.64555  1.0000
  H   H309      1.0  0.40914  0.17544  0.93423  1.0000
  H   H310      1.0  0.31662  0.37363  0.61721  1.0000
  C   C315      1.0  0.27662  0.42914  0.88662  1.0000
  H   H311      1.0  0.36713  0.14107  0.62877  1.0000
  C   C316      1.0  0.38321  0.14376  0.53597  1.0000
  H   H312      1.0  0.33866  0.27138  0.89904  1.0000
  H   H313      1.0  0.39546  0.30808  0.50288  1.0000
  H   H314      1.0  0.42799  0.14899  0.99489  1.0000
  C   C317      1.0  0.34686  0.28256  0.87776  1.0000
  C   C318      1.0  0.34752  0.25952  0.67242  1.0000
  H   H315      1.0  0.32269  0.36918  0.54966  1.0000
  N   N26       1.0  0.34558  0.39827  0.54560  1.0000
  C   C319      1.0  0.37206  0.10874  0.65520  1.0000
  H   H316      1.0  0.30637  0.27832  0.99444  1.0000
  H   H317      1.0  0.28193  0.46199  0.74006  1.0000
  H   H318      1.0  0.43811  0.15143  0.64982  1.0000
  H   H319      1.0  0.36253  0.43271  0.61697  1.0000
  C   C320      1.0  0.33156  0.38310  0.56445  1.0000
  H   H320      1.0  0.26868  0.47070  0.91447  1.0000
  C   C321      1.0  0.38269  0.14338  0.63390  1.0000
  H   H321      1.0  0.31892  0.01201  0.99310  1.0000
  C   C322      1.0  0.33176  0.25549  0.61172  1.0000
  C   C323      1.0  0.34858  0.28872  0.63869  1.0000
  C   C324      1.0  0.28079  0.46665  0.86117  1.0000
  C   C325      1.0  0.25087  0.45722  0.73139  1.0000
  H   H322      1.0  0.24728  0.44307  0.71640  1.0000
  C   C326      1.0  0.32423  0.00611  0.87249  1.0000
  C   C327      1.0  0.33998  0.02156  0.85601  1.0000
  H   H323      1.0  0.36184  0.30284  0.53228  1.0000
  S   S106      1.0  0.28443  0.36367  0.99151  1.0000
  C   C328      1.0  0.35950  0.02265  0.86155  1.0000
  H   H324      1.0  0.33661  0.40574  0.65117  1.0000
  S   S107      1.0  0.38361  0.07771  0.99924  1.0000
  H   H325      1.0  0.37188  0.03473  0.84933  1.0000
  C   C329      1.0  0.25451  0.48344  0.65423  1.0000
  C   C330      1.0  0.34853  0.30228  0.51710  1.0000
  C   C331      1.0  0.34499  0.31998  0.51179  1.0000
  C   C332      1.0  0.36305  0.00838  0.88350  1.0000
  S   S108      1.0  0.43575  0.30014  0.50484  1.0000
  H   H326      1.0  0.24226  0.45450  0.62697  1.0000
  H   H327      1.0  0.40771  0.16998  0.51817  1.0000
  S   S109      1.0  0.36247  0.01802  0.50732  1.0000
  H   H328      1.0  0.32002  0.00804  0.52438  1.0000
  C   C333      1.0  0.32062  0.99797  0.99775  1.0000
  C   C334      1.0  0.34693  0.99301  0.89924  1.0000
  C   C335      1.0  0.31943  0.29187  0.99962  1.0000
  H   H329      1.0  0.35439  0.92449  0.13805  1.0000
  Fe  Fe55      1.0  0.28556  0.87937  0.09354  1.0000
  S   S110      1.0  0.25955  0.88563  0.06928  1.0000
  S   S111      1.0  0.28505  0.86687  0.15306  1.0000
  H   H330      1.0  0.34421  0.84704  0.07291  1.0000
  Fe  Fe56      1.0  0.28297  0.90911  0.03459  1.0000
  N   N27       1.0  0.28901  0.95708  0.38216  1.0000
  S   S112      1.0  0.28347  0.85626  0.04828  1.0000
  S   S113      1.0  0.30888  0.90400  0.06179  1.0000
  Fe  Fe57      1.0  0.28376  0.90926  0.45141  1.0000
  S   S114      1.0  0.31202  0.90723  0.43120  1.0000
  Fe  Fe58      1.0  0.25819  0.86596  0.42364  1.0000
  C   C336      1.0  0.30393  0.98075  0.00729  1.0000
  S   S115      1.0  0.28554  0.86178  0.40223  1.0000
  Fe  Fe59      1.0  0.30021  0.87674  0.45726  1.0000
  Fe  Fe60      1.0  0.29419  0.89252  0.37822  1.0000
  S   S116      1.0  0.30601  0.90535  0.32046  1.0000
  S   S117      1.0  0.26635  0.89627  0.39724  1.0000
  H   H331      1.0  0.32178  0.86096  0.13517  1.0000
  H   H332      1.0  0.26063  0.95950  0.38647  1.0000
  H   H333      1.0  0.31802  0.84309  0.07572  1.0000
  C   C337      1.0  0.29861  0.89447  0.27425  1.0000
  C   C338      1.0  0.30360  0.90693  0.24259  1.0000
  C   C339      1.0  0.29889  0.89889  0.20537  1.0000
  C   C340      1.0  0.28957  0.87817  0.19929  1.0000
  C   C341      1.0  0.28452  0.86572  0.23094  1.0000
  C   C342      1.0  0.28880  0.87380  0.26816  1.0000
  H   H334      1.0  0.31121  0.92293  0.24687  1.0000
  H   H335      1.0  0.30284  0.90871  0.18144  1.0000
  H   H336      1.0  0.27740  0.84967  0.22669  1.0000
  H   H337      1.0  0.28498  0.86398  0.29210  1.0000
  C   C343      1.0  0.26723  0.94791  0.38537  1.0000
  C   C344      1.0  0.31961  0.95555  0.35999  1.0000
  H   H338      1.0  0.33177  0.85507  0.03557  1.0000
  H   H339      1.0  0.29188  0.98225  0.41754  1.0000
  H   H340      1.0  0.34660  0.98041  0.37664  1.0000
  Fe  Fe61      1.0  0.25846  0.86351  0.02284  1.0000
  H   H341      1.0  0.36710  0.92208  0.07389  1.0000
  C   C345      1.0  0.35149  0.88997  0.06938  1.0000
  H   H342      1.0  0.35697  0.88907  0.04131  1.0000
  C   C346      1.0  0.32035  0.98376  0.39819  1.0000
  H   H343      1.0  0.33173  0.89355  0.16871  1.0000
  S   S118      1.0  0.28409  0.94076  0.02362  1.0000
  C   C347      1.0  0.33752  0.89273  0.14089  1.0000
  C   C348      1.0  0.35025  0.91004  0.12371  1.0000
  N   N28       1.0  0.33864  0.87313  0.08613  1.0000
  C   C349      1.0  0.34192  0.97956  0.48128  1.0000
  C   C350      1.0  0.33291  0.85360  0.06672  1.0000
  C   C351      1.0  0.33189  0.87428  0.12165  1.0000
  H   H344      1.0  0.28597  0.82433  0.45749  1.0000
  H   H345      1.0  0.25015  0.84206  0.10930  1.0000
  H   H346      1.0  0.29052  0.93298  0.34847  1.0000
  C   C352      1.0  0.35738  0.90869  0.08776  1.0000
  H   H347      1.0  0.32723  0.94758  0.34447  1.0000
  H   H348      1.0  0.24992  0.81751  0.44664  1.0000
  C   C353      1.0  0.30622  0.96048  0.48666  1.0000
  C   C354      1.0  0.32502  0.96173  0.47505  1.0000
  H   H349      1.0  0.26018  0.93775  0.36079  1.0000
  S   S119      1.0  0.31946  0.86449  0.49263  1.0000
  H   H350      1.0  0.26340  0.93906  0.41159  1.0000
  S   S120      1.0  0.27255  0.87922  0.48012  1.0000
  C   C355      1.0  0.29952  0.97493  0.40044  1.0000
  H   H351      1.0  0.32661  0.94898  0.46133  1.0000
  C   C356      1.0  0.29879  0.94731  0.36242  1.0000
  S   S121      1.0  0.28451  0.93821  0.47987  1.0000
  H   H352      1.0  0.35640  0.98028  0.47233  1.0000
  C   C357      1.0  0.25558  0.81663  0.47490  1.0000
  C   C358      1.0  0.32462  0.96126  0.01003  1.0000
  Fe  Fe62      1.0  0.30391  0.88134  0.01421  1.0000
  H   H353      1.0  0.24603  0.81379  0.06476  1.0000
  C   C359      1.0  0.30577  0.96225  0.01332  1.0000
  C   C360      1.0  0.27576  0.82024  0.48088  1.0000
  C   C361      1.0  0.33043  0.97393  0.37793  1.0000
  H   H354      1.0  0.28946  0.98174  0.00993  1.0000
  C   C362      1.0  0.23736  0.82806  0.11124  1.0000
  H   H355      1.0  0.32634  0.94721  0.01461  1.0000
  C   C363      1.0  0.34130  0.97847  0.00074  1.0000
  C   C364      1.0  0.36101  0.77041  0.66084  1.0000
  N   N29       1.0  0.35178  0.76046  0.69546  1.0000
  S   S122      1.0  0.27906  0.88748  0.98583  1.0000
  S   S123      1.0  0.39360  0.54035  0.74107  1.0000
  S   S124      1.0  0.32964  0.88151  0.97807  1.0000
  H   H356      1.0  0.27716  0.82662  0.81189  1.0000
  Fe  Fe63      1.0  0.35865  0.81656  0.72769  1.0000
  S   S125      1.0  0.35192  0.84259  0.75171  1.0000
  S   S126      1.0  0.38783  0.81377  0.70886  1.0000
  Fe  Fe64      1.0  0.31385  0.79016  0.71620  1.0000
  S   S127      1.0  0.30430  0.81398  0.73901  1.0000
  S   S128      1.0  0.29133  0.76185  0.68858  1.0000
  Fe  Fe65      1.0  0.32854  0.83545  0.70446  1.0000
  S   S129      1.0  0.31900  0.85775  0.67259  1.0000
  Fe  Fe66      1.0  0.32795  0.81898  0.78434  1.0000
  S   S130      1.0  0.31544  0.81760  0.84349  1.0000
  S   S131      1.0  0.33666  0.81126  0.67853  1.0000
  S   S132      1.0  0.33609  0.79340  0.76335  1.0000
  H   H357      1.0  0.35548  0.76021  0.63580  1.0000
  C   C365      1.0  0.25041  0.81100  0.54172  1.0000
  N   N30       1.0  0.34328  0.95819  0.56329  1.0000
  C   C366      1.0  0.45628  0.57407  0.82677  1.0000
  C   C367      1.0  0.44599  0.53838  0.81696  1.0000
  H   H358      1.0  0.31591  0.96713  0.93060  1.0000
  H   H359      1.0  0.30216  0.96522  0.88680  1.0000
  H   H360      1.0  0.36396  0.92904  0.51929  1.0000
  H   H361      1.0  0.26205  0.72493  0.80322  1.0000
  C   C368      1.0  0.28793  0.86933  0.88603  1.0000
  C   C369      1.0  0.33176  0.74903  0.69500  1.0000
  H   H362      1.0  0.36281  0.75703  0.78790  1.0000
  N   N31       1.0  0.27021  0.81437  0.54727  1.0000
  H   H363      1.0  0.40588  0.55035  0.82849  1.0000
  C   C370      1.0  0.41065  0.51596  0.81554  1.0000
  H   H364      1.0  0.27066  0.51130  0.68419  1.0000
  C   C371      1.0  0.32563  0.86380  0.94055  1.0000
  C   C372      1.0  0.30965  0.84526  0.94070  1.0000
  C   C373      1.0  0.30710  0.83123  0.91108  1.0000
  C   C374      1.0  0.32016  0.83571  0.88055  1.0000
  C   C375      1.0  0.33610  0.85431  0.88023  1.0000
  C   C376      1.0  0.33893  0.86820  0.91037  1.0000
  H   H365      1.0  0.29937  0.84163  0.96383  1.0000
  H   H366      1.0  0.29477  0.81685  0.91163  1.0000
  H   H367      1.0  0.34640  0.85786  0.85713  1.0000
  H   H368      1.0  0.35145  0.88244  0.91024  1.0000
  C   C377      1.0  0.31902  0.85920  0.62250  1.0000
  C   C378      1.0  0.30770  0.86878  0.60443  1.0000
  C   C379      1.0  0.30747  0.87033  0.56471  1.0000
  C   C380      1.0  0.31903  0.86280  0.54272  1.0000
  C   C381      1.0  0.33038  0.85328  0.56080  1.0000
  C   C382      1.0  0.33022  0.85129  0.60041  1.0000
  H   H369      1.0  0.29896  0.87491  0.62128  1.0000
  H   H370      1.0  0.29846  0.87746  0.55123  1.0000
  H   H371      1.0  0.33938  0.84741  0.54407  1.0000
  H   H372      1.0  0.33911  0.84401  0.61393  1.0000
  C   C383      1.0  0.41236  0.81915  0.72807  1.0000
  C   C384      1.0  0.41864  0.82828  0.76368  1.0000
  C   C385      1.0  0.43832  0.83237  0.77729  1.0000
  C   C386      1.0  0.45197  0.82732  0.75568  1.0000
  C   C387      1.0  0.44565  0.81806  0.72017  1.0000
  C   C388      1.0  0.42601  0.81406  0.70649  1.0000
  H   H373      1.0  0.40839  0.83229  0.78069  1.0000
  H   H374      1.0  0.44299  0.83952  0.80482  1.0000
  H   H375      1.0  0.45592  0.81409  0.70313  1.0000
  H   H376      1.0  0.42137  0.80701  0.67888  1.0000
  C   C389      1.0  0.27275  0.74339  0.71450  1.0000
  C   C390      1.0  0.25655  0.72889  0.69484  1.0000
  H   H377      1.0  0.29904  0.85198  0.76855  1.0000
  C   C391      1.0  0.27446  0.74213  0.75380  1.0000
  H   H378      1.0  0.25513  0.72973  0.66445  1.0000
  C   C392      1.0  0.31092  0.97572  0.90965  1.0000
  H   H379      1.0  0.28688  0.75320  0.76925  1.0000
  C   C393      1.0  0.41953  0.55525  0.73540  1.0000
  C   C394      1.0  0.42620  0.57621  0.74030  1.0000
  C   C395      1.0  0.44673  0.58858  0.73933  1.0000
  C   C396      1.0  0.46097  0.58015  0.73329  1.0000
  C   C397      1.0  0.45426  0.55924  0.72732  1.0000
  C   C398      1.0  0.43373  0.54687  0.72840  1.0000
  H   H380      1.0  0.41540  0.58292  0.74562  1.0000
  H   H381      1.0  0.45156  0.60458  0.74396  1.0000
  H   H382      1.0  0.46508  0.55253  0.72239  1.0000
  H   H383      1.0  0.42894  0.53085  0.72424  1.0000
  S   S133      1.0  0.30002  0.50086  0.77834  1.0000
  H   H384      1.0  0.31944  0.85304  0.79976  1.0000
  C   C399      1.0  0.35401  0.75439  0.76178  1.0000
  Fe  Fe67      1.0  0.36963  0.50820  0.74144  1.0000
  H   H385      1.0  0.26284  0.84898  0.91596  1.0000
  C   C400      1.0  0.29967  0.87184  0.85400  1.0000
  S   S134      1.0  0.35294  0.50036  0.79611  1.0000
  N   N32       1.0  0.42643  0.53592  0.82107  1.0000
  C   C401      1.0  0.33363  0.74252  0.76143  1.0000
  C   C402      1.0  0.48409  0.86720  0.70032  1.0000
  H   H386      1.0  0.32842  0.90584  0.51572  1.0000
  C   C403      1.0  0.24421  0.71154  0.75323  1.0000
  H   H387      1.0  0.30104  0.98177  0.92486  1.0000
  H   H388      1.0  0.32641  0.73580  0.78726  1.0000
  H   H389      1.0  0.35745  0.78393  0.65667  1.0000
  C   C404      1.0  0.47734  0.65602  0.62904  1.0000
  C   C405      1.0  0.33258  0.92047  0.52933  1.0000
  C   C406      1.0  0.30802  0.85954  0.79418  1.0000
  N   N33       1.0  0.32783  0.99209  0.89378  1.0000
  H   H390      1.0  0.33673  0.98352  0.58030  1.0000
  C   C407      1.0  0.28283  0.81891  0.51740  1.0000
  C   C408      1.0  0.26034  0.49398  0.76913  1.0000
  H   H391      1.0  0.35577  0.97746  0.99835  1.0000
  H   H392      1.0  0.46805  0.85901  0.70028  1.0000
  H   H393      1.0  0.29174  0.88108  0.90764  1.0000
  H   H394      1.0  0.31217  0.94985  0.57339  1.0000
  H   H395      1.0  0.32275  0.74733  0.66933  1.0000
  C   C409      1.0  0.46120  0.55746  0.81983  1.0000
  H   H396      1.0  0.30647  0.73094  0.72731  1.0000
  C   C410      1.0  0.27181  0.85126  0.89078  1.0000
  C   C411      1.0  0.32242  0.73976  0.72784  1.0000
  H   H397      1.0  0.48607  0.72697  0.78343  1.0000
  C   C412      1.0  0.32367  0.94531  0.56204  1.0000
  H   H398      1.0  0.37756  0.77540  0.66245  1.0000
  C   C413      1.0  0.36289  0.76335  0.72835  1.0000
  H   H399      1.0  0.39682  0.51479  0.83026  1.0000
  C   C414      1.0  0.43630  0.57143  0.83078  1.0000
  C   C415      1.0  0.24277  0.81197  0.50543  1.0000
  S   S135      1.0  0.34144  0.50157  0.70559  1.0000
  C   C416      1.0  0.47796  0.67368  0.64663  1.0000
  H   H400      1.0  0.29857  0.82179  0.52160  1.0000
  H   H401      1.0  0.46788  0.58901  0.82736  1.0000
  H   H402      1.0  0.25573  0.82154  0.86780  1.0000
  N   N34       1.0  0.29531  0.85686  0.82716  1.0000
  S   S136      1.0  0.47694  0.83400  0.77362  1.0000
  C   C417      1.0  0.27985  0.83890  0.83204  1.0000
  H   H403      1.0  0.31256  0.88568  0.85126  1.0000
  H   H404      1.0  0.48455  0.89832  0.76604  1.0000
  C   C418      1.0  0.24218  0.71319  0.71415  1.0000
  H   H405      1.0  0.24041  0.80752  0.56539  1.0000
  H   H406      1.0  0.41539  0.50413  0.82688  1.0000
  C   C419      1.0  0.42145  0.55215  0.82749  1.0000
  C   C420      1.0  0.26778  0.83589  0.86372  1.0000
  C   C421      1.0  0.35256  0.93355  0.53125  1.0000
  C   C422      1.0  0.26037  0.72610  0.77298  1.0000
  H   H407      1.0  0.46453  0.64214  0.63241  1.0000
  H   H408      1.0  0.46568  0.67364  0.66385  1.0000
  H   H409      1.0  0.29010  0.97656  0.51354  1.0000
  H   H410      1.0  0.26855  0.79960  0.59964  1.0000
  H   H411      1.0  0.31579  0.87559  0.78745  1.0000
  H   H412      1.0  0.37865  0.77292  0.72907  1.0000
  H   H413      1.0  0.26401  0.50830  0.78353  1.0000
  H   H414      1.0  0.43225  0.58433  0.83461  1.0000
  H   H415      1.0  0.29348  0.81429  0.58583  1.0000
  C   C423      1.0  0.35770  0.95247  0.54852  1.0000
  C   C424      1.0  0.48231  0.88231  0.76233  1.0000
  H   H416      1.0  0.47664  0.55953  0.81505  1.0000
  H   H417      1.0  0.37325  0.96263  0.54972  1.0000
  H   H418      1.0  0.30303  0.50692  0.68293  1.0000
  H   H419      1.0  0.46602  0.87341  0.75857  1.0000
  H   H420      1.0  0.40693  0.51296  0.78485  1.0000
  C   C425      1.0  0.27789  0.81369  0.58572  1.0000
  H   H421      1.0  0.27790  0.82671  0.60288  1.0000
  H   H422      1.0  0.30237  0.91643  0.54273  1.0000
  C   C426      1.0  0.31801  0.92634  0.54476  1.0000
  H   H423      1.0  0.44988  0.52564  0.81024  1.0000
  C   C427      1.0  0.27161  0.49823  0.67020  1.0000
  H   H424      1.0  0.34994  0.98230  0.91705  1.0000
  C   C428      1.0  0.28979  0.49573  0.66959  1.0000
  H   H425      1.0  0.35313  0.97707  0.61213  1.0000
  C   C429      1.0  0.34905  0.97791  0.58197  1.0000
  C   C430      1.0  0.30457  0.97734  0.50438  1.0000
  H   H426      1.0  0.36198  0.98926  0.56785  1.0000
  C   C431      1.0  0.49822  0.37448  0.19055  1.0000
  S   S137      1.0  0.51127  0.15900  0.20505  1.0000
  C   C432      1.0  0.66088  0.20251  0.25382  1.0000
  S   S138      1.0  0.72497  0.13792  0.15579  1.0000
  S   S139      1.0  0.50776  0.15299  0.29817  1.0000
  H   H427      1.0  0.70563  0.22464  0.21193  1.0000
  C   C433      1.0  0.67459  0.06430  0.44736  1.0000
  H   H428      1.0  0.63462  0.47208  0.16919  1.0000
  Fe  Fe68      1.0  0.52393  0.14481  0.25054  1.0000
  S   S140      1.0  0.55640  0.15092  0.26972  1.0000
  C   C434      1.0  0.68977  0.21593  0.21476  1.0000
  Fe  Fe69      1.0  0.66575  0.14490  0.23071  1.0000
  S   S141      1.0  0.67805  0.12042  0.22622  1.0000
  S   S142      1.0  0.63423  0.13960  0.20732  1.0000
  Fe  Fe70      1.0  0.70610  0.17587  0.25722  1.0000
  S   S143      1.0  0.72107  0.15399  0.25499  1.0000
  Fe  Fe71      1.0  0.70467  0.14335  0.19933  1.0000
  H   H429      1.0  0.73503  0.00021  0.04091  1.0000
  Fe  Fe72      1.0  0.69374  0.13253  0.28225  1.0000
  S   S144      1.0  0.69984  0.11081  0.32233  1.0000
  S   S145      1.0  0.69165  0.16709  0.19956  1.0000
  S   S146      1.0  0.67950  0.15531  0.28890  1.0000
  H   H430      1.0  0.69181  0.04960  0.47472  1.0000
  C   C435      1.0  0.68693  0.05336  0.44774  1.0000
  Fe  Fe73      1.0  0.65722  0.46934  0.24504  1.0000
  C   C436      1.0  0.50094  0.08191  0.32112  1.0000
  S   S147      1.0  0.63076  0.44105  0.22311  1.0000
  H   H431      1.0  0.71786  0.04242  0.43813  1.0000
  S   S148      1.0  0.68445  0.47695  0.20843  1.0000
  S   S149      1.0  0.67540  0.47570  0.29976  1.0000
  Fe  Fe74      1.0  0.51415  0.30366  0.23457  1.0000
  H   H432      1.0  0.68400  0.11239  0.03887  1.0000
  S   S150      1.0  0.52617  0.28123  0.21122  1.0000
  Fe  Fe75      1.0  0.52427  0.34631  0.26421  1.0000
  H   H433      1.0  0.72336  0.09697  0.37142  1.0000
  S   S151      1.0  0.54750  0.37732  0.28269  1.0000
  H   H434      1.0  0.67034  0.06931  0.47373  1.0000
  C   C437      1.0  0.52397  0.37627  0.14664  1.0000
  H   H435      1.0  0.69801  0.46409  0.07951  1.0000
  H   H436      1.0  0.49418  0.05945  0.27651  1.0000
  S   S152      1.0  0.52233  0.31773  0.29266  1.0000
  S   S153      1.0  0.51843  0.33257  0.20532  1.0000
  S   S154      1.0  0.49151  0.34013  0.27405  1.0000
  H   H437      1.0  0.68936  0.12584  0.10522  1.0000
  C   C438      1.0  0.50531  0.07301  0.28890  1.0000
  C   C439      1.0  0.53985  0.27813  0.31857  1.0000
  C   C440      1.0  0.48906  0.25059  0.35702  1.0000
  Fe  Fe76      1.0  0.70240  0.48542  0.26294  1.0000
  C   C441      1.0  0.53199  0.39496  0.20581  1.0000
  C   C442      1.0  0.52091  0.24246  0.32967  1.0000
  C   C443      1.0  0.60815  0.42310  0.24138  1.0000
  C   C444      1.0  0.59739  0.40562  0.21968  1.0000
  C   C445      1.0  0.57920  0.39121  0.23224  1.0000
  C   C446      1.0  0.57124  0.39417  0.26656  1.0000
  C   C447      1.0  0.58192  0.41168  0.28814  1.0000
  C   C448      1.0  0.60027  0.42595  0.27586  1.0000
  H   H438      1.0  0.60329  0.40314  0.19304  1.0000
  H   H439      1.0  0.57132  0.37784  0.21529  1.0000
  H   H440      1.0  0.57599  0.41424  0.31470  1.0000
  H   H441      1.0  0.60821  0.43925  0.29294  1.0000
  S   S155      1.0  0.72791  0.47745  0.28486  1.0000
  C   C449      1.0  0.72043  0.12997  0.10779  1.0000
  H   H442      1.0  0.55391  0.39529  0.16496  1.0000
  H   H443      1.0  0.73368  0.99421  0.47232  1.0000
  C   C450      1.0  0.71436  0.11459  0.03258  1.0000
  C   C451      1.0  0.69862  0.11684  0.05237  1.0000
  C   C452      1.0  0.70162  0.12449  0.08993  1.0000
  C   C453      1.0  0.53766  0.09996  0.28765  1.0000
  H   H444      1.0  0.65404  0.20090  0.28127  1.0000
  C   C454      1.0  0.70408  0.11352  0.37185  1.0000
  C   C455      1.0  0.69421  0.12258  0.39475  1.0000
  C   C456      1.0  0.69535  0.12142  0.43443  1.0000
  C   C457      1.0  0.70656  0.11146  0.45147  1.0000
  C   C458      1.0  0.72360  0.99577  0.01874  1.0000
  C   C459      1.0  0.71582  0.10415  0.38899  1.0000
  H   H445      1.0  0.68494  0.12963  0.38185  1.0000
  H   H446      1.0  0.68709  0.12785  0.45193  1.0000
  C   C460      1.0  0.50636  0.26598  0.34501  1.0000
  H   H447      1.0  0.54333  0.12278  0.33076  1.0000
  C   C461      1.0  0.57761  0.14709  0.25183  1.0000
  C   C462      1.0  0.59462  0.15143  0.27570  1.0000
  C   C463      1.0  0.61186  0.14874  0.26304  1.0000
  C   C464      1.0  0.61240  0.14183  0.22606  1.0000
  C   C465      1.0  0.59537  0.13739  0.20228  1.0000
  C   C466      1.0  0.57805  0.13989  0.21507  1.0000
  H   H448      1.0  0.59446  0.15695  0.30424  1.0000
  H   H449      1.0  0.62478  0.15221  0.28174  1.0000
  H   H450      1.0  0.59557  0.13205  0.17361  1.0000
  H   H451      1.0  0.56514  0.13647  0.19633  1.0000
  C   C467      1.0  0.51444  0.25608  0.22498  1.0000
  C   C468      1.0  0.52271  0.24199  0.21518  1.0000
  C   C469      1.0  0.51374  0.22197  0.22672  1.0000
  H   H452      1.0  0.52725  0.07567  0.24662  1.0000
  H   H453      1.0  0.69962  0.08767  0.12338  1.0000
  H   H454      1.0  0.49578  0.26373  0.13778  1.0000
  H   H455      1.0  0.53621  0.24660  0.19900  1.0000
  H   H456      1.0  0.52038  0.21127  0.21971  1.0000
  S   S156      1.0  0.72353  0.20777  0.27818  1.0000
  H   H457      1.0  0.49126  0.38267  0.25939  1.0000
  C   C470      1.0  0.70590  0.03624  0.41591  1.0000
  C   C471      1.0  0.70243  0.04995  0.01897  1.0000
  C   C472      1.0  0.50384  0.36883  0.15596  1.0000
  C   C473      1.0  0.73619  0.12811  0.08760  1.0000
  H   H458      1.0  0.53290  0.23899  0.31750  1.0000
  N   N35       1.0  0.52210  0.26183  0.33201  1.0000
  C   C474      1.0  0.49702  0.24998  0.24590  1.0000
  H   H459      1.0  0.67073  0.06839  0.35214  1.0000
  H   H460      1.0  0.64656  0.44700  0.14946  1.0000
  H   H461      1.0  0.54313  0.40517  0.22522  1.0000
  H   H462      1.0  0.67371  0.43920  0.12085  1.0000
  N   N36       1.0  0.69315  0.04790  0.41461  1.0000
  H   H463      1.0  0.71345  0.03659  0.38870  1.0000
  C   C475      1.0  0.65685  0.45777  0.13094  1.0000
  N   N37       1.0  0.51462  0.09943  0.33615  1.0000
  C   C476      1.0  0.63970  0.48074  0.14298  1.0000
  H   H464      1.0  0.53721  0.28158  0.28894  1.0000
  H   H465      1.0  0.69680  0.02038  0.42241  1.0000
  C   C477      1.0  0.53273  0.10854  0.31969  1.0000
  H   H466      1.0  0.54337  0.29190  0.33639  1.0000
  H   H467      1.0  0.69201  0.04854  0.35421  1.0000
  C   C478      1.0  0.66813  0.48922  0.10091  1.0000
  H   H468      1.0  0.49262  0.35849  0.13683  1.0000
  H   H469      1.0  0.72584  0.09551  0.44134  1.0000
  H   H470      1.0  0.63395  0.18323  0.22515  1.0000
  H   H471      1.0  0.65963  0.07872  0.41210  1.0000
  C   C479      1.0  0.71919  0.99418  0.47948  1.0000
  C   C480      1.0  0.71719  0.10324  0.42862  1.0000
  C   C481      1.0  0.67219  0.45325  0.11476  1.0000
  H   H472      1.0  0.68647  0.07025  0.06208  1.0000
  C   C482      1.0  0.73601  0.07026  0.10416  1.0000
  S   S157      1.0  0.49947  0.11426  0.24213  1.0000
  C   C483      1.0  0.53817  0.38948  0.17165  1.0000
  H   H473      1.0  0.52854  0.37171  0.12020  1.0000
  C   C484      1.0  0.66857  0.06959  0.41280  1.0000
  C   C485      1.0  0.71785  0.01169  0.49497  1.0000
  C   C486      1.0  0.67480  0.06377  0.37914  1.0000
  H   H474      1.0  0.55190  0.10748  0.27430  1.0000
  N   N38       1.0  0.71057  0.06044  0.05496  1.0000
  C   C487      1.0  0.73320  0.12048  0.05026  1.0000
  H   H475      1.0  0.63047  0.17511  0.16075  1.0000
  H   H476      1.0  0.50579  0.12192  0.35907  1.0000
  N   N39       1.0  0.65826  0.19397  0.18746  1.0000
  H   H477      1.0  0.50284  0.21135  0.33906  1.0000
  C   C488      1.0  0.67806  0.20559  0.18353  1.0000
  C   C489      1.0  0.68580  0.46720  0.09163  1.0000
  H   H478      1.0  0.50698  0.28124  0.34584  1.0000
  C   C490      1.0  0.70024  0.06990  0.07403  1.0000
  C   C491      1.0  0.64667  0.18239  0.15471  1.0000
  H   H479      1.0  0.55321  0.27410  0.31939  1.0000
  H   H480      1.0  0.68505  0.20643  0.15638  1.0000
  C   C492      1.0  0.68369  0.48526  0.08438  1.0000
  C   C493      1.0  0.64960  0.19247  0.22197  1.0000
  C   C494      1.0  0.68708  0.05278  0.38055  1.0000
  H   H481      1.0  0.52232  0.11486  0.38950  1.0000
  C   C495      1.0  0.50959  0.10920  0.36880  1.0000
  H   H482      1.0  0.65191  0.17019  0.14738  1.0000
  N   N40       1.0  0.51229  0.38719  0.21518  1.0000
  C   C496      1.0  0.68110  0.21428  0.25011  1.0000
  H   H483      1.0  0.64829  0.19218  0.13001  1.0000
  H   H484      1.0  0.69019  0.22182  0.27470  1.0000
  N   N41       1.0  0.65537  0.47584  0.12480  1.0000
  H   H485      1.0  0.50605  0.40850  0.24890  1.0000
  H   H486      1.0  0.62672  0.47746  0.12324  1.0000
  C   C497      1.0  0.52381  0.08213  0.27212  1.0000
  C   C498      1.0  0.49630  0.21596  0.24770  1.0000
  C   C499      1.0  0.70761  0.07982  0.10864  1.0000
  H   H487      1.0  0.69151  0.03460  0.02428  1.0000
  H   H488      1.0  0.73510  0.48244  0.20400  1.0000
  C   C500      1.0  0.50627  0.39326  0.25114  1.0000
  C   C501      1.0  0.50392  0.22673  0.34183  1.0000
  C   C502      1.0  0.72578  0.08030  0.12339  1.0000
  H   H489      1.0  0.73596  0.05222  0.05532  1.0000
  H   H490      1.0  0.51691  0.39337  0.27436  1.0000
  H   H491      1.0  0.73197  0.08867  0.14947  1.0000
  H   H492      1.0  0.71443  0.04870  0.00123  1.0000
  H   H493      1.0  0.69509  0.05830  0.00219  1.0000
  H   H494      1.0  0.49059  0.26063  0.25409  1.0000
  H   H495      1.0  0.72471  0.16159  0.48289  1.0000
  C   C503      1.0  0.72797  0.06007  0.07006  1.0000
  Fe  Fe77      1.0  0.49389  0.16527  0.25252  1.0000
  H   H496      1.0  0.49640  0.09877  0.38370  1.0000
  H   H497      1.0  0.49311  0.28663  0.15205  1.0000
  C   C504      1.0  0.68176  0.99389  0.49728  1.0000
  Fe  Fe78      1.0  0.48937  0.31070  0.29835  1.0000
  C   C505      1.0  0.48785  0.22998  0.25669  1.0000
  C   C506      1.0  0.48788  0.23085  0.35545  1.0000
  H   H498      1.0  0.48641  0.31750  0.12181  1.0000
  H   H499      1.0  0.48633  0.07497  0.33343  1.0000
  C   C507      1.0  0.70958  0.00324  0.96119  1.0000
  C   C508      1.0  0.71155  0.09766  0.83769  1.0000
  S   S158      1.0  0.71446  0.06444  0.55543  1.0000
  N   N42       1.0  0.72134  0.11690  0.85787  1.0000
  H   H500      1.0  0.69761  0.02458  0.51603  1.0000
  H   H501      1.0  0.71032  0.04990  0.73951  1.0000
  H   H502      1.0  0.71006  0.01330  0.93850  1.0000
  H   H503      1.0  0.71784  0.08678  0.84812  1.0000
  H   H504      1.0  0.69516  0.09152  0.84187  1.0000
  H   H505      1.0  0.71401  0.09921  0.80671  1.0000
  C   C509      1.0  0.71441  0.11999  0.89219  1.0000
  H   H506      1.0  0.69989  0.02464  0.62679  1.0000
  S   S159      1.0  0.71001  0.10363  0.98650  1.0000
  S   S160      1.0  0.72073  0.06475  0.66443  1.0000
  C   C510      1.0  0.73540  0.02327  0.61018  1.0000
  C   C511      1.0  0.72365  0.06342  0.74225  1.0000
  C   C512      1.0  0.73218  0.07388  0.70952  1.0000
  N   N43       1.0  0.71553  0.00807  0.60124  1.0000
  Fe  Fe79      1.0  0.73337  0.07805  0.60773  1.0000
  H   H507      1.0  0.72561  0.06191  0.80329  1.0000
  C   C513      1.0  0.69871  0.01096  0.61188  1.0000
  C   C514      1.0  0.73226  0.07024  0.77851  1.0000
  S   S161      1.0  0.72780  0.06947  0.92154  1.0000
  Fe  Fe80      1.0  0.72589  0.09539  0.53166  1.0000
  H   H508      1.0  0.70165  0.10839  0.90446  1.0000
  C   C515      1.0  0.72446  0.00924  0.98968  1.0000
  Fe  Fe81      1.0  0.73497  0.09605  0.96139  1.0000
  H   H509      1.0  0.71865  0.14014  0.94017  1.0000
  C   C516      1.0  0.72399  0.13797  0.91258  1.0000
  H   H510      1.0  0.66728  0.99383  0.50453  1.0000
  C   C517      1.0  0.69898  0.01140  0.50383  1.0000
  S   S162      1.0  0.70638  0.10903  0.50118  1.0000
  C   C518      1.0  0.67973  0.99640  0.60340  1.0000
  H   H511      1.0  0.73458  0.03655  0.62525  1.0000
  H   H512      1.0  0.66642  0.99885  0.61137  1.0000
  S   S163      1.0  0.70628  0.51777  0.26096  1.0000
  S   S164      1.0  0.68652  0.52855  0.15866  1.0000
  Fe  Fe82      1.0  0.67843  0.50778  0.29492  1.0000
  S   S165      1.0  0.67700  0.52920  0.34191  1.0000
  Fe  Fe83      1.0  0.65785  0.87696  0.05393  1.0000
  S   S166      1.0  0.62867  0.87132  0.08228  1.0000
  S   S167      1.0  0.67355  0.85516  0.06165  1.0000
  Fe  Fe84      1.0  0.66181  0.91881  0.02621  1.0000
  S   S168      1.0  0.63291  0.91544  0.05317  1.0000
  S   S169      1.0  0.64062  0.76457  0.00091  1.0000
  Fe  Fe85      1.0  0.64355  0.90316  0.10382  1.0000
  S   S170      1.0  0.64209  0.91659  0.16230  1.0000
  C   C519      1.0  0.71434  0.91624  0.01569  1.0000
  S   S171      1.0  0.67334  0.90841  0.07812  1.0000
  H   H513      1.0  0.68647  0.55506  0.09917  1.0000
  Fe  Fe86      1.0  0.61681  0.69307  0.02763  1.0000
  Fe  Fe87      1.0  0.63537  0.71434  0.10433  1.0000
  S   S172      1.0  0.66347  0.73402  0.07599  1.0000
  S   S173      1.0  0.62864  0.72284  0.16378  1.0000
  Fe  Fe88      1.0  0.64353  0.73769  0.02968  1.0000
  N   N44       1.0  0.69065  0.62626  0.05797  1.0000
  Fe  Fe89      1.0  0.66112  0.70563  0.04419  1.0000
  C   C520      1.0  0.66501  0.57126  0.45344  1.0000
  S   S174      1.0  0.61562  0.71962  0.05937  1.0000
  S   S175      1.0  0.63399  0.68573  0.07536  1.0000
  Fe  Fe90      1.0  0.61372  0.88373  0.46917  1.0000
  H   H514      1.0  0.70632  0.51299  0.45761  1.0000
  Fe  Fe91      1.0  0.63385  0.89194  0.38953  1.0000
  S   S176      1.0  0.66461  0.90571  0.41690  1.0000
  S   S177      1.0  0.62829  0.87955  0.32817  1.0000
  Fe  Fe92      1.0  0.65371  0.87981  0.45693  1.0000
  H   H515      1.0  0.73023  0.68019  0.45733  1.0000
  Fe  Fe93      1.0  0.65107  0.92141  0.45736  1.0000
  C   C521      1.0  0.68731  0.65399  0.09141  1.0000
  S   S178      1.0  0.62387  0.86571  0.42844  1.0000
  S   S179      1.0  0.62054  0.90882  0.42768  1.0000
  H   H516      1.0  0.71081  0.57376  0.44854  1.0000
  N   N45       1.0  0.64881  0.78160  0.14096  1.0000
  Fe  Fe94      1.0  0.61250  0.69330  0.46311  1.0000
  H   H517      1.0  0.71415  0.64797  0.09074  1.0000
  Fe  Fe95      1.0  0.63677  0.70650  0.38923  1.0000
  S   S180      1.0  0.66012  0.73306  0.41938  1.0000
  S   S181      1.0  0.64277  0.69634  0.33064  1.0000
  Fe  Fe96      1.0  0.65787  0.71164  0.46684  1.0000
  H   H518      1.0  0.58913  0.87262  0.19501  1.0000
  Fe  Fe97      1.0  0.63401  0.73762  0.44619  1.0000
  S   S182      1.0  0.62534  0.76487  0.45002  1.0000
  S   S183      1.0  0.63614  0.68508  0.43548  1.0000
  S   S184      1.0  0.61063  0.71190  0.41355  1.0000
  H   H519      1.0  0.70758  0.71495  0.42433  1.0000
  H   H520      1.0  0.66473  0.66976  0.46207  1.0000
  S   S185      1.0  0.58734  0.67247  0.00014  1.0000
  H   H521      1.0  0.69616  0.60440  0.02326  1.0000
  H   H522      1.0  0.69397  0.66774  0.10816  1.0000
  C   C522      1.0  0.65799  0.83300  0.46682  1.0000
  C   C523      1.0  0.63715  0.82408  0.46405  1.0000
  C   C524      1.0  0.62752  0.80317  0.46043  1.0000
  C   C525      1.0  0.63853  0.79082  0.45936  1.0000
  C   C526      1.0  0.65939  0.79961  0.46304  1.0000
  H   H523      1.0  0.66673  0.50340  0.09549  1.0000
  H   H524      1.0  0.62839  0.83325  0.46457  1.0000
  H   H525      1.0  0.61140  0.79652  0.45758  1.0000
  C   C527      1.0  0.65939  0.63077  0.05515  1.0000
  C   C528      1.0  0.69867  0.64287  0.08112  1.0000
  H   H526      1.0  0.72295  0.52313  0.13442  1.0000
  H   H527      1.0  0.59202  0.93310  0.13556  1.0000
  H   H528      1.0  0.71135  0.88835  0.04154  1.0000
  H   H529      1.0  0.66406  0.67105  0.35223  1.0000
  H   H530      1.0  0.65084  0.55149  0.40639  1.0000
  C   C529      1.0  0.63290  0.71528  0.20984  1.0000
  C   C530      1.0  0.64162  0.70124  0.21571  1.0000
  C   C531      1.0  0.64454  0.69569  0.25284  1.0000
  C   C532      1.0  0.63885  0.70412  0.28455  1.0000
  C   C533      1.0  0.63028  0.71828  0.27868  1.0000
  C   C534      1.0  0.62731  0.72379  0.24156  1.0000
  H   H531      1.0  0.64598  0.69455  0.19169  1.0000
  H   H532      1.0  0.65115  0.68470  0.25698  1.0000
  H   H533      1.0  0.62575  0.72483  0.30270  1.0000
  H   H534      1.0  0.62046  0.73459  0.23740  1.0000
  C   C535      1.0  0.70817  0.89545  0.01671  1.0000
  C   C536      1.0  0.65679  0.55249  0.43507  1.0000
  H   H535      1.0  0.68519  0.82737  0.46933  1.0000
  H   H536      1.0  0.66321  0.76089  0.14650  1.0000
  C   C537      1.0  0.70820  0.97652  0.01923  1.0000
  C   C538      1.0  0.63314  0.89043  0.28254  1.0000
  C   C539      1.0  0.63067  0.87778  0.25054  1.0000
  C   C540      1.0  0.63386  0.88553  0.21367  1.0000
  C   C541      1.0  0.63930  0.90608  0.20826  1.0000
  C   C542      1.0  0.64168  0.91871  0.24020  1.0000
  C   C543      1.0  0.63879  0.91099  0.27712  1.0000
  H   H537      1.0  0.62626  0.86185  0.25432  1.0000
  H   H538      1.0  0.63192  0.87560  0.18946  1.0000
  H   H539      1.0  0.64582  0.93462  0.23643  1.0000
  H   H540      1.0  0.64067  0.92093  0.30132  1.0000
  C   C544      1.0  0.66431  0.83009  0.04411  1.0000
  C   C545      1.0  0.59983  0.92604  0.11704  1.0000
  C   C546      1.0  0.58571  0.89097  0.09410  1.0000
  H   H541      1.0  0.71778  0.62551  0.03750  1.0000
  C   C547      1.0  0.66617  0.79691  0.04411  1.0000
  C   C548      1.0  0.67346  0.81711  0.05647  1.0000
  H   H542      1.0  0.72352  0.68821  0.03024  1.0000
  H   H543      1.0  0.70786  0.96636  0.04167  1.0000
  H   H544      1.0  0.67329  0.78705  0.05393  1.0000
  S   S186      1.0  0.68926  0.69850  0.03990  1.0000
  C   C549      1.0  0.66906  0.82064  0.46688  1.0000
  H   H545      1.0  0.57436  0.85985  0.07645  1.0000
  H   H546      1.0  0.61617  0.93306  0.12347  1.0000
  C   C550      1.0  0.69224  0.53514  0.38380  1.0000
  C   C551      1.0  0.69591  0.52038  0.40436  1.0000
  C   C552      1.0  0.70436  0.52474  0.44134  1.0000
  C   C553      1.0  0.70964  0.54396  0.45784  1.0000
  C   C554      1.0  0.70699  0.55895  0.43637  1.0000
  C   C555      1.0  0.69818  0.55451  0.39979  1.0000
  H   H547      1.0  0.70524  0.60655  0.07170  1.0000
  H   H548      1.0  0.68071  0.64720  0.36527  1.0000
  C   C556      1.0  0.66757  0.64791  0.07822  1.0000
  H   H549      1.0  0.69537  0.56602  0.38426  1.0000
  C   C557      1.0  0.70322  0.53822  0.12084  1.0000
  C   C558      1.0  0.71972  0.53300  0.11496  1.0000
  H   H550      1.0  0.64422  0.62624  0.04398  1.0000
  C   C559      1.0  0.64805  0.82281  0.01859  1.0000
  C   C560      1.0  0.71161  0.55864  0.06388  1.0000
  C   C561      1.0  0.69924  0.55101  0.09503  1.0000
  H   H551      1.0  0.67515  0.78388  0.17268  1.0000
  H   H552      1.0  0.59735  0.92931  0.08716  1.0000
  C   C562      1.0  0.72907  0.69318  0.44234  1.0000
  C   C563      1.0  0.72810  0.55343  0.05797  1.0000
  C   C564      1.0  0.65258  0.80160  0.14490  1.0000
  S   S187      1.0  0.67055  0.85945  0.46921  1.0000
  H   H553      1.0  0.65184  0.76535  0.18860  1.0000
  H   H554      1.0  0.64549  0.49685  0.15178  1.0000
  H   H555      1.0  0.71075  0.65768  0.40760  1.0000
  H   H556      1.0  0.63066  0.75382  0.11431  1.0000
  S   S188      1.0  0.65802  0.50085  0.24300  1.0000
  N   N46       1.0  0.59269  0.90446  0.12363  1.0000
  H   H557      1.0  0.70831  0.56842  0.04431  1.0000
  H   H558      1.0  0.67249  0.63930  0.46247  1.0000
  Fe  Fe98      1.0  0.62086  0.88402  0.02893  1.0000
  H   H559      1.0  0.59970  0.90871  0.18277  1.0000
  C   C565      1.0  0.58068  0.86370  0.13665  1.0000
  H   H560      1.0  0.64092  0.83265  0.00871  1.0000
  H   H561      1.0  0.66542  0.58465  0.43932  1.0000
  C   C566      1.0  0.62230  0.77778  0.09588  1.0000
  H   H562      1.0  0.66806  0.79027  0.46227  1.0000
  C   C567      1.0  0.64137  0.81022  0.12412  1.0000
  C   C568      1.0  0.62619  0.79820  0.09936  1.0000
  C   C569      1.0  0.65000  0.78966  0.01836  1.0000
  H   H563      1.0  0.64491  0.82624  0.12609  1.0000
  H   H564      1.0  0.61787  0.80482  0.08208  1.0000
  N   N47       1.0  0.71098  0.68695  0.41815  1.0000
  C   C570      1.0  0.70368  0.66822  0.40165  1.0000
  C   C571      1.0  0.70197  0.70017  0.41095  1.0000
  C   C572      1.0  0.68667  0.66216  0.37783  1.0000
  C   C573      1.0  0.68502  0.69464  0.38709  1.0000
  C   C574      1.0  0.67731  0.67550  0.37056  1.0000
  C   C575      1.0  0.66038  0.77262  0.16338  1.0000
  H   H565      1.0  0.69123  0.50533  0.39261  1.0000
  C   C576      1.0  0.70197  0.97651  0.47357  1.0000
  H   H566      1.0  0.68613  0.82266  0.07604  1.0000
  H   H567      1.0  0.70331  0.96308  0.46228  1.0000
  H   H568      1.0  0.64806  0.51768  0.40174  1.0000
  H   H569      1.0  0.72240  0.92548  0.03970  1.0000
  H   H570      1.0  0.67779  0.70506  0.38155  1.0000
  H   H571      1.0  0.65750  0.50707  0.43883  1.0000
  C   C577      1.0  0.59362  0.89798  0.15954  1.0000
  Fe  Fe99      1.0  0.68604  0.50873  0.20921  1.0000
  H   H572      1.0  0.66453  0.81111  0.16366  1.0000
  C   C578      1.0  0.66499  0.53706  0.48822  1.0000
  C   C579      1.0  0.58774  0.87755  0.16660  1.0000
  C   C580      1.0  0.70302  0.61507  0.04726  1.0000
  C   C581      1.0  0.57955  0.87041  0.10017  1.0000
  C   C582      1.0  0.63374  0.76967  0.11721  1.0000
  H   H573      1.0  0.61089  0.76835  0.07602  1.0000
  H   H574      1.0  0.57632  0.84783  0.14159  1.0000
  N   N48       1.0  0.65709  0.53575  0.45237  1.0000
  H   H575      1.0  0.58517  0.89601  0.06544  1.0000
  C   C583      1.0  0.67331  0.57275  0.48982  1.0000
  S   S189      1.0  0.66094  0.95413  0.47907  1.0000
  C   C584      1.0  0.67657  0.66926  0.48044  1.0000
  N   N49       1.0  0.65031  0.83559  0.36641  1.0000
  C   C585      1.0  0.65850  0.82152  0.37143  1.0000
  C   C586      1.0  0.63014  0.82986  0.36055  1.0000
  C   C587      1.0  0.64635  0.80112  0.37147  1.0000
  C   C588      1.0  0.61752  0.80960  0.36101  1.0000
  C   C589      1.0  0.62572  0.79517  0.36668  1.0000
  C   C590      1.0  0.66338  0.85683  0.36553  1.0000
  H   H576      1.0  0.67445  0.82607  0.37652  1.0000
  H   H577      1.0  0.62367  0.84099  0.35601  1.0000
  H   H578      1.0  0.65274  0.79000  0.37695  1.0000
  H   H579      1.0  0.60148  0.80517  0.35754  1.0000
  H   H580      1.0  0.61612  0.77944  0.36842  1.0000
  H   H581      1.0  0.65527  0.86650  0.37393  1.0000
  H   H582      1.0  0.67619  0.86035  0.38594  1.0000
  H   H583      1.0  0.66893  0.86090  0.33654  1.0000
  S   S190      1.0  0.58768  0.66850  0.49273  1.0000
  H   H584      1.0  0.65890  0.65689  0.08481  1.0000
  C   C591      1.0  0.67122  0.62005  0.04521  1.0000
  C   C592      1.0  0.69282  0.67963  0.01157  1.0000
  S   S191      1.0  0.58437  0.86574  0.49776  1.0000
  C   C593      1.0  0.68109  0.65197  0.48057  1.0000
  H   H585      1.0  0.63290  0.50797  0.44251  1.0000
  C   C594      1.0  0.64836  0.51614  0.43300  1.0000
  C   C595      1.0  0.71143  0.67762  0.01328  1.0000
  H   H586      1.0  0.66496  0.60714  0.02625  1.0000
  C   C596      1.0  0.68312  0.97621  0.48267  1.0000
  C   C597      1.0  0.73203  0.54054  0.08366  1.0000
  C   C598      1.0  0.64110  0.80275  0.00545  1.0000
  S   S192      1.0  0.63425  0.71903  0.49680  1.0000
  H   H587      1.0  0.72882  0.70412  0.46460  1.0000
  H   H588      1.0  0.69425  0.49634  0.06669  1.0000
  S   S193      1.0  0.70315  0.62972  0.49809  1.0000
  S   S194      1.0  0.58978  0.87265  0.00088  1.0000
  Fe  Fe100     1.0  0.51121  0.67094  0.76015  1.0000
  S   S195      1.0  0.54405  0.68335  0.75221  1.0000
  H   H589      1.0  0.52304  0.67389  0.58976  1.0000
  S   S196      1.0  0.54026  0.63806  0.73173  1.0000
  Fe  Fe101     1.0  0.54466  0.65719  0.78467  1.0000
  S   S197      1.0  0.57306  0.66543  0.82134  1.0000
  Fe  Fe102     1.0  0.53763  0.66375  0.69989  1.0000
  S   S198      1.0  0.55550  0.68318  0.65238  1.0000
  S   S199      1.0  0.53455  0.85510  0.76566  1.0000
  Fe  Fe103     1.0  0.52536  0.80305  0.72161  1.0000
  S   S200      1.0  0.55582  0.82664  0.73167  1.0000
  S   S201      1.0  0.52741  0.77576  0.69291  1.0000
  Fe  Fe104     1.0  0.54518  0.83188  0.78861  1.0000
  S   S202      1.0  0.56846  0.83323  0.83442  1.0000
  Fe  Fe105     1.0  0.54319  0.84788  0.70792  1.0000
  S   S203      1.0  0.56359  0.87258  0.67090  1.0000
  S   S204      1.0  0.51528  0.80648  0.78010  1.0000
  S   S205      1.0  0.51300  0.82405  0.69383  1.0000
  H   H590      1.0  0.62973  0.73749  0.88046  1.0000
  H   H591      1.0  0.71220  0.69780  0.54369  1.0000
  H   H592      1.0  0.69610  0.58322  0.85493  1.0000
  H   H593      1.0  0.72481  0.65311  0.78074  1.0000
  S   S206      1.0  0.71792  0.58353  0.93437  1.0000
  C   C599      1.0  0.60122  0.84351  0.60845  1.0000
  H   H594      1.0  0.56017  0.70128  0.87205  1.0000
  H   H595      1.0  0.55619  0.79514  0.58155  1.0000
  H   H596      1.0  0.69779  0.59581  0.72412  1.0000
  C   C600      1.0  0.70098  0.60494  0.74988  1.0000
  C   C601      1.0  0.69280  0.92255  0.92174  1.0000
  S   S207      1.0  0.50423  0.65282  0.70598  1.0000
  S   S208      1.0  0.49634  0.69239  0.77552  1.0000
  Fe  Fe106     1.0  0.50695  0.62829  0.74194  1.0000
  H   H597      1.0  0.62071  0.65584  0.51499  1.0000
  H   H598      1.0  0.68816  0.57989  0.78620  1.0000
  H   H599      1.0  0.61359  0.85737  0.61594  1.0000
  C   C602      1.0  0.69567  0.59604  0.78505  1.0000
  Fe  Fe107     1.0  0.72579  0.62024  0.53019  1.0000
  H   H600      1.0  0.62866  0.79731  0.98535  1.0000
  S   S209      1.0  0.71329  0.59411  0.56903  1.0000
  C   C603      1.0  0.49494  0.86450  0.66981  1.0000
  H   H601      1.0  0.49532  0.70491  0.65704  1.0000
  C   C604      1.0  0.69878  0.64782  0.97244  1.0000
  Fe  Fe108     1.0  0.50493  0.82940  0.75338  1.0000
  C   C605      1.0  0.58686  0.83441  0.63553  1.0000
  H   H602      1.0  0.67643  0.91897  0.92224  1.0000
  H   H603      1.0  0.55143  0.84190  0.54241  1.0000
  C   C606      1.0  0.71442  0.66181  0.99387  1.0000
  N   N50       1.0  0.49364  0.87965  0.73016  1.0000
  H   H604      1.0  0.70344  0.60717  0.87796  1.0000
  C   C607      1.0  0.67324  0.55556  0.50742  1.0000
  N   N51       1.0  0.51061  0.69136  0.62199  1.0000
  H   H605      1.0  0.53783  0.70920  0.59550  1.0000
  C   C608      1.0  0.69531  0.97598  0.57360  1.0000
  C   C609      1.0  0.67807  0.97881  0.58414  1.0000
  S   S210      1.0  0.64376  0.71127  0.99509  1.0000
  H   H606      1.0  0.59353  0.66014  0.63369  1.0000
  H   H607      1.0  0.72027  0.66717  0.54355  1.0000
  H   H608      1.0  0.60834  0.84208  0.51554  1.0000
  H   H609      1.0  0.71643  0.63247  0.72117  1.0000
  H   H610      1.0  0.62098  0.86153  0.54900  1.0000
  H   H611      1.0  0.66814  0.63943  0.95333  1.0000
  C   C610      1.0  0.60663  0.66930  0.61842  1.0000
  C   C611      1.0  0.51026  0.67403  0.60519  1.0000
  H   H612      1.0  0.68331  0.97922  0.93852  1.0000
  C   C612      1.0  0.71636  0.63710  0.78168  1.0000
  C   C613      1.0  0.69443  0.98384  0.96126  1.0000
  C   C614      1.0  0.62660  0.73049  0.90862  1.0000
  C   C615      1.0  0.71064  0.62773  0.81638  1.0000
  C   C616      1.0  0.57444  0.84550  0.87967  1.0000
  C   C617      1.0  0.56132  0.85223  0.89877  1.0000
  C   C618      1.0  0.56628  0.86066  0.93569  1.0000
  C   C619      1.0  0.58454  0.86281  0.95365  1.0000
  C   C620      1.0  0.59779  0.85640  0.93424  1.0000
  C   C621      1.0  0.59267  0.84763  0.89768  1.0000
  H   H613      1.0  0.54719  0.85059  0.88547  1.0000
  H   H614      1.0  0.55587  0.86549  0.95043  1.0000
  H   H615      1.0  0.61180  0.85780  0.94768  1.0000
  H   H616      1.0  0.60290  0.84241  0.88330  1.0000
  C   C622      1.0  0.56913  0.87027  0.62276  1.0000
  C   C623      1.0  0.58655  0.88456  0.60791  1.0000
  C   C624      1.0  0.59151  0.88334  0.56981  1.0000
  C   C625      1.0  0.57885  0.86800  0.54592  1.0000
  C   C626      1.0  0.56134  0.85379  0.56071  1.0000
  C   C627      1.0  0.55654  0.85482  0.59897  1.0000
  H   H617      1.0  0.59631  0.89665  0.62600  1.0000
  H   H618      1.0  0.60496  0.89444  0.55877  1.0000
  H   H619      1.0  0.58800  0.84131  0.66342  1.0000
  H   H620      1.0  0.54303  0.84378  0.60991  1.0000
  C   C628      1.0  0.50454  0.71530  0.75165  1.0000
  C   C629      1.0  0.51897  0.71939  0.72381  1.0000
  C   C630      1.0  0.52584  0.73802  0.70607  1.0000
  C   C631      1.0  0.51859  0.75277  0.71641  1.0000
  C   C632      1.0  0.50436  0.74882  0.74459  1.0000
  H   H621      1.0  0.65261  0.70178  0.56259  1.0000
  H   H622      1.0  0.52479  0.70818  0.71587  1.0000
  H   H623      1.0  0.53701  0.74115  0.68460  1.0000
  C   C633      1.0  0.57643  0.66547  0.87112  1.0000
  C   C634      1.0  0.56036  0.65895  0.89566  1.0000
  C   C635      1.0  0.56394  0.66062  0.93517  1.0000
  C   C636      1.0  0.58353  0.66913  0.95042  1.0000
  C   C637      1.0  0.59956  0.67527  0.92584  1.0000
  C   C638      1.0  0.59601  0.67329  0.88643  1.0000
  H   H624      1.0  0.54522  0.65275  0.88424  1.0000
  H   H625      1.0  0.55146  0.65563  0.95403  1.0000
  H   H626      1.0  0.61469  0.68145  0.93720  1.0000
  H   H627      1.0  0.60853  0.67815  0.86765  1.0000
  C   C639      1.0  0.56379  0.67841  0.60785  1.0000
  C   C640      1.0  0.57686  0.69474  0.58802  1.0000
  C   C641      1.0  0.58417  0.69192  0.55270  1.0000
  C   C642      1.0  0.57822  0.67272  0.53650  1.0000
  C   C643      1.0  0.56482  0.65638  0.55598  1.0000
  C   C644      1.0  0.55768  0.65917  0.59163  1.0000
  H   H628      1.0  0.58158  0.70970  0.60022  1.0000
  H   H629      1.0  0.59434  0.70463  0.53792  1.0000
  H   H630      1.0  0.56009  0.64147  0.54356  1.0000
  H   H631      1.0  0.54753  0.64648  0.60650  1.0000
  S   S211      1.0  0.51180  0.64592  0.79716  1.0000
  C   C645      1.0  0.56475  0.70679  0.93228  1.0000
  N   N52       1.0  0.60523  0.72322  0.91657  1.0000
  C   C646      1.0  0.59923  0.72216  0.95323  1.0000
  N   N53       1.0  0.70060  0.60742  0.81769  1.0000
  C   C647      1.0  0.49720  0.73003  0.76185  1.0000
  C   C648      1.0  0.57098  0.70786  0.89496  1.0000
  H   H632      1.0  0.58203  0.81180  0.53461  1.0000
  C   C649      1.0  0.69700  0.65114  0.50287  1.0000
  H   H633      1.0  0.57440  0.71230  0.99091  1.0000
  H   H634      1.0  0.66347  0.96758  0.57636  1.0000
  C   C650      1.0  0.52520  0.88745  0.70028  1.0000
  N   N54       1.0  0.69873  0.91338  0.95412  1.0000
  C   C651      1.0  0.56890  0.80865  0.58942  1.0000
  H   H635      1.0  0.52431  0.87267  0.64656  1.0000
  S   S212      1.0  0.48727  0.59463  0.73538  1.0000
  C   C652      1.0  0.69427  0.59782  0.85407  1.0000
  N   N55       1.0  0.62838  0.67345  0.56592  1.0000
  C   C653      1.0  0.63957  0.69260  0.57806  1.0000
  C   C654      1.0  0.61223  0.66174  0.58584  1.0000
  C   C655      1.0  0.63418  0.70076  0.61015  1.0000
  H   H636      1.0  0.70033  0.93917  0.92275  1.0000
  C   C656      1.0  0.61754  0.68900  0.63033  1.0000
  C   C657      1.0  0.58353  0.81815  0.56303  1.0000
  C   C658      1.0  0.71147  0.62558  0.74825  1.0000
  H   H637      1.0  0.49860  0.76008  0.75258  1.0000
  H   H638      1.0  0.53756  0.71225  0.64590  1.0000
  H   H639      1.0  0.69657  0.91698  0.89472  1.0000
  C   C659      1.0  0.49361  0.65614  0.60828  1.0000
  C   C660      1.0  0.69362  0.97032  0.99018  1.0000
  H   H640      1.0  0.59614  0.71566  0.85874  1.0000
  H   H641      1.0  0.54134  0.89519  0.70080  1.0000
  N   N56       1.0  0.55347  0.77090  0.79953  1.0000
  C   C661      1.0  0.54184  0.77608  0.82432  1.0000
  C   C662      1.0  0.55131  0.75133  0.79508  1.0000
  C   C663      1.0  0.52775  0.76148  0.84578  1.0000
  C   C664      1.0  0.53762  0.73640  0.81655  1.0000
  C   C665      1.0  0.52565  0.74151  0.84178  1.0000
  C   C666      1.0  0.56746  0.78618  0.77587  1.0000
  H   H642      1.0  0.54328  0.79155  0.82740  1.0000
  H   H643      1.0  0.55987  0.74708  0.77422  1.0000
  H   H644      1.0  0.51836  0.76564  0.86492  1.0000
  H   H645      1.0  0.53558  0.72080  0.81227  1.0000
  H   H646      1.0  0.51438  0.72990  0.85735  1.0000
  H   H647      1.0  0.57227  0.80134  0.78940  1.0000
  H   H648      1.0  0.58117  0.78312  0.77123  1.0000
  H   H649      1.0  0.56016  0.78642  0.74809  1.0000
  H   H650      1.0  0.71452  0.63675  0.84231  1.0000
  H   H651      1.0  0.64359  0.67711  0.51383  1.0000
  H   H652      1.0  0.60327  0.64662  0.57598  1.0000
  C   C667      1.0  0.69731  0.88372  0.98610  1.0000
  C   C668      1.0  0.57895  0.71396  0.96165  1.0000
  C   C669      1.0  0.52835  0.70989  0.61947  1.0000
  H   H653      1.0  0.68017  0.58727  0.50401  1.0000
  C   C670      1.0  0.67735  0.66593  0.98932  1.0000
  H   H654      1.0  0.66297  0.66727  0.98766  1.0000
  H   H655      1.0  0.52406  0.72298  0.61537  1.0000
  H   H656      1.0  0.61016  0.72710  0.97629  1.0000
  N   N57       1.0  0.59933  0.83544  0.57265  1.0000
  C   C671      1.0  0.70798  0.66762  0.52618  1.0000
  C   C672      1.0  0.59141  0.71603  0.88760  1.0000
  H   H657      1.0  0.67840  0.59541  0.85876  1.0000
  C   C673      1.0  0.57059  0.81688  0.62587  1.0000
  H   H658      1.0  0.55915  0.80985  0.64640  1.0000
  H   H659      1.0  0.63170  0.71779  0.90938  1.0000
  H   H660      1.0  0.62695  0.83930  0.54727  1.0000
  C   C674      1.0  0.70338  0.68497  0.52615  1.0000
  H   H661      1.0  0.72230  0.56043  0.75392  1.0000
  H   H662      1.0  0.61289  0.69517  0.65488  1.0000
  C   C675      1.0  0.63414  0.66507  0.53230  1.0000
  C   C676      1.0  0.68034  0.65013  0.96992  1.0000
  S   S213      1.0  0.70094  0.62648  0.95032  1.0000
  C   C677      1.0  0.71403  0.99093  0.58216  1.0000
  C   C678      1.0  0.69264  0.89298  0.95489  1.0000
  C   C679      1.0  0.61471  0.84499  0.54489  1.0000
  H   H663      1.0  0.64278  0.71612  0.61907  1.0000
  Fe  Fe109     1.0  0.72975  0.57956  0.53308  1.0000
  H   H664      1.0  0.63554  0.74203  0.92996  1.0000
  Fe  Fe110     1.0  0.72749  0.61669  0.94656  1.0000
  H   H665      1.0  0.68366  0.88373  0.93172  1.0000
  H   H666      1.0  0.69410  0.96262  0.55753  1.0000
  C   C680      1.0  0.51393  0.88964  0.73050  1.0000
  H   H667      1.0  0.54904  0.69956  0.93858  1.0000
  H   H668      1.0  0.64269  0.65580  0.54071  1.0000
  S   S214      1.0  0.68372  0.70870  0.50072  1.0000
  C   C681      1.0  0.51562  0.87475  0.66982  1.0000
  H   H669      1.0  0.72735  0.98893  0.57271  1.0000
  H   H670      1.0  0.52155  0.89917  0.75449  1.0000
  H   H671      1.0  0.69205  0.86750  0.98715  1.0000
  S   S215      1.0  0.67506  0.94550  0.98676  1.0000
  H   H672      1.0  0.72770  0.57530  0.68993  1.0000
  H   H673      1.0  0.68026  0.55660  0.53516  1.0000
  C   C682      1.0  0.49484  0.69131  0.64284  1.0000
  C   C683      1.0  0.73065  0.57633  0.75118  1.0000
  S   S216      1.0  0.73183  0.57735  0.82931  1.0000
  S   S217      1.0  0.71740  0.54810  0.50639  1.0000
  C   C684      1.0  0.68784  0.68599  0.50284  1.0000
  H   H674      1.0  0.66573  0.52392  0.50163  1.0000
  H   H675      1.0  0.49355  0.64239  0.59540  1.0000
  C   C685      1.0  0.70949  0.92501  0.98396  1.0000
  H   H676      1.0  0.72873  0.66035  0.99589  1.0000
  H   H677      1.0  0.48729  0.87702  0.78856  1.0000
  H   H678      1.0  0.71396  0.94116  0.98379  1.0000
  C   C686      1.0  0.73375  0.58471  0.71478  1.0000
  S   S218      1.0  0.64915  0.88769  0.99937  1.0000
  H   H679      1.0  0.48737  0.85433  0.64657  1.0000
  S   S219      1.0  0.64330  0.89667  0.50015  1.0000
  H   H680      1.0  0.75080  0.13239  0.10112  1.0000
  Fe  Fe111     1.0  0.86869  0.31207  0.20062  1.0000
  S   S220      1.0  0.84129  0.31821  0.18502  1.0000
  S   S221      1.0  0.89408  0.31114  0.16441  1.0000
  Fe  Fe112     1.0  0.85426  0.29892  0.28143  1.0000
  S   S222      1.0  0.82577  0.30403  0.27156  1.0000
  S   S223      1.0  0.85923  0.27842  0.32565  1.0000
  Fe  Fe113     1.0  0.82394  0.28952  0.21451  1.0000
  S   S224      1.0  0.79837  0.26354  0.18663  1.0000
  Fe  Fe114     1.0  0.84527  0.33282  0.24333  1.0000
  S   S225      1.0  0.83650  0.35988  0.25484  1.0000
  S   S226      1.0  0.85105  0.28264  0.22574  1.0000
  S   S227      1.0  0.87406  0.32846  0.25731  1.0000
  C   C687      1.0  0.94545  0.30410  0.46834  1.0000
  C   C688      1.0  0.91736  0.28676  0.35998  1.0000
  H   H681      1.0  0.81527  0.26104  0.08526  1.0000
  H   H682      1.0  0.81944  0.45180  0.17224  1.0000
  Fe  Fe115     1.0  0.86652  0.48103  0.24332  1.0000
  S   S228      1.0  0.87794  0.45535  0.24189  1.0000
  C   C689      1.0  0.85697  0.25947  0.12815  1.0000
  H   H683      1.0  0.74553  0.11917  0.03528  1.0000
  C   C690      1.0  0.74809  0.47834  0.25691  1.0000
  C   C691      1.0  0.78190  0.47884  0.25398  1.0000
  S   S229      1.0  0.96818  0.26403  0.48374  1.0000
  H   H684      1.0  0.83406  0.26958  0.14640  1.0000
  H   H685      1.0  0.91020  0.31301  0.36511  1.0000
  N   N58       1.0  0.82318  0.42444  0.18308  1.0000
  H   H686      1.0  0.77454  0.22274  0.34456  1.0000
  H   H687      1.0  0.82352  0.44737  0.22130  1.0000
  S   S230      1.0  0.80298  0.48439  0.18826  1.0000
  H   H688      1.0  0.94889  0.29192  0.48170  1.0000
  N   N59       1.0  0.80069  0.24002  0.31476  1.0000
  H   H689      1.0  0.84394  0.38356  0.16064  1.0000
  H   H690      1.0  0.81983  0.25325  0.36206  1.0000
  H   H691      1.0  0.85099  0.14995  0.48659  1.0000
  S   S231      1.0  0.89221  0.29009  0.49613  1.0000
  C   C692      1.0  0.86705  0.28194  0.37386  1.0000
  C   C693      1.0  0.87030  0.26621  0.39198  1.0000
  C   C694      1.0  0.87760  0.26842  0.42957  1.0000
  C   C695      1.0  0.88160  0.28637  0.44968  1.0000
  C   C696      1.0  0.87779  0.30196  0.43196  1.0000
  C   C697      1.0  0.87057  0.29979  0.39412  1.0000
  H   H692      1.0  0.86748  0.25229  0.37666  1.0000
  H   H693      1.0  0.88010  0.25619  0.44295  1.0000
  H   H694      1.0  0.88069  0.31586  0.44740  1.0000
  H   H695      1.0  0.86798  0.31197  0.38058  1.0000
  C   C698      1.0  0.89158  0.30407  0.11580  1.0000
  C   C699      1.0  0.90580  0.29763  0.09959  1.0000
  C   C700      1.0  0.90400  0.29135  0.06129  1.0000
  C   C701      1.0  0.88809  0.29177  0.03872  1.0000
  C   C702      1.0  0.87403  0.29843  0.05482  1.0000
  C   C703      1.0  0.87570  0.30448  0.09319  1.0000
  H   H696      1.0  0.91819  0.29739  0.11685  1.0000
  H   H697      1.0  0.91495  0.28632  0.04920  1.0000
  H   H698      1.0  0.86172  0.29887  0.03753  1.0000
  H   H699      1.0  0.86476  0.30956  0.10522  1.0000
  C   C704      1.0  0.84915  0.38648  0.25434  1.0000
  C   C705      1.0  0.83878  0.39861  0.26556  1.0000
  C   C706      1.0  0.84741  0.41968  0.26262  1.0000
  C   C707      1.0  0.86668  0.42896  0.24873  1.0000
  C   C708      1.0  0.87728  0.41689  0.23857  1.0000
  C   C709      1.0  0.86857  0.39580  0.24115  1.0000
  H   H700      1.0  0.82381  0.39162  0.27608  1.0000
  H   H701      1.0  0.83914  0.42870  0.27107  1.0000
  H   H702      1.0  0.89224  0.42387  0.22801  1.0000
  H   H703      1.0  0.87679  0.38676  0.23251  1.0000
  H   H704      1.0  0.79491  0.47792  0.26806  1.0000
  C   C710      1.0  0.86112  0.23854  0.03264  1.0000
  C   C711      1.0  0.76430  0.23023  0.19604  1.0000
  C   C712      1.0  0.77709  0.24874  0.21178  1.0000
  C   C713      1.0  0.77288  0.25480  0.24724  1.0000
  C   C714      1.0  0.75606  0.24237  0.26682  1.0000
  H   H705      1.0  0.86463  0.41944  0.14988  1.0000
  H   H706      1.0  0.76744  0.22545  0.16859  1.0000
  H   H707      1.0  0.78252  0.26911  0.25945  1.0000
  C   C715      1.0  0.74773  0.21761  0.21595  1.0000
  H   H708      1.0  0.81503  0.27073  0.33153  1.0000
  C   C716      1.0  0.84189  0.42973  0.16879  1.0000
  H   H709      1.0  0.79727  0.40058  0.20216  1.0000
  C   C717      1.0  0.81889  0.38973  0.18062  1.0000
  C   C718      1.0  0.92663  0.27521  0.37737  1.0000
  C   C719      1.0  0.80816  0.25571  0.34430  1.0000
  C   C720      1.0  0.83788  0.39499  0.16575  1.0000
  C   C721      1.0  0.92679  0.30943  0.41406  1.0000
  H   H710      1.0  0.81023  0.37421  0.18716  1.0000
  C   C722      1.0  0.81174  0.40475  0.18932  1.0000
  C   C723      1.0  0.84948  0.41510  0.15970  1.0000
  C   C724      1.0  0.78332  0.22380  0.31958  1.0000
  C   C725      1.0  0.81158  0.24139  0.28296  1.0000
  C   C726      1.0  0.77622  0.20864  0.29170  1.0000
  C   C727      1.0  0.80484  0.22661  0.25438  1.0000
  H   H711      1.0  0.76198  0.19625  0.29480  1.0000
  S   S232      1.0  0.91159  0.24757  0.48180  1.0000
  H   H712      1.0  0.81309  0.22829  0.22848  1.0000
  C   C728      1.0  0.74620  0.15180  0.45643  1.0000
  H   H713      1.0  0.84293  0.16111  0.01926  1.0000
  H   H714      1.0  0.85140  0.44539  0.16582  1.0000
  C   C729      1.0  0.83633  0.25035  0.05919  1.0000
  C   C730      1.0  0.81607  0.44017  0.19422  1.0000
  H   H715      1.0  0.79963  0.43424  0.19796  1.0000
  C   C731      1.0  0.78702  0.21016  0.25881  1.0000
  H   H716      1.0  0.75952  0.13389  0.40567  1.0000
  H   H717      1.0  0.86557  0.26375  0.15454  1.0000
  H   H718      1.0  0.93543  0.30792  0.48779  1.0000
  H   H719      1.0  0.92634  0.26156  0.36371  1.0000
  C   C732      1.0  0.78190  0.48178  0.21501  1.0000
  N   N60       1.0  0.85375  0.24725  0.06380  1.0000
  C   C733      1.0  0.86396  0.25153  0.09783  1.0000
  H   H720      1.0  0.85555  0.22201  0.03496  1.0000
  H   H721      1.0  0.79600  0.25614  0.36257  1.0000
  C   C734      1.0  0.82890  0.25825  0.08896  1.0000
  C   C735      1.0  0.83937  0.26291  0.12352  1.0000
  H   H722      1.0  0.92616  0.32245  0.42877  1.0000
  H   H723      1.0  0.87795  0.24944  0.10132  1.0000
  H   H724      1.0  0.90953  0.28209  0.33286  1.0000
  C   C736      1.0  0.76494  0.47689  0.27477  1.0000
  S   S233      1.0  0.84045  0.48354  0.27435  1.0000
  C   C737      1.0  0.74361  0.22361  0.25152  1.0000
  C   C738      1.0  0.91768  0.30414  0.37815  1.0000
  H   H725      1.0  0.82538  0.25416  0.27929  1.0000
  C   C739      1.0  0.93604  0.28120  0.41289  1.0000
  H   H726      1.0  0.75016  0.07052  0.11534  1.0000
  H   H727      1.0  0.78400  0.15181  0.42009  1.0000
  H   H728      1.0  0.77474  0.12660  0.43788  1.0000
  N   N61       1.0  0.76203  0.14609  0.46193  1.0000
  N   N62       1.0  0.93570  0.29793  0.43104  1.0000
  H   H729      1.0  0.95965  0.31724  0.46578  1.0000
  H   H730      1.0  0.76482  0.48500  0.16674  1.0000
  C   C740      1.0  0.74806  0.48132  0.21792  1.0000
  H   H731      1.0  0.76498  0.47451  0.30492  1.0000
  H   H732      1.0  0.78127  0.19891  0.23634  1.0000
  H   H733      1.0  0.82828  0.24703  0.03220  1.0000
  H   H734      1.0  0.94328  0.27217  0.42615  1.0000
  C   C741      1.0  0.77050  0.13931  0.42973  1.0000
  H   H735      1.0  0.75289  0.24716  0.29422  1.0000
  C   C742      1.0  0.76487  0.48279  0.19694  1.0000
  S   S234      1.0  0.85774  0.48947  0.18658  1.0000
  H   H736      1.0  0.87774  0.24482  0.03272  1.0000
  H   H737      1.0  0.85630  0.24232  0.00469  1.0000
  H   H738      1.0  0.73826  0.20318  0.20390  1.0000
  C   C743      1.0  0.77051  0.14729  0.49723  1.0000
  H   H739      1.0  0.73947  0.15093  0.42844  1.0000
  C   C744      1.0  0.73785  0.15801  0.48709  1.0000
  Fe  Fe116     1.0  0.91630  0.26737  0.87491  1.0000
  S   S235      1.0  0.92764  0.24353  0.89011  1.0000
  S   S236      1.0  0.91904  0.28109  0.81626  1.0000
  Fe  Fe117     1.0  0.90327  0.27005  0.95698  1.0000
  H   H740      1.0  0.84750  0.13355  0.83935  1.0000
  Fe  Fe118     1.0  0.94112  0.26235  0.94267  1.0000
  H   H741      1.0  0.74405  0.12837  0.81700  1.0000
  Fe  Fe119     1.0  0.89929  0.22966  0.92283  1.0000
  S   S237      1.0  0.87952  0.19683  0.91003  1.0000
  S   S238      1.0  0.93134  0.28717  0.92557  1.0000
  S   S239      1.0  0.88737  0.25270  0.90465  1.0000
  C   C745      1.0  0.74946  0.08774  0.78244  1.0000
  C   C746      1.0  0.84844  0.13004  0.86887  1.0000
  H   H742      1.0  0.81925  0.17602  0.58566  1.0000
  S   S240      1.0  0.77654  0.07984  0.92310  1.0000
  H   H743      1.0  0.77125  0.11173  0.75237  1.0000
  C   C747      1.0  0.85761  0.17954  0.97260  1.0000
  Fe  Fe120     1.0  0.78011  0.10637  0.96089  1.0000
  S   S241      1.0  0.80905  0.12844  0.98821  1.0000
  H   H744      1.0  0.95854  0.26449  0.76995  1.0000
  Fe  Fe121     1.0  0.93960  0.25642  0.51827  1.0000
  S   S242      1.0  0.93123  0.27663  0.55756  1.0000
  C   C748      1.0  0.85075  0.12227  0.94501  1.0000
  Fe  Fe122     1.0  0.89661  0.22273  0.52208  1.0000
  S   S243      1.0  0.88573  0.24149  0.55958  1.0000
  S   S244      1.0  0.74165  0.10923  0.58636  1.0000
  Fe  Fe123     1.0  0.90278  0.26690  0.52159  1.0000
  Fe  Fe124     1.0  0.91497  0.24902  0.59184  1.0000
  S   S245      1.0  0.91369  0.23912  0.65358  1.0000
  S   S246      1.0  0.92551  0.22946  0.55460  1.0000
  Fe  Fe125     1.0  0.76854  0.10559  0.56130  1.0000
  C   C749      1.0  0.86500  0.14162  0.89149  1.0000
  S   S247      1.0  0.79578  0.13411  0.57641  1.0000
  S   S248      1.0  0.88458  0.28335  0.99084  1.0000
  H   H745      1.0  0.85116  0.11947  0.97503  1.0000
  S   S249      1.0  0.75967  0.11641  0.92624  1.0000
  S   S250      1.0  0.91368  0.24603  0.97714  1.0000
  S   S251      1.0  0.76091  0.07483  0.58574  1.0000
  H   H746      1.0  0.74873  0.16650  0.91387  1.0000
  S   S252      1.0  0.76076  0.09767  0.82726  1.0000
  H   H747      1.0  0.73937  0.16294  0.54753  1.0000
  C   C750      1.0  0.81682  0.15014  0.55163  1.0000
  C   C751      1.0  0.82595  0.17032  0.56357  1.0000
  C   C752      1.0  0.84407  0.18310  0.54812  1.0000
  C   C753      1.0  0.75795  0.09819  0.74973  1.0000
  H   H748      1.0  0.97418  0.25777  0.80275  1.0000
  C   C754      1.0  0.74944  0.09130  0.71349  1.0000
  C   C755      1.0  0.96189  0.26336  0.80048  1.0000
  C   C756      1.0  0.84207  0.16367  0.98931  1.0000
  C   C757      1.0  0.88333  0.14994  0.95249  1.0000
  H   H749      1.0  0.82174  0.09865  0.93643  1.0000
  Fe  Fe126     1.0  0.74983  0.06196  0.95795  1.0000
  H   H750      1.0  0.76914  0.15406  0.55656  1.0000
  C   C758      1.0  0.82570  0.14300  0.52312  1.0000
  H   H751      1.0  0.89428  0.14259  0.95373  1.0000
  H   H752      1.0  0.94819  0.25227  0.81279  1.0000
  H   H753      1.0  0.89072  0.16521  0.94091  1.0000
  H   H754      1.0  0.90342  0.19755  0.62210  1.0000
  C   C759      1.0  0.91663  0.26896  0.77122  1.0000
  C   C760      1.0  0.91952  0.28044  0.73834  1.0000
  C   C761      1.0  0.91853  0.27162  0.70208  1.0000
  C   C762      1.0  0.91473  0.25117  0.69830  1.0000
  C   C763      1.0  0.91184  0.23971  0.73120  1.0000
  C   C764      1.0  0.91267  0.24849  0.76741  1.0000
  H   H755      1.0  0.92249  0.29627  0.74090  1.0000
  H   H756      1.0  0.92074  0.28064  0.67710  1.0000
  H   H757      1.0  0.90889  0.22388  0.72866  1.0000
  H   H758      1.0  0.91029  0.23943  0.79236  1.0000
  C   C765      1.0  0.85740  0.18213  0.93347  1.0000
  C   C766      1.0  0.84078  0.16954  0.91174  1.0000
  C   C767      1.0  0.82502  0.15393  0.92857  1.0000
  C   C768      1.0  0.82597  0.15045  0.96726  1.0000
  C   C769      1.0  0.97611  0.31844  0.86088  1.0000
  H   H759      1.0  0.81959  0.10563  0.86810  1.0000
  H   H760      1.0  0.84055  0.17128  0.88141  1.0000
  H   H761      1.0  0.81272  0.14390  0.91125  1.0000
  C   C770      1.0  0.85338  0.17578  0.52067  1.0000
  C   C771      1.0  0.83402  0.11038  0.92323  1.0000
  H   H762      1.0  0.87886  0.15207  0.98163  1.0000
  C   C772      1.0  0.74806  0.14929  0.86315  1.0000
  N   N63       1.0  0.96741  0.28262  0.82076  1.0000
  N   N64       1.0  0.86585  0.13781  0.92916  1.0000
  Fe  Fe127     1.0  0.75476  0.08912  0.88931  1.0000
  H   H763      1.0  0.85105  0.19848  0.55808  1.0000
  H   H764      1.0  0.97854  0.30702  0.98414  1.0000
  N   N65       1.0  0.87226  0.18001  0.62290  1.0000
  C   C773      1.0  0.86066  0.16055  0.61338  1.0000
  C   C774      1.0  0.86655  0.18997  0.65062  1.0000
  C   C775      1.0  0.84276  0.15055  0.63186  1.0000
  C   C776      1.0  0.84870  0.18045  0.66958  1.0000
  C   C777      1.0  0.83671  0.16063  0.65992  1.0000
  C   C778      1.0  0.89041  0.19080  0.60221  1.0000
  H   H765      1.0  0.86479  0.15292  0.59037  1.0000
  H   H766      1.0  0.87568  0.20552  0.65771  1.0000
  H   H767      1.0  0.83320  0.13537  0.62325  1.0000
  H   H768      1.0  0.84410  0.18853  0.69113  1.0000
  H   H769      1.0  0.82254  0.15318  0.67355  1.0000
  H   H770      1.0  0.89396  0.18104  0.58137  1.0000
  H   H771      1.0  0.87045  0.18885  0.98959  1.0000
  C   C779      1.0  0.84392  0.15576  0.50786  1.0000
  H   H772      1.0  0.87680  0.15420  0.87910  1.0000
  C   C780      1.0  0.96627  0.29887  0.80285  1.0000
  H   H773      1.0  0.88830  0.20298  0.58619  1.0000
  H   H774      1.0  0.75618  0.09952  0.68865  1.0000
  C   C781      1.0  0.83281  0.11438  0.88497  1.0000
  H   H775      1.0  0.96112  0.29763  0.77358  1.0000
  H   H776      1.0  0.78329  0.14314  0.50150  1.0000
  S   S253      1.0  0.97354  0.26647  0.95782  1.0000
  C   C782      1.0  0.97303  0.28398  0.85818  1.0000
  S   S254      1.0  0.87719  0.19066  0.50302  1.0000
  H   H777      1.0  0.76151  0.16039  0.85192  1.0000
  H   H778      1.0  0.97367  0.27105  0.87264  1.0000
  Fe  Fe128     1.0  0.74226  0.06266  0.53230  1.0000
  C   C783      1.0  0.97757  0.30191  0.87868  1.0000
  C   C784      1.0  0.76260  0.15353  0.52848  1.0000
  S   S255      1.0  0.75292  0.09318  0.50530  1.0000
  H   H779      1.0  0.74366  0.02851  0.58368  1.0000
  C   C785      1.0  0.97045  0.31696  0.82269  1.0000
  H   H780      1.0  0.96867  0.32949  0.80878  1.0000
  C   C786      1.0  0.74090  0.15270  0.89789  1.0000
  H   H781      1.0  0.98170  0.30280  0.90844  1.0000
  H   H782      1.0  0.74399  0.01694  0.62866  1.0000
  C   C787      1.0  0.74602  0.15867  0.52337  1.0000
  H   H783      1.0  0.97903  0.33223  0.87686  1.0000
  H   H784      1.0  0.81900  0.12747  0.51391  1.0000
  S   S256      1.0  0.74489  0.03292  0.98954  1.0000
  S   S257      1.0  0.74002  0.03349  0.50262  1.0000
  C   C788      1.0  0.73808  0.13115  0.84347  1.0000
  S   S258      1.0  0.75564  0.08781  0.99879  1.0000
  Fe  Fe129     1.0  0.86056  0.51613  0.28496  1.0000
  S   S259      1.0  0.86000  0.53785  0.33253  1.0000
  Fe  Fe130     1.0  0.87620  0.52136  0.20317  1.0000
  S   S260      1.0  0.89689  0.54662  0.16736  1.0000
  S   S261      1.0  0.85080  0.52620  0.23078  1.0000
  H   H785      1.0  0.75465  0.50413  0.34574  1.0000
  C   C789      1.0  0.92342  0.60035  0.37966  1.0000
  S   S262      1.0  0.88726  0.51305  0.25794  1.0000
  C   C790      1.0  0.79153  0.52447  0.31407  1.0000
  H   H786      1.0  0.94097  0.57577  0.47818  1.0000
  S   S263      1.0  0.74405  0.56239  0.01882  1.0000
  C   C791      1.0  0.83904  0.56276  0.49034  1.0000
  C   C792      1.0  0.89192  0.55074  0.11958  1.0000
  C   C793      1.0  0.88068  0.53500  0.09496  1.0000
  C   C794      1.0  0.87937  0.53845  0.05601  1.0000
  C   C795      1.0  0.88923  0.55763  0.04134  1.0000
  C   C796      1.0  0.89986  0.57350  0.06618  1.0000
  C   C797      1.0  0.90117  0.57005  0.10507  1.0000
  H   H787      1.0  0.87352  0.52005  0.10574  1.0000
  H   H788      1.0  0.87102  0.52608  0.03708  1.0000
  H   H789      1.0  0.90750  0.58834  0.05543  1.0000
  H   H790      1.0  0.90988  0.58231  0.12391  1.0000
  C   C798      1.0  0.87132  0.54326  0.37850  1.0000
  C   C799      1.0  0.87845  0.53024  0.39713  1.0000
  C   C800      1.0  0.88699  0.53512  0.43393  1.0000
  C   C801      1.0  0.88896  0.55326  0.45210  1.0000
  C   C802      1.0  0.88209  0.56641  0.43326  1.0000
  C   C803      1.0  0.87301  0.56125  0.39696  1.0000
  H   H791      1.0  0.87708  0.51625  0.38348  1.0000
  H   H792      1.0  0.89212  0.52477  0.44839  1.0000
  H   H793      1.0  0.88348  0.58040  0.44684  1.0000
  H   H794      1.0  0.86751  0.57141  0.38283  1.0000
  H   H795      1.0  0.94025  0.61434  0.42999  1.0000
  C   C804      1.0  0.80583  0.52785  0.28612  1.0000
  N   N66       1.0  0.77277  0.52369  0.30510  1.0000
  H   H796      1.0  0.76342  0.53062  0.35834  1.0000
  S   S264      1.0  0.89960  0.55858  0.49859  1.0000
  H   H797      1.0  0.84359  0.55485  0.46837  1.0000
  H   H798      1.0  0.95849  0.60057  0.46799  1.0000
  H   H799      1.0  0.74344  0.51958  0.32400  1.0000
  H   H800      1.0  0.74250  0.70012  0.42500  1.0000
  C   C805      1.0  0.82341  0.57375  0.00682  1.0000
  H   H801      1.0  0.86659  0.62278  0.03822  1.0000
  H   H802      1.0  0.77738  0.53083  0.21077  1.0000
  C   C806      1.0  0.85853  0.59191  0.02088  1.0000
  H   H803      1.0  0.96270  0.57921  0.45031  1.0000
  C   C807      1.0  0.92063  0.56648  0.36689  1.0000
  Fe  Fe131     1.0  0.83303  0.49380  0.21836  1.0000
  H   H804      1.0  0.83183  0.62118  0.03354  1.0000
  C   C808      1.0  0.94895  0.58086  0.02020  1.0000
  H   H805      1.0  0.79192  0.58662  0.04006  1.0000
  C   C809      1.0  0.93196  0.56744  0.39989  1.0000
  N   N67       1.0  0.81962  0.59055  0.01495  1.0000
  N   N68       1.0  0.93747  0.56100  0.02453  1.0000
  C   C810      1.0  0.95695  0.59341  0.05180  1.0000
  H   H806      1.0  0.75268  0.52495  0.26117  1.0000
  C   C811      1.0  0.76774  0.52627  0.26859  1.0000
  C   C812      1.0  0.85447  0.60883  0.02994  1.0000
  H   H807      1.0  0.91460  0.55274  0.34992  1.0000
  C   C813      1.0  0.83479  0.60783  0.02710  1.0000
  H   H808      1.0  0.93466  0.55427  0.40827  1.0000
  C   C814      1.0  0.94211  0.56508  0.09207  1.0000
  N   N69       1.0  0.93915  0.58458  0.42179  1.0000
  C   C815      1.0  0.91631  0.58304  0.35682  1.0000
  C   C816      1.0  0.75791  0.51940  0.33482  1.0000
  H   H809      1.0  0.93876  0.55880  0.12009  1.0000
  C   C817      1.0  0.93488  0.60087  0.41227  1.0000
  H   H810      1.0  0.83258  0.62395  0.47048  1.0000
  H   H811      1.0  0.90697  0.58217  0.33192  1.0000
  H   H812      1.0  0.82060  0.52812  0.29324  1.0000
  C   C818      1.0  0.95341  0.58545  0.08795  1.0000
  H   H813      1.0  0.81082  0.55833  0.46321  1.0000
  H   H814      1.0  0.96571  0.60923  0.04809  1.0000
  C   C819      1.0  0.80077  0.53028  0.24877  1.0000
  S   S265      1.0  0.96916  0.64372  0.47960  1.0000
  C   C820      1.0  0.95090  0.58507  0.45625  1.0000
  H   H815      1.0  0.91988  0.61321  0.37246  1.0000
  C   C821      1.0  0.78165  0.52957  0.23990  1.0000
  H   H816      1.0  0.95919  0.59506  0.11276  1.0000
  H   H817      1.0  0.92487  0.53733  0.06339  1.0000
  C   C822      1.0  0.82053  0.56472  0.48767  1.0000
  C   C823      1.0  0.93419  0.55301  0.05984  1.0000
  H   H818      1.0  0.81145  0.53216  0.22654  1.0000
  H   H819      1.0  0.74472  0.53638  0.07936  1.0000
  C   C824      1.0  0.84292  0.57421  0.00947  1.0000
  H   H820      1.0  0.79544  0.52209  0.34285  1.0000
  H   H821      1.0  0.87374  0.59250  0.02256  1.0000
  H   H822      1.0  0.84604  0.56098  0.00260  1.0000
  C   C825      1.0  0.79911  0.58989  0.01208  1.0000
  S   S266      1.0  0.74077  0.60482  0.49333  1.0000
  H   H823      1.0  0.79430  0.58392  0.48503  1.0000
  H   H824      1.0  0.79889  0.60436  0.00203  1.0000
  H   H825      1.0  0.86561  0.62815  0.49917  1.0000
  Fe  Fe132     1.0  0.91618  0.61139  0.88562  1.0000
  S   S267      1.0  0.93294  0.64140  0.91432  1.0000
  S   S268      1.0  0.90527  0.60769  0.82350  1.0000
  Fe  Fe133     1.0  0.90622  0.59024  0.96326  1.0000
  C   C826      1.0  0.92934  0.54799  0.99113  1.0000
  Fe  Fe134     1.0  0.90717  0.63207  0.95436  1.0000
  H   H826      1.0  0.85549  0.58806  0.57386  1.0000
  Fe  Fe135     1.0  0.94648  0.62496  0.95331  1.0000
  C   C827      1.0  0.85632  0.65479  0.86966  1.0000
  S   S269      1.0  0.88987  0.60333  0.92423  1.0000
  S   S270      1.0  0.93097  0.59521  0.92204  1.0000
  Fe  Fe136     1.0  0.77162  0.62283  0.93978  1.0000
  S   S271      1.0  0.80285  0.64688  0.94241  1.0000
  Fe  Fe137     1.0  0.90382  0.62547  0.55657  1.0000
  S   S272      1.0  0.90022  0.59647  0.58400  1.0000
  C   C828      1.0  0.81993  0.62810  0.52313  1.0000
  Fe  Fe138     1.0  0.94464  0.63028  0.52293  1.0000
  S   S273      1.0  0.94341  0.60187  0.54995  1.0000
  S   S274      1.0  0.75744  0.59101  0.57100  1.0000
  C   C829      1.0  0.95637  0.68751  0.63060  1.0000
  Fe  Fe139     1.0  0.93232  0.61230  0.60228  1.0000
  S   S275      1.0  0.94587  0.61387  0.66196  1.0000
  S   S276      1.0  0.93583  0.64169  0.57641  1.0000
  Fe  Fe140     1.0  0.76764  0.61720  0.53236  1.0000
  Fe  Fe141     1.0  0.74293  0.58475  0.97424  1.0000
  C   C830      1.0  0.85762  0.63333  0.55554  1.0000
  H   H827      1.0  0.82504  0.63847  0.85580  1.0000
  S   S277      1.0  0.75392  0.63545  0.56552  1.0000
  H   H828      1.0  0.90416  0.66767  0.89693  1.0000
  C   C831      1.0  0.82345  0.63175  0.56203  1.0000
  C   C832      1.0  0.84233  0.63465  0.57804  1.0000
  H   H829      1.0  0.81184  0.63296  0.57957  1.0000
  H   H830      1.0  0.84512  0.63809  0.60798  1.0000
  H   H831      1.0  0.90235  0.64122  0.69877  1.0000
  H   H832      1.0  0.89883  0.63066  0.65124  1.0000
  C   C833      1.0  0.91698  0.60895  0.77909  1.0000
  C   C834      1.0  0.90507  0.60485  0.74569  1.0000
  C   C835      1.0  0.91356  0.60586  0.70975  1.0000
  C   C836      1.0  0.93418  0.61113  0.70667  1.0000
  C   C837      1.0  0.94610  0.61527  0.74004  1.0000
  C   C838      1.0  0.93760  0.61418  0.77603  1.0000
  H   H833      1.0  0.88909  0.60064  0.74766  1.0000
  H   H834      1.0  0.90414  0.60236  0.68447  1.0000
  H   H835      1.0  0.96207  0.61936  0.73805  1.0000
  H   H836      1.0  0.94699  0.61737  0.80134  1.0000
  C   C839      1.0  0.86611  0.64855  0.96568  1.0000
  C   C840      1.0  0.84292  0.62119  0.84311  1.0000
  C   C841      1.0  0.86212  0.62096  0.84420  1.0000
  C   C842      1.0  0.82642  0.64592  0.95332  1.0000
  C   C843      1.0  0.83150  0.62937  0.94489  1.0000
  C   C844      1.0  0.85149  0.63081  0.95046  1.0000
  C   C845      1.0  0.90169  0.64457  0.66829  1.0000
  H   H837      1.0  0.92679  0.55660  0.96708  1.0000
  H   H838      1.0  0.82029  0.61585  0.93274  1.0000
  H   H839      1.0  0.85553  0.61829  0.94305  1.0000
  H   H840      1.0  0.88881  0.64915  0.66354  1.0000
  Fe  Fe142     1.0  0.74050  0.59250  0.88795  1.0000
  H   H841      1.0  0.78295  0.56136  0.51209  1.0000
  S   S278      1.0  0.89150  0.65214  0.97358  1.0000
  H   H842      1.0  0.85381  0.66779  0.88027  1.0000
  C   C846      1.0  0.95640  0.67369  0.65780  1.0000
  H   H843      1.0  0.93840  0.64912  0.69118  1.0000
  C   C847      1.0  0.86069  0.66464  0.97484  1.0000
  S   S279      1.0  0.88137  0.63820  0.57671  1.0000
  C   C848      1.0  0.87812  0.63779  0.85820  1.0000
  C   C849      1.0  0.84567  0.58118  0.54974  1.0000
  H   H844      1.0  0.89807  0.68252  0.86159  1.0000
  S   S280      1.0  0.74868  0.62537  0.89811  1.0000
  H   H845      1.0  0.83747  0.67633  0.97458  1.0000
  Fe  Fe143     1.0  0.91139  0.58909  0.52883  1.0000
  C   C850      1.0  0.79526  0.57636  0.51179  1.0000
  N   N70       1.0  0.87505  0.65431  0.87113  1.0000
  H   H846      1.0  0.97036  0.69786  0.61974  1.0000
  H   H847      1.0  0.93975  0.54082  0.98245  1.0000
  C   C851      1.0  0.93822  0.66006  0.67065  1.0000
  C   C852      1.0  0.83997  0.63823  0.85579  1.0000
  H   H848      1.0  0.88758  0.67969  0.90841  1.0000
  C   C853      1.0  0.85169  0.57112  0.52155  1.0000
  S   S281      1.0  0.76481  0.59051  0.92663  1.0000
  C   C854      1.0  0.89206  0.67197  0.88497  1.0000
  H   H849      1.0  0.86612  0.56979  0.52383  1.0000
  C   C855      1.0  0.85389  0.62902  0.51683  1.0000
  H   H850      1.0  0.89299  0.63746  0.85889  1.0000
  H   H851      1.0  0.86469  0.60783  0.83438  1.0000
  H   H852      1.0  0.93796  0.69790  0.59487  1.0000
  H   H853      1.0  0.75445  0.61840  0.80484  1.0000
  C   C856      1.0  0.82697  0.58264  0.54638  1.0000
  H   H854      1.0  0.90625  0.67327  0.61807  1.0000
  C   C857      1.0  0.93821  0.68756  0.61668  1.0000
  S   S282      1.0  0.92217  0.61871  0.99604  1.0000
  N   N71       1.0  0.92048  0.66010  0.65670  1.0000
  H   H855      1.0  0.83034  0.60817  0.83263  1.0000
  C   C858      1.0  0.92029  0.67360  0.63000  1.0000
  H   H856      1.0  0.95187  0.58721  0.99224  1.0000
  C   C859      1.0  0.74875  0.60890  0.77997  1.0000
  C   C860      1.0  0.84116  0.66344  0.96820  1.0000
  H   H857      1.0  0.75989  0.63323  0.74093  1.0000
  S   S283      1.0  0.97830  0.63045  0.97565  1.0000
  C   C861      1.0  0.75183  0.61727  0.74361  1.0000
  H   H858      1.0  0.82251  0.59062  0.56832  1.0000
  H   H859      1.0  0.97036  0.67307  0.66815  1.0000
  H   H860      1.0  0.79285  0.58561  0.53511  1.0000
  N   N72       1.0  0.81474  0.57459  0.51546  1.0000
  S   S284      1.0  0.88869  0.56088  0.99175  1.0000
  S   S285      1.0  0.75117  0.61732  0.98948  1.0000
  S   S286      1.0  0.79690  0.62562  0.50134  1.0000
  H   H861      1.0  0.87178  0.67837  0.98661  1.0000
  H   H862      1.0  0.78974  0.57809  0.99156  1.0000
  C   C862      1.0  0.74411  0.60533  0.71079  1.0000
  Fe  Fe144     1.0  0.74219  0.60831  0.60308  1.0000
  C   C863      1.0  0.73790  0.58838  0.78403  1.0000
  S   S287      1.0  0.74613  0.61736  0.66642  1.0000
  C   C864      1.0  0.83519  0.62668  0.50064  1.0000
  H   H863      1.0  0.91448  0.53625  0.99703  1.0000
  H   H864      1.0  0.81134  0.55991  0.99799  1.0000
  S   S288      1.0  0.91270  0.61700  0.50010  1.0000
