data_image0
_chemical_formula_structural       H2CFeS2FeNFeS3FeS2FeHFeCFeCS2C3HCH2C5NC6H5CHCH4SCHSHC3H5CH2CH2C3H5SCSHC2HC5NHSHC2H3CHSHC2HSFeSCSHSH2CHFeHC2HCHCSH2SC2HCNSNHCSHNC6H5SH2CHCHCFeHC3FeSHC4HC3HCHSCNC3H2CSCSCHNCH2CSFeHC3H2CH3CH3CSC3H2FeH2CH4CFeCHFeNHC2HC3HCH2CH3SCHCS2C2HFeCSHCH2CSCNHCNH2CHCH2C3H2CH3C2SH5C3HCS2CH2CNC3H2C2H3C2HC3H2SCH3FeCFeH2FeSHFeCSC2SC2FeSHSCH7CSCSCHCH3CNC4H3CSC2H2CFeHSFeCFeSHFeSHFeSFeHSFeS2FeCHFeHFeS3H2CHCH2C3HC6H5CH2CHNCHSHCH4S2CSH2CSHCH2C4SC3HCH2C3SCNC4H2C2H3SFeS2FeHFeHSHFeS2FeHFeC2FeS2H3C4HCSH2C7H4CHC4HSHC2HC2HCHC3H2CSCSCHCHSHFeCNC4H4CNC4FeH4C3H3FeSFeCHSC2SCFeSC3HC2NH3SCH7CSH3CS2HCHFeHCHC2HCSCSHFeHSC2H3SCHSC4HNCHCH4C2H5C5SHS2HSCHNC2HCHSHC4H3FeNFeSCFeH4CH2CH2CHC2H4SHC2H2CHC2HC5NS2C2H6CS2CH2C3HCHSH4C3HSH2C2H2CHCHN2HNSC2HCHCFeSCFeHSH2S2HFeSCSH2C3H2SHC3H2CHC2H2SC2HNH3C2HSFeHFeCFeC2H2C2FeC2HNCHFeH2CHNH3CHSHFeSHFeSC2SFeS2FeHSFeCFeS3C5H2C2HC7H5C2NH2C2HC2HNHC5H2NCHCHFeH3CS2H3C2HC2NHC2HCSFeCHCH3CHSC2SH2C3
_chemical_formula_sum              "H384 C384 Fe64 S128 N32"
_cell_length_a       38.6238
_cell_length_b       33.3908
_cell_length_c       38.5696
_cell_angle_alpha    90.6415
_cell_angle_beta     89.1791
_cell_angle_gamma    89.4886

_space_group_name_H-M_alt    "P 1"
_space_group_IT_number       1

loop_
  _space_group_symop_operation_xyz
  'x, y, z'

loop_
  _atom_site_type_symbol
  _atom_site_label
  _atom_site_symmetry_multiplicity
  _atom_site_fract_x
  _atom_site_fract_y
  _atom_site_fract_z
  _atom_site_occupancy
  H   H1        1.0  0.14642  0.02943  0.28829  1.0000
  H   H2        1.0  0.43058  0.42669  0.20255  1.0000
  C   C1        1.0  0.04879  0.03689  0.26551  1.0000
  Fe  Fe1       1.0  0.46841  0.15490  0.17781  1.0000
  S   S1        1.0  0.42305  0.11494  0.16829  1.0000
  S   S2        1.0  0.46842  0.22182  0.16645  1.0000
  Fe  Fe2       1.0  0.43991  0.08276  0.21644  1.0000
  N   N1        1.0  0.44964  0.37187  0.22372  1.0000
  Fe  Fe3       1.0  0.46170  0.07467  0.13984  1.0000
  S   S3        1.0  0.45161  0.04908  0.08602  1.0000
  S   S4        1.0  0.48341  0.12554  0.22772  1.0000
  S   S5        1.0  0.40890  0.06974  0.26556  1.0000
  Fe  Fe4       1.0  0.34225  0.40923  0.17668  1.0000
  S   S6        1.0  0.37936  0.43400  0.13743  1.0000
  S   S7        1.0  0.34315  0.34405  0.19379  1.0000
  Fe  Fe5       1.0  0.30693  0.49071  0.18961  1.0000
  H   H3        1.0  0.09392  0.48254  0.31623  1.0000
  Fe  Fe6       1.0  0.33324  0.46788  0.11672  1.0000
  C   C2        1.0  0.41369  0.32874  0.25799  1.0000
  Fe  Fe7       1.0  0.38474  0.48495  0.17547  1.0000
  C   C3        1.0  0.24216  0.49281  0.26931  1.0000
  S   S8        1.0  0.29529  0.43922  0.15349  1.0000
  S   S9        1.0  0.35029  0.45852  0.21632  1.0000
  C   C4        1.0  0.35874  0.19381  0.10630  1.0000
  C   C5        1.0  0.29592  0.50252  0.03679  1.0000
  C   C6        1.0  0.38375  0.22364  0.10537  1.0000
  H   H4        1.0  0.47055  0.01748  0.26574  1.0000
  C   C7        1.0  0.08113  0.48159  0.29057  1.0000
  H   H5        1.0  0.02155  0.03910  0.25958  1.0000
  H   H6        1.0  0.48061  0.18072  0.09270  1.0000
  C   C8        1.0  0.44985  0.50560  0.29009  1.0000
  C   C9        1.0  0.47570  0.02622  0.32058  1.0000
  C   C10       1.0  0.40169  0.14612  0.08533  1.0000
  C   C11       1.0  0.07239  0.06266  0.24968  1.0000
  C   C12       1.0  0.10765  0.05967  0.25790  1.0000
  N   N2        1.0  0.42634  0.17531  0.08561  1.0000
  C   C13       1.0  0.43224  0.25429  0.17240  1.0000
  C   C14       1.0  0.40240  0.24259  0.19043  1.0000
  C   C15       1.0  0.37488  0.27008  0.19588  1.0000
  C   C16       1.0  0.37683  0.30937  0.18324  1.0000
  C   C17       1.0  0.40624  0.32060  0.16425  1.0000
  C   C18       1.0  0.43382  0.29322  0.15898  1.0000
  H   H7        1.0  0.40078  0.21263  0.20075  1.0000
  H   H8        1.0  0.35221  0.26109  0.21056  1.0000
  H   H9        1.0  0.40803  0.35062  0.15422  1.0000
  H   H10       1.0  0.45670  0.30245  0.14478  1.0000
  H   H11       1.0  0.12606  0.07947  0.24568  1.0000
  C   C19       1.0  0.46210  0.16592  0.07490  1.0000
  H   H12       1.0  0.43716  0.23697  0.09499  1.0000
  C   C20       1.0  0.37192  0.03904  0.26962  1.0000
  H   H13       1.0  0.40836  0.11573  0.07740  1.0000
  H   H14       1.0  0.39920  0.38807  0.24285  1.0000
  H   H15       1.0  0.22002  0.46063  0.31241  1.0000
  H   H16       1.0  0.14119  0.44457  0.27833  1.0000
  S   S10       1.0  0.32606  0.47100  0.05810  1.0000
  C   C21       1.0  0.36047  0.01498  0.24227  1.0000
  H   H17       1.0  0.46694  0.17621  0.04802  1.0000
  S   S11       1.0  0.47394  0.03859  0.18713  1.0000
  H   H18       1.0  0.46706  0.40541  0.18020  1.0000
  C   C22       1.0  0.45530  0.41016  0.20641  1.0000
  C   C23       1.0  0.43897  0.29868  0.25566  1.0000
  C   C24       1.0  0.41952  0.36544  0.24187  1.0000
  H   H19       1.0  0.08768  0.06257  0.15575  1.0000
  H   H20       1.0  0.34845  0.13128  0.09664  1.0000
  H   H21       1.0  0.26093  0.46960  0.26271  1.0000
  H   H22       1.0  0.37401  0.01532  0.21753  1.0000
  H   H23       1.0  0.43642  0.49273  0.31206  1.0000
  C   C25       1.0  0.47493  0.34292  0.22202  1.0000
  H   H24       1.0  0.37718  0.25405  0.11353  1.0000
  H   H25       1.0  0.38906  0.32314  0.27085  1.0000
  C   C26       1.0  0.41762  0.21381  0.09482  1.0000
  H   H26       1.0  0.49878  0.34799  0.20761  1.0000
  H   H27       1.0  0.10282  0.04580  0.09417  1.0000
  C   C27       1.0  0.36764  0.15480  0.09602  1.0000
  C   C28       1.0  0.16040  0.47592  0.23382  1.0000
  C   C29       1.0  0.48712  0.03767  0.05778  1.0000
  H   H28       1.0  0.41366  0.48269  0.25286  1.0000
  H   H29       1.0  0.48926  0.28216  0.23490  1.0000
  H   H30       1.0  0.47260  0.42938  0.22210  1.0000
  H   H31       1.0  0.11737  0.11134  0.32822  1.0000
  H   H32       1.0  0.33257  0.20094  0.11512  1.0000
  S   S12       1.0  0.05887  0.09908  0.21974  1.0000
  C   C30       1.0  0.15486  0.50767  0.21134  1.0000
  S   S13       1.0  0.50584  0.11668  0.14634  1.0000
  H   H33       1.0  0.43422  0.26952  0.26685  1.0000
  C   C31       1.0  0.21900  0.48783  0.29744  1.0000
  C   C32       1.0  0.07543  0.03757  0.14265  1.0000
  H   H34       1.0  0.46763  0.13319  0.07582  1.0000
  C   C33       1.0  0.08395  0.02810  0.10823  1.0000
  C   C34       1.0  0.13591  0.46812  0.25992  1.0000
  C   C35       1.0  0.03459  0.05881  0.02755  1.0000
  C   C36       1.0  0.46989  0.30579  0.23773  1.0000
  C   C37       1.0  0.11926  0.03128  0.28194  1.0000
  N   N3        1.0  0.10635  0.49083  0.26308  1.0000
  H   H35       1.0  0.05914  0.50335  0.29163  1.0000
  S   S14       1.0  0.43712  0.51252  0.18583  1.0000
  H   H36       1.0  0.36279  0.05667  0.32296  1.0000
  C   C38       1.0  0.35408  0.03817  0.30165  1.0000
  C   C39       1.0  0.43688  0.49989  0.25655  1.0000
  H   H37       1.0  0.04392  0.02274  0.18678  1.0000
  H   H38       1.0  0.45305  0.04567  0.32276  1.0000
  H   H39       1.0  0.18417  0.45840  0.23184  1.0000
  C   C40       1.0  0.48109  0.02644  0.02313  1.0000
  H   H40       1.0  0.07033  0.45128  0.28631  1.0000
  S   S15       1.0  0.16369  0.50864  0.33949  1.0000
  H   H41       1.0  0.05221  0.08362  0.02470  1.0000
  C   C41       1.0  0.01251  0.05735  0.05686  1.0000
  C   C42       1.0  0.05052  0.01493  0.16012  1.0000
  H   H42       1.0  0.01336  0.08083  0.07628  1.0000
  S   S16       1.0  0.33817  0.21213  0.67574  1.0000
  Fe  Fe8       1.0  0.33204  0.07483  0.61774  1.0000
  S   S17       1.0  0.29348  0.11809  0.64131  1.0000
  C   C43       1.0  0.01550  0.49221  0.50285  1.0000
  S   S18       1.0  0.32419  0.02965  0.65935  1.0000
  H   H43       1.0  0.17403  0.12206  0.35692  1.0000
  S   S19       1.0  0.37765  0.10319  0.64437  1.0000
  H   H44       1.0  0.40193  0.15564  0.58207  1.0000
  H   H45       1.0  0.33794  0.01633  0.49405  1.0000
  C   C44       1.0  0.39012  0.31812  0.67745  1.0000
  H   H46       1.0  0.42151  0.42146  0.58326  1.0000
  Fe  Fe9       1.0  0.45836  0.48451  0.63131  1.0000
  H   H47       1.0  0.45530  0.43526  0.52922  1.0000
  C   C45       1.0  0.12378  0.09520  0.35160  1.0000
  C   C46       1.0  0.43360  0.39107  0.58204  1.0000
  H   H48       1.0  0.45981  0.25670  0.66496  1.0000
  C   C47       1.0  0.25089  0.02718  0.48314  1.0000
  H   H49       1.0  0.48796  0.03004  0.37486  1.0000
  C   C48       1.0  0.49516  0.01729  0.34976  1.0000
  S   S20       1.0  0.45894  0.34243  0.67134  1.0000
  H   H50       1.0  0.43311  0.37935  0.60894  1.0000
  H   H51       1.0  0.07626  0.06248  0.35232  1.0000
  S   S21       1.0  0.21724  0.01981  0.45269  1.0000
  C   C49       1.0  0.31136  0.02452  0.50015  1.0000
  C   C50       1.0  0.47580  0.41727  0.54034  1.0000
  H   H52       1.0  0.26225  0.06807  0.56419  1.0000
  C   C51       1.0  0.24289  0.04610  0.51512  1.0000
  N   N4        1.0  0.46903  0.39322  0.56807  1.0000
  S   S22       1.0  0.41601  0.45341  0.66133  1.0000
  N   N5        1.0  0.10914  0.04546  0.39381  1.0000
  H   H53       1.0  0.39936  0.16592  0.53619  1.0000
  C   C52       1.0  0.30332  0.04313  0.53222  1.0000
  S   S23       1.0  0.45117  0.50581  0.57610  1.0000
  H   H54       1.0  0.18833  0.08342  0.40978  1.0000
  N   N6        1.0  0.35079  0.16321  0.56232  1.0000
  C   C53       1.0  0.32629  0.14830  0.54053  1.0000
  C   C54       1.0  0.34189  0.19120  0.58713  1.0000
  C   C55       1.0  0.29152  0.15974  0.54445  1.0000
  C   C56       1.0  0.30744  0.20382  0.59144  1.0000
  C   C57       1.0  0.28208  0.18762  0.57018  1.0000
  C   C58       1.0  0.38694  0.15003  0.55813  1.0000
  H   H55       1.0  0.33337  0.12626  0.52070  1.0000
  H   H56       1.0  0.36128  0.20339  0.60429  1.0000
  H   H57       1.0  0.27205  0.14635  0.52805  1.0000
  H   H58       1.0  0.30044  0.22516  0.61188  1.0000
  H   H59       1.0  0.25515  0.19629  0.57396  1.0000
  S   S24       1.0  0.33746  0.05488  0.56102  1.0000
  H   H60       1.0  0.38833  0.11717  0.55301  1.0000
  H   H61       1.0  0.41780  0.37121  0.56547  1.0000
  C   C59       1.0  0.26886  0.05372  0.53966  1.0000
  H   H62       1.0  0.48953  0.35120  0.60392  1.0000
  C   C60       1.0  0.16356  0.07949  0.39724  1.0000
  H   H63       1.0  0.21638  0.05470  0.52104  1.0000
  C   C61       1.0  0.10061  0.06738  0.36533  1.0000
  Fe  Fe10      1.0  0.33833  0.14357  0.67122  1.0000
  H   H64       1.0  0.07338  0.02658  0.43243  1.0000
  C   C62       1.0  0.15552  0.10112  0.36763  1.0000
  C   C63       1.0  0.13996  0.05152  0.40999  1.0000
  C   C64       1.0  0.28530  0.01622  0.47586  1.0000
  Fe  Fe11      1.0  0.45830  0.41083  0.67760  1.0000
  S   S25       1.0  0.49942  0.44021  0.64472  1.0000
  H   H65       1.0  0.14675  0.03417  0.43258  1.0000
  C   C65       1.0  0.40698  0.23642  0.66946  1.0000
  C   C66       1.0  0.37229  0.24770  0.67454  1.0000
  C   C67       1.0  0.49489  0.37058  0.58211  1.0000
  C   C68       1.0  0.42485  0.30682  0.67272  1.0000
  H   H66       1.0  0.41380  0.20505  0.66663  1.0000
  C   C69       1.0  0.43304  0.26583  0.66855  1.0000
  C   C70       1.0  0.50948  0.42046  0.52687  1.0000
  C   C71       1.0  0.36406  0.28872  0.67832  1.0000
  H   H67       1.0  0.04260  0.51226  0.45681  1.0000
  C   C72       1.0  0.08512  0.01566  0.40762  1.0000
  H   H68       1.0  0.13301  0.46305  0.84121  1.0000
  S   S26       1.0  0.33009  0.10262  0.71711  1.0000
  C   C73       1.0  0.46226  0.06417  0.78758  1.0000
  N   N7        1.0  0.13512  0.08585  0.77675  1.0000
  C   C74       1.0  0.20182  0.02059  0.81208  1.0000
  C   C75       1.0  0.03381  0.02882  0.00169  1.0000
  C   C76       1.0  0.11097  0.44588  0.79219  1.0000
  H   H69       1.0  0.26445  0.07266  0.76851  1.0000
  H   H70       1.0  0.17148  0.10748  0.81377  1.0000
  C   C77       1.0  0.30807  0.49146  0.77010  1.0000
  S   S27       1.0  0.47269  0.44668  0.72548  1.0000
  C   C78       1.0  0.24229  0.05360  0.77259  1.0000
  S   S28       1.0  0.08886  0.02602  0.86917  1.0000
  C   C79       1.0  0.22433  0.03857  0.74413  1.0000
  H   H71       1.0  0.42222  0.08499  0.75325  1.0000
  N   N8        1.0  0.16596  0.48703  0.76246  1.0000
  C   C80       1.0  0.34295  0.46094  0.84573  1.0000
  H   H72       1.0  0.46479  0.09292  0.80049  1.0000
  H   H73       1.0  0.09090  0.05293  0.79357  1.0000
  C   C81       1.0  0.39862  0.46947  0.81766  1.0000
  S   S29       1.0  0.06031  0.03458  0.96416  1.0000
  Fe  Fe12      1.0  0.28848  0.07442  0.68508  1.0000
  H   H74       1.0  0.16356  0.09365  0.69372  1.0000
  C   C82       1.0  0.11420  0.44829  0.75619  1.0000
  C   C83       1.0  0.23102  0.04463  0.80648  1.0000
  C   C84       1.0  0.14689  0.08546  0.71538  1.0000
  H   H75       1.0  0.29302  0.49641  0.88010  1.0000
  H   H76       1.0  0.12708  0.12451  0.82018  1.0000
  C   C85       1.0  0.31726  0.51377  0.88319  1.0000
  H   H77       1.0  0.29341  0.46430  0.76656  1.0000
  H   H78       1.0  0.41881  0.45908  0.79974  1.0000
  H   H79       1.0  0.36722  0.41697  0.81144  1.0000
  C   C86       1.0  0.36956  0.44600  0.82405  1.0000
  H   H80       1.0  0.03725  0.51325  0.83144  1.0000
  H   H81       1.0  0.35135  0.47054  0.73829  1.0000
  H   H82       1.0  0.14018  0.07394  0.83053  1.0000
  C   C87       1.0  0.16337  0.48405  0.79775  1.0000
  S   S30       1.0  0.23546  0.05170  0.70125  1.0000
  C   C88       1.0  0.43811  0.05979  0.76083  1.0000
  C   C89       1.0  0.14209  0.46901  0.74166  1.0000
  C   C90       1.0  0.14383  0.09885  0.81197  1.0000
  H   H83       1.0  0.09451  0.43559  0.73961  1.0000
  H   H84       1.0  0.17753  0.11625  0.75294  1.0000
  Fe  Fe13      1.0  0.50984  0.47971  0.69084  1.0000
  H   H85       1.0  0.11235  0.05028  0.68421  1.0000
  H   H86       1.0  0.30989  0.47937  0.98607  1.0000
  C   C91       1.0  0.48305  0.03170  0.79780  1.0000
  H   H87       1.0  0.01837  0.49760  0.77128  1.0000
  H   H88       1.0  0.21902  0.49035  0.74806  1.0000
  H   H89       1.0  0.24480  0.05660  0.82847  1.0000
  H   H90       1.0  0.18229  0.49824  0.81422  1.0000
  C   C92       1.0  0.34084  0.49490  0.75402  1.0000
  Fe  Fe14      1.0  0.36667  0.06069  0.68819  1.0000
  C   C93       1.0  0.15476  0.09805  0.74906  1.0000
  H   H91       1.0  0.45482  0.02561  0.01379  1.0000
  Fe  Fe15      1.0  0.43282  0.49121  0.70695  1.0000
  N   N9        1.0  0.34526  0.49824  0.86056  1.0000
  H   H92       1.0  0.38334  0.34946  0.68069  1.0000
  C   C94       1.0  0.43462  0.02280  0.74401  1.0000
  C   C95       1.0  0.50885  0.01593  0.00049  1.0000
  H   H93       1.0  0.08882  0.43111  0.80381  1.0000
  C   C96       1.0  0.29351  0.50034  0.00041  1.0000
  C   C97       1.0  0.13575  0.46372  0.81316  1.0000
  C   C98       1.0  0.10675  0.06233  0.77172  1.0000
  H   H94       1.0  0.14380  0.47161  0.71367  1.0000
  C   C99       1.0  0.11841  0.06083  0.71010  1.0000
  H   H95       1.0  0.32004  0.44296  0.84984  1.0000
  H   H96       1.0  0.35884  0.03602  0.77385  1.0000
  C   C100      1.0  0.09805  0.04936  0.73839  1.0000
  H   H97       1.0  0.33733  0.29783  0.68226  1.0000
  H   H98       1.0  0.07583  0.03013  0.73470  1.0000
  H   H99       1.0  0.35446  0.01918  0.81762  1.0000
  S   S31       1.0  0.40394  0.01515  0.71101  1.0000
  C   C101      1.0  0.19501  0.50891  0.74710  1.0000
  H   H100      1.0  0.32509  0.51254  0.91078  1.0000
  C   C102      1.0  0.40096  0.50720  0.83324  1.0000
  S   S32       1.0  0.19685  0.91429  0.32284  1.0000
  S   S33       1.0  0.10828  0.97229  0.33071  1.0000
  C   C103      1.0  0.06036  0.00871  0.28970  1.0000
  C   C104      1.0  0.27453  0.52966  0.05510  1.0000
  H   H101      1.0  0.02866  0.95101  0.09642  1.0000
  Fe  Fe16      1.0  0.24144  0.95637  0.33084  1.0000
  C   C105      1.0  0.40519  0.59007  0.27079  1.0000
  S   S34       1.0  0.08959  0.58619  0.31488  1.0000
  H   H102      1.0  0.40901  0.57712  0.32535  1.0000
  C   C106      1.0  0.19415  0.51751  0.30594  1.0000
  H   H103      1.0  0.19726  0.75749  0.30172  1.0000
  H   H104      1.0  0.17899  0.79314  0.24871  1.0000
  C   C107      1.0  0.48386  0.53938  0.23346  1.0000
  S   S35       1.0  0.34232  0.52100  0.15130  1.0000
  C   C108      1.0  0.20080  0.80395  0.26346  1.0000
  N   N10       1.0  0.25505  0.83312  0.30278  1.0000
  H   H105      1.0  0.27610  0.53165  0.08305  1.0000
  C   C109      1.0  0.49671  0.54533  0.26710  1.0000
  N   N11       1.0  0.38570  0.58675  0.24155  1.0000
  H   H106      1.0  0.25952  0.87885  0.26477  1.0000
  H   H107      1.0  0.38922  0.58450  0.18632  1.0000
  C   C110      1.0  0.24606  0.85209  0.27291  1.0000
  H   H108      1.0  0.21506  0.58475  0.24351  1.0000
  C   C111      1.0  0.10034  0.52159  0.24070  1.0000
  H   H109      1.0  0.10398  0.78761  0.32700  1.0000
  H   H110      1.0  0.49766  0.94084  0.03381  1.0000
  C   C112      1.0  0.34014  0.55579  0.27450  1.0000
  C   C113      1.0  0.39282  0.57571  0.30254  1.0000
  C   C114      1.0  0.28315  0.84872  0.32408  1.0000
  H   H111      1.0  0.07322  0.98936  0.06463  1.0000
  H   H112      1.0  0.31147  0.01323  0.33112  1.0000
  C   C115      1.0  0.21106  0.78389  0.29317  1.0000
  H   H113      1.0  0.23466  0.57508  0.05169  1.0000
  H   H114      1.0  0.31458  0.54246  0.27547  1.0000
  H   H115      1.0  0.33752  0.56859  0.22021  1.0000
  C   C116      1.0  0.09557  0.00586  0.29808  1.0000
  C   C117      1.0  0.21856  0.83810  0.25303  1.0000
  S   S36       1.0  0.26835  0.53525  0.21354  1.0000
  H   H116      1.0  0.12016  0.55559  0.19746  1.0000
  H   H117      1.0  0.21080  0.85411  0.23004  1.0000
  H   H118      1.0  0.04185  0.98928  0.30225  1.0000
  H   H119      1.0  0.17436  0.51482  0.19183  1.0000
  H   H120      1.0  0.17393  0.57555  0.29280  1.0000
  C   C118      1.0  0.33154  0.99011  0.24708  1.0000
  C   C119      1.0  0.39887  0.60243  0.20861  1.0000
  C   C120      1.0  0.48575  0.01016  0.28830  1.0000
  H   H121      1.0  0.43098  0.60270  0.26954  1.0000
  C   C121      1.0  0.35332  0.57051  0.24321  1.0000
  S   S37       1.0  0.27794  0.95682  0.28406  1.0000
  S   S38       1.0  0.49195  0.53889  0.33863  1.0000
  C   C122      1.0  0.21625  0.55763  0.25856  1.0000
  H   H122      1.0  0.24586  0.78365  0.33608  1.0000
  H   H123      1.0  0.39069  0.63413  0.20570  1.0000
  C   C123      1.0  0.25106  0.55427  0.03721  1.0000
  N   N12       1.0  0.03453  0.98374  0.14375  1.0000
  C   C124      1.0  0.19296  0.55254  0.28650  1.0000
  C   C125      1.0  0.23854  0.79888  0.31254  1.0000
  C   C126      1.0  0.47946  0.52882  0.29559  1.0000
  H   H124      1.0  0.42762  0.60022  0.20705  1.0000
  H   H125      1.0  0.50622  0.94588  0.24312  1.0000
  C   C127      1.0  0.31363  0.98936  0.27908  1.0000
  C   C128      1.0  0.45366  0.51712  0.22813  1.0000
  H   H126      1.0  0.49712  0.55259  0.21154  1.0000
  H   H127      1.0  0.01266  0.56762  0.26570  1.0000
  H   H128      1.0  0.07691  0.53966  0.24314  1.0000
  C   C129      1.0  0.04244  0.97455  0.10988  1.0000
  C   C130      1.0  0.12549  0.77770  0.34252  1.0000
  H   H129      1.0  0.30747  0.83183  0.31840  1.0000
  C   C131      1.0  0.36014  0.55825  0.30428  1.0000
  C   C132      1.0  0.06752  0.99626  0.09172  1.0000
  C   C133      1.0  0.24065  0.52766  0.24963  1.0000
  H   H130      1.0  0.35041  0.54651  0.32863  1.0000
  H   H131      1.0  0.28772  0.88103  0.31914  1.0000
  S   S39       1.0  0.09682  0.70311  0.33623  1.0000
  C   C134      1.0  0.12461  0.53066  0.21469  1.0000
  H   H132      1.0  0.32294  0.97142  0.22585  1.0000
  H   H133      1.0  0.15079  0.68415  0.01482  1.0000
  H   H134      1.0  0.51135  0.90028  0.06137  1.0000
  Fe  Fe17      1.0  0.16396  0.96288  0.34698  1.0000
  C   C135      1.0  0.32495  0.01362  0.30635  1.0000
  Fe  Fe18      1.0  0.04395  0.56535  0.34661  1.0000
  H   H135      1.0  0.19124  0.65727  0.01402  1.0000
  H   H136      1.0  0.04456  0.59192  0.54490  1.0000
  Fe  Fe19      1.0  0.21699  0.98025  0.40381  1.0000
  S   S40       1.0  0.25401  0.93244  0.38370  1.0000
  H   H137      1.0  0.45545  0.53781  0.50731  1.0000
  Fe  Fe20      1.0  0.20672  0.89397  0.37682  1.0000
  C   C136      1.0  0.08892  0.69497  0.44263  1.0000
  S   S41       1.0  0.17079  0.93967  0.40094  1.0000
  C   C137      1.0  0.01654  0.53696  0.55248  1.0000
  C   C138      1.0  0.03661  0.56402  0.53307  1.0000
  S   S42       1.0  0.12726  0.60740  0.39016  1.0000
  C   C139      1.0  0.18083  0.75264  0.38275  1.0000
  C   C140      1.0  0.50876  0.59206  0.60888  1.0000
  Fe  Fe21      1.0  0.07819  0.58557  0.41588  1.0000
  S   S43       1.0  0.06821  0.59227  0.47391  1.0000
  H   H138      1.0  0.07256  0.66943  0.43757  1.0000
  S   S44       1.0  0.04307  0.62006  0.38104  1.0000
  C   C141      1.0  0.04576  0.55563  0.49830  1.0000
  H   H139      1.0  0.15034  0.80492  0.48950  1.0000
  H   H140      1.0  0.27645  0.84623  0.35214  1.0000
  H   H141      1.0  0.18160  0.78559  0.45787  1.0000
  H   H142      1.0  0.15957  0.69317  0.37721  1.0000
  H   H143      1.0  0.12026  0.66362  0.47934  1.0000
  H   H144      1.0  0.06321  0.73325  0.40626  1.0000
  H   H145      1.0  0.06417  0.00881  0.38901  1.0000
  C   C142      1.0  0.15668  0.72447  0.37079  1.0000
  S   S45       1.0  0.20774  0.82795  0.39126  1.0000
  C   C143      1.0  0.50977  0.54402  0.49464  1.0000
  S   S46       1.0  0.07617  0.52981  0.38346  1.0000
  C   C144      1.0  0.17720  0.79350  0.37499  1.0000
  H   H146      1.0  0.15810  0.72210  0.49030  1.0000
  C   C145      1.0  0.15401  0.79429  0.46231  1.0000
  H   H147      1.0  0.10080  0.79114  0.41829  1.0000
  H   H148      1.0  0.48698  0.62114  0.56481  1.0000
  H   H149      1.0  0.14876  0.81983  0.44479  1.0000
  C   C146      1.0  0.03551  0.51929  0.48341  1.0000
  N   N13       1.0  0.13143  0.76012  0.45527  1.0000
  C   C147      1.0  0.13704  0.72486  0.47216  1.0000
  C   C148      1.0  0.10490  0.76354  0.43230  1.0000
  C   C149      1.0  0.11585  0.69177  0.46612  1.0000
  C   C150      1.0  0.08339  0.73096  0.42548  1.0000
  H   H150      1.0  0.14644  0.83726  0.34841  1.0000
  H   H151      1.0  0.48371  0.58612  0.62075  1.0000
  H   H152      1.0  0.20232  0.74271  0.39828  1.0000
  C   C151      1.0  0.12876  0.73692  0.35073  1.0000
  S   S47       1.0  0.20739  0.00693  0.35103  1.0000
  C   C152      1.0  0.48164  0.53315  0.51613  1.0000
  C   C153      1.0  0.48719  0.51721  0.54918  1.0000
  H   H153      1.0  0.50517  0.55724  0.46960  1.0000
  H   H154      1.0  0.09909  0.98690  0.41190  1.0000
  C   C154      1.0  0.14949  0.80591  0.35468  1.0000
  Fe  Fe22      1.0  0.09194  0.63818  0.35297  1.0000
  H   H155      1.0  0.29193  0.00188  0.45134  1.0000
  S   S48       1.0  0.47111  0.52593  0.67509  1.0000
  Fe  Fe23      1.0  0.12195  0.55424  0.35409  1.0000
  C   C155      1.0  0.51076  0.61182  0.57712  1.0000
  Fe  Fe24      1.0  0.13486  0.98476  0.86586  1.0000
  S   S49       1.0  0.10820  0.93852  0.83352  1.0000
  H   H156      1.0  0.19009  0.51718  0.71978  1.0000
  Fe  Fe25      1.0  0.07339  0.99322  0.91773  1.0000
  S   S50       1.0  0.04171  0.94789  0.88839  1.0000
  H   H157      1.0  0.30463  0.98233  0.83267  1.0000
  Fe  Fe26      1.0  0.09171  0.91168  0.88427  1.0000
  S   S51       1.0  0.09116  0.84470  0.89614  1.0000
  Fe  Fe27      1.0  0.06081  0.97820  0.83982  1.0000
  H   H158      1.0  0.37731  0.98851  0.78571  1.0000
  S   S52       1.0  0.12197  0.95530  0.91663  1.0000
  Fe  Fe28      1.0  0.20029  0.64711  0.86418  1.0000
  S   S53       1.0  0.16386  0.62478  0.90510  1.0000
  S   S54       1.0  0.20483  0.71328  0.85141  1.0000
  Fe  Fe29      1.0  0.22755  0.56249  0.84695  1.0000
  C   C156      1.0  0.05264  0.52304  0.80951  1.0000
  H   H159      1.0  0.36163  0.58749  0.78421  1.0000
  Fe  Fe30      1.0  0.15178  0.57593  0.86662  1.0000
  H   H160      1.0  0.33479  0.99101  0.72643  1.0000
  Fe  Fe31      1.0  0.20851  0.58570  0.92168  1.0000
  S   S55       1.0  0.21864  0.58394  0.97972  1.0000
  S   S56       1.0  0.18551  0.60069  0.82440  1.0000
  S   S57       1.0  0.24621  0.61115  0.88295  1.0000
  H   H161      1.0  0.45276  0.96156  0.74136  1.0000
  H   H162      1.0  0.30355  0.58156  0.81208  1.0000
  C   C157      1.0  0.21611  0.75781  0.93117  1.0000
  H   H163      1.0  0.28056  0.95828  0.70872  1.0000
  C   C158      1.0  0.09248  0.54785  0.75296  1.0000
  H   H164      1.0  0.25626  0.71371  0.92178  1.0000
  H   H165      1.0  0.03530  0.60989  0.83237  1.0000
  C   C159      1.0  0.10320  0.55651  0.78675  1.0000
  C   C160      1.0  0.04189  0.51420  0.77554  1.0000
  C   C161      1.0  0.35482  0.00907  0.79009  1.0000
  H   H166      1.0  0.12666  0.57304  0.79068  1.0000
  C   C162      1.0  0.12211  0.80850  0.88132  1.0000
  C   C163      1.0  0.15243  0.81919  0.86355  1.0000
  C   C164      1.0  0.17705  0.78956  0.85369  1.0000
  C   C165      1.0  0.17166  0.74899  0.86143  1.0000
  C   C166      1.0  0.14111  0.73825  0.87878  1.0000
  C   C167      1.0  0.11657  0.76788  0.88873  1.0000
  H   H167      1.0  0.15701  0.85032  0.85766  1.0000
  H   H168      1.0  0.20056  0.79820  0.84027  1.0000
  H   H169      1.0  0.13656  0.70724  0.88492  1.0000
  H   H170      1.0  0.09318  0.75932  0.90241  1.0000
  H   H171      1.0  0.50200  0.89323  0.98442  1.0000
  C   C168      1.0  0.19545  0.01409  0.74977  1.0000
  H   H172      1.0  0.18147  0.00229  0.72785  1.0000
  H   H173      1.0  0.22690  0.77915  0.91304  1.0000
  C   C169      1.0  0.17122  0.67119  0.99741  1.0000
  H   H174      1.0  0.49548  0.96953  0.78853  1.0000
  N   N14       1.0  0.18678  0.70147  0.97494  1.0000
  C   C170      1.0  0.06214  0.52619  0.74722  1.0000
  H   H175      1.0  0.19956  0.53720  0.76179  1.0000
  S   S58       1.0  0.05155  0.51416  0.70420  1.0000
  H   H176      1.0  0.50389  0.00693  0.97400  1.0000
  C   C171      1.0  0.34658  0.56073  0.78002  1.0000
  H   H177      1.0  0.10805  0.55752  0.73110  1.0000
  H   H178      1.0  0.04408  0.61885  0.73993  1.0000
  H   H179      1.0  0.16172  0.98654  0.78762  1.0000
  H   H180      1.0  0.06146  0.62866  0.79789  1.0000
  S   S59       1.0  0.40359  0.53304  0.74418  1.0000
  S   S60       1.0  0.25521  0.51501  0.81395  1.0000
  C   C172      1.0  0.28604  0.96255  0.73604  1.0000
  S   S61       1.0  0.03519  0.99496  0.78903  1.0000
  H   H181      1.0  0.02698  0.65961  0.81579  1.0000
  H   H182      1.0  0.15970  0.64704  0.98134  1.0000
  C   C173      1.0  0.03457  0.62842  0.80857  1.0000
  S   S62       1.0  0.19273  0.53476  0.88718  1.0000
  H   H183      1.0  0.23031  0.66434  0.96156  1.0000
  C   C174      1.0  0.31374  0.55742  0.79589  1.0000
  H   H184      1.0  0.17081  0.79383  0.94299  1.0000
  H   H185      1.0  0.26821  0.52271  0.95462  1.0000
  C   C175      1.0  0.45538  0.99031  0.75424  1.0000
  C   C176      1.0  0.21752  0.69306  0.95822  1.0000
  C   C177      1.0  0.23260  0.72103  0.93606  1.0000
  C   C178      1.0  0.36045  0.52933  0.75944  1.0000
  S   S63       1.0  0.18834  0.01023  0.85491  1.0000
  C   C179      1.0  0.16996  0.73710  0.96956  1.0000
  C   C180      1.0  0.18414  0.00522  0.78360  1.0000
  C   C181      1.0  0.26249  0.94994  0.76132  1.0000
  H   H186      1.0  0.25076  0.94805  0.81610  1.0000
  C   C182      1.0  0.18456  0.76598  0.94794  1.0000
  H   H187      1.0  0.23848  0.93582  0.75382  1.0000
  H   H188      1.0  0.14489  0.74326  0.98156  1.0000
  C   C183      1.0  0.24858  0.55201  0.00088  1.0000
  C   C184      1.0  0.08364  0.54369  0.81519  1.0000
  C   C185      1.0  0.47958  0.99471  0.78098  1.0000
  S   S64       1.0  0.09723  0.55328  0.85791  1.0000
  C   C186      1.0  0.31640  0.98168  0.74616  1.0000
  N   N15       1.0  0.32274  0.98890  0.78045  1.0000
  C   C187      1.0  0.29465  0.52247  0.79142  1.0000
  C   C188      1.0  0.26995  0.52488  0.98252  1.0000
  C   C189      1.0  0.29983  0.97651  0.80546  1.0000
  C   C190      1.0  0.26943  0.95676  0.79629  1.0000
  H   H189      1.0  0.42295  0.52611  0.82736  1.0000
  H   H190      1.0  0.31077  0.54520  0.87640  1.0000
  C   C191      1.0  0.01866  0.60979  0.74904  1.0000
  C   C192      1.0  0.37396  0.52114  0.85490  1.0000
  H   H191      1.0  0.37565  0.55085  0.86633  1.0000
  H   H192      1.0  0.90960  0.08934  0.06585  1.0000
  H   H193      1.0  0.76631  0.49693  0.26091  1.0000
  S   S65       1.0  0.57016  0.05861  0.20483  1.0000
  Fe  Fe32      1.0  0.95460  0.15785  0.16033  1.0000
  S   S66       1.0  0.91460  0.10995  0.15438  1.0000
  S   S67       1.0  0.95065  0.21904  0.13530  1.0000
  Fe  Fe33      1.0  0.92549  0.09618  0.21032  1.0000
  H   H194      1.0  0.97717  0.19022  0.05714  1.0000
  Fe  Fe34      1.0  0.95987  0.06881  0.14154  1.0000
  H   H195      1.0  0.68493  0.07129  0.32255  1.0000
  S   S68       1.0  0.96330  0.14689  0.21673  1.0000
  H   H196      1.0  0.75150  0.02642  0.20081  1.0000
  Fe  Fe35      1.0  0.83678  0.41288  0.17232  1.0000
  S   S69       1.0  0.87446  0.44200  0.13605  1.0000
  S   S70       1.0  0.84100  0.34863  0.19087  1.0000
  Fe  Fe36      1.0  0.79224  0.48941  0.18032  1.0000
  H   H197      1.0  0.73959  0.50221  0.31978  1.0000
  Fe  Fe37      1.0  0.82775  0.46987  0.11112  1.0000
  C   C193      1.0  0.74011  0.50821  0.26415  1.0000
  C   C194      1.0  0.92803  0.50657  0.25520  1.0000
  Fe  Fe38      1.0  0.00385  0.10186  0.19982  1.0000
  S   S71       1.0  0.79026  0.43606  0.14432  1.0000
  S   S72       1.0  0.83566  0.46340  0.21185  1.0000
  H   H198      1.0  0.93356  0.49313  0.30942  1.0000
  H   H199      1.0  0.79532  0.04128  0.33015  1.0000
  H   H200      1.0  0.93989  0.41854  0.22684  1.0000
  C   C195      1.0  0.52119  0.03871  0.06950  1.0000
  C   C196      1.0  0.69874  0.06827  0.22330  1.0000
  C   C197      1.0  0.85619  0.02103  0.25045  1.0000
  C   C198      1.0  0.81213  0.03546  0.30797  1.0000
  H   H201      1.0  0.89675  0.40577  0.21324  1.0000
  C   C199      1.0  0.96468  0.29561  0.21015  1.0000
  S   S73       1.0  0.88436  0.09728  0.25325  1.0000
  H   H202      1.0  0.93186  0.15368  0.08941  1.0000
  H   H203      1.0  0.73399  0.42683  0.08298  1.0000
  C   C200      1.0  0.58318  0.04651  0.24701  1.0000
  C   C201      1.0  0.91774  0.25351  0.14839  1.0000
  C   C202      1.0  0.89308  0.24384  0.17375  1.0000
  C   C203      1.0  0.86888  0.27292  0.18551  1.0000
  C   C204      1.0  0.86914  0.31191  0.17213  1.0000
  C   C205      1.0  0.89318  0.32125  0.14604  1.0000
  C   C206      1.0  0.91735  0.29212  0.13421  1.0000
  H   H204      1.0  0.89301  0.21418  0.18480  1.0000
  H   H205      1.0  0.85031  0.26539  0.20561  1.0000
  H   H206      1.0  0.89352  0.35104  0.13536  1.0000
  H   H207      1.0  0.93622  0.29978  0.11443  1.0000
  C   C207      1.0  0.85697  0.05826  0.26736  1.0000
  H   H208      1.0  0.98448  0.27871  0.19588  1.0000
  C   C208      1.0  0.71743  0.05076  0.27960  1.0000
  C   C209      1.0  0.68902  0.07109  0.29464  1.0000
  C   C210      1.0  0.66530  0.09030  0.27339  1.0000
  C   C211      1.0  0.92471  0.39829  0.20995  1.0000
  H   H209      1.0  0.93138  0.40427  0.18238  1.0000
  S   S74       1.0  0.96705  0.05026  0.19724  1.0000
  H   H210      1.0  0.73572  0.03558  0.29620  1.0000
  C   C212      1.0  0.56775  0.06484  0.27613  1.0000
  C   C213      1.0  0.57947  0.05554  0.30942  1.0000
  H   H211      1.0  0.54712  0.08658  0.27298  1.0000
  C   C214      1.0  0.94152  0.14193  0.06475  1.0000
  C   C215      1.0  0.95802  0.33577  0.20235  1.0000
  H   H212      1.0  0.83533  0.09403  0.30934  1.0000
  C   C216      1.0  0.72491  0.51126  0.29746  1.0000
  H   H213      1.0  0.97338  0.34994  0.18227  1.0000
  C   C217      1.0  0.75244  0.02888  0.22951  1.0000
  C   C218      1.0  0.83483  0.06530  0.29611  1.0000
  C   C219      1.0  0.60621  0.02738  0.31385  1.0000
  H   H214      1.0  0.70211  0.06720  0.19535  1.0000
  H   H215      1.0  0.56758  0.07003  0.33189  1.0000
  C   C220      1.0  0.92871  0.10618  0.05127  1.0000
  S   S75       1.0  0.96060  0.02314  0.09701  1.0000
  C   C221      1.0  0.71008  0.46733  0.04708  1.0000
  S   S76       1.0  0.81999  0.47092  0.05274  1.0000
  C   C222      1.0  0.79088  0.50527  0.03399  1.0000
  H   H216      1.0  0.65094  0.10243  0.22074  1.0000
  C   C223      1.0  0.66996  0.08868  0.23747  1.0000
  H   H217      1.0  0.64271  0.10530  0.28470  1.0000
  S   S77       1.0  0.99893  0.11762  0.14361  1.0000
  H   H218      1.0  0.72202  0.47111  0.13417  1.0000
  Fe  Fe39      1.0  0.87137  0.49373  0.17395  1.0000
  C   C224      1.0  0.96701  0.16253  0.04646  1.0000
  N   N16       1.0  0.93149  0.35630  0.21864  1.0000
  C   C225      1.0  0.91175  0.33815  0.24356  1.0000
  C   C226      1.0  0.94467  0.50847  0.28742  1.0000
  C   C227      1.0  0.91779  0.29808  0.25211  1.0000
  C   C228      1.0  0.94434  0.27669  0.23513  1.0000
  H   H219      1.0  0.89018  0.35411  0.25585  1.0000
  H   H220      1.0  0.90110  0.28328  0.27074  1.0000
  H   H221      1.0  0.94838  0.24512  0.24041  1.0000
  H   H222      1.0  0.90427  0.48998  0.25253  1.0000
  C   C229      1.0  0.98927  0.02579  0.06071  1.0000
  N   N17       1.0  0.72200  0.04964  0.24437  1.0000
  C   C230      1.0  0.71438  0.48029  0.10847  1.0000
  C   C231      1.0  0.69381  0.50463  0.04343  1.0000
  C   C232      1.0  0.61002  0.01844  0.25137  1.0000
  C   C233      1.0  0.72065  0.45528  0.07982  1.0000
  Fe  Fe40      1.0  0.51621  0.08329  0.19540  1.0000
  H   H223      1.0  0.52628  0.04714  0.09609  1.0000
  H   H224      1.0  0.77636  0.04525  0.23653  1.0000
  H   H225      1.0  0.71523  0.44835  0.02456  1.0000
  H   H226      1.0  0.57507  0.02841  0.05653  1.0000
  C   C234      1.0  0.54886  0.02803  0.04699  1.0000
  C   C235      1.0  0.94137  0.09168  0.01930  1.0000
  C   C236      1.0  0.97922  0.14709  0.01461  1.0000
  H   H227      1.0  0.68622  0.51410  0.01776  1.0000
  H   H228      1.0  0.87304  0.01528  0.22828  1.0000
  H   H229      1.0  0.89489  0.34921  0.64442  1.0000
  Fe  Fe41      1.0  0.83765  0.06872  0.63895  1.0000
  S   S78       1.0  0.79736  0.11696  0.64238  1.0000
  Fe  Fe42      1.0  0.92330  0.50180  0.67923  1.0000
  C   C237      1.0  0.78607  0.16314  0.54643  1.0000
  H   H230      1.0  0.85561  0.29480  0.62566  1.0000
  S   S79       1.0  0.87860  0.10550  0.66566  1.0000
  C   C238      1.0  0.87619  0.14439  0.57770  1.0000
  C   C239      1.0  0.81647  0.16571  0.56561  1.0000
  S   S80       1.0  0.91743  0.44928  0.64273  1.0000
  C   C240      1.0  0.81371  0.11324  0.50953  1.0000
  Fe  Fe43      1.0  0.96727  0.47019  0.61756  1.0000
  S   S81       1.0  0.97577  0.46919  0.55880  1.0000
  C   C241      1.0  0.87174  0.29056  0.64804  1.0000
  C   C242      1.0  0.52114  0.51084  0.56010  1.0000
  C   C243      1.0  0.84348  0.11608  0.52963  1.0000
  H   H231      1.0  0.76365  0.18136  0.55364  1.0000
  C   C244      1.0  0.89395  0.32152  0.65867  1.0000
  C   C245      1.0  0.78074  0.04362  0.56372  1.0000
  N   N18       1.0  0.84447  0.14184  0.55741  1.0000
  H   H232      1.0  0.77455  0.05808  0.58828  1.0000
  H   H233      1.0  0.81728  0.18642  0.58747  1.0000
  H   H234      1.0  0.86545  0.09663  0.52355  1.0000
  S   S82       1.0  0.00077  0.43317  0.65238  1.0000
  C   C246      1.0  0.78471  0.13660  0.51828  1.0000
  H   H235      1.0  0.93036  0.48639  0.47312  1.0000
  H   H236      1.0  0.52579  0.49817  0.58532  1.0000
  H   H237      1.0  0.87186  0.16110  0.60250  1.0000
  H   H238      1.0  0.88549  0.11386  0.58447  1.0000
  H   H239      1.0  0.89663  0.15996  0.56267  1.0000
  H   H240      1.0  0.54954  0.35632  0.58149  1.0000
  H   H241      1.0  0.76113  0.13364  0.50351  1.0000
  C   C247      1.0  0.53624  0.39862  0.54181  1.0000
  S   S83       1.0  0.72895  0.01787  0.47560  1.0000
  H   H242      1.0  0.56260  0.40164  0.53212  1.0000
  H   H243      1.0  0.84471  0.45971  0.67165  1.0000
  H   H244      1.0  0.81272  0.09204  0.48803  1.0000
  C   C248      1.0  0.75517  0.04002  0.53829  1.0000
  S   S84       1.0  0.84137  0.21655  0.65184  1.0000
  S   S85       1.0  0.84772  0.03568  0.58763  1.0000
  H   H245      1.0  0.94256  0.50285  0.38545  1.0000
  C   C249      1.0  0.81425  0.02903  0.55716  1.0000
  H   H246      1.0  0.00719  0.46450  0.49094  1.0000
  Fe  Fe44      1.0  0.83678  0.15263  0.67185  1.0000
  H   H247      1.0  0.72940  0.05177  0.54361  1.0000
  C   C250      1.0  0.95670  0.49139  0.40828  1.0000
  H   H248      1.0  0.94418  0.46334  0.41694  1.0000
  C   C251      1.0  0.52894  0.37328  0.56947  1.0000
  C   C252      1.0  0.00541  0.50116  0.53728  1.0000
  H   H249      1.0  0.98368  0.48393  0.39985  1.0000
  C   C253      1.0  0.76262  0.02150  0.50611  1.0000
  S   S86       1.0  0.71831  0.01676  0.37328  1.0000
  C   C254      1.0  0.87032  0.25416  0.66605  1.0000
  S   S87       1.0  0.61860  0.01511  0.35619  1.0000
  H   H250      1.0  0.51490  0.44074  0.50567  1.0000
  Fe  Fe45      1.0  0.95127  0.41671  0.68022  1.0000
  H   H251      1.0  0.57747  0.07986  0.82601  1.0000
  S   S88       1.0  0.81746  0.13023  0.72347  1.0000
  C   C255      1.0  0.72396  0.05340  0.80761  1.0000
  C   C256      1.0  0.55803  0.08074  0.76045  1.0000
  H   H252      1.0  0.99909  0.16322  0.00052  1.0000
  H   H253      1.0  0.96445  0.11181  0.94654  1.0000
  H   H254      1.0  0.84445  0.02122  0.82142  1.0000
  S   S89       1.0  0.94115  0.35557  0.70397  1.0000
  C   C257      1.0  0.73445  0.06655  0.77466  1.0000
  H   H255      1.0  0.92923  0.27600  0.72829  1.0000
  S   S90       1.0  0.95432  0.46845  0.71837  1.0000
  C   C258      1.0  0.85215  0.41230  0.70871  1.0000
  C   C259      1.0  0.78143  0.49980  0.99923  1.0000
  C   C260      1.0  0.81855  0.41710  0.76068  1.0000
  C   C261      1.0  0.92452  0.04228  0.77159  1.0000
  H   H256      1.0  0.78417  0.46849  0.76569  1.0000
  N   N19       1.0  0.59106  0.09490  0.77406  1.0000
  C   C262      1.0  0.64750  0.12318  0.76521  1.0000
  H   H257      1.0  0.53606  0.09583  0.77444  1.0000
  C   C263      1.0  0.80276  0.45236  0.74923  1.0000
  H   H258      1.0  0.85658  0.33623  0.73218  1.0000
  H   H259      1.0  0.66751  0.13416  0.74774  1.0000
  H   H260      1.0  0.89050  0.22124  0.70904  1.0000
  H   H261      1.0  0.67869  0.12908  0.81086  1.0000
  C   C264      1.0  0.97888  0.09702  0.96761  1.0000
  C   C265      1.0  0.59705  0.09206  0.80881  1.0000
  H   H262      1.0  0.81149  0.40587  0.78606  1.0000
  H   H263      1.0  0.00707  0.10263  0.96399  1.0000
  H   H264      1.0  0.97571  0.06402  0.96510  1.0000
  H   H265      1.0  0.80029  0.49505  0.70777  1.0000
  H   H266      1.0  0.87189  0.39714  0.69298  1.0000
  C   C266      1.0  0.83682  0.44743  0.69644  1.0000
  C   C267      1.0  0.81180  0.46732  0.71675  1.0000
  C   C268      1.0  0.85899  0.36027  0.75219  1.0000
  C   C269      1.0  0.62856  0.10443  0.82260  1.0000
  C   C270      1.0  0.93517  0.03219  0.80515  1.0000
  S   S91       1.0  0.82019  0.03921  0.68821  1.0000
  H   H267      1.0  0.73970  0.06014  0.82989  1.0000
  S   S92       1.0  0.58838  0.03032  0.88841  1.0000
  S   S93       1.0  0.51349  0.03944  0.83102  1.0000
  H   H268      1.0  0.91717  0.03549  0.82674  1.0000
  S   S94       1.0  0.88146  0.05949  0.76570  1.0000
  C   C271      1.0  0.94804  0.03795  0.74388  1.0000
  H   H269      1.0  0.79060  0.47359  0.98498  1.0000
  N   N20       1.0  0.84260  0.39732  0.74026  1.0000
  C   C272      1.0  0.69344  0.03134  0.81187  1.0000
  C   C273      1.0  0.61587  0.10999  0.75223  1.0000
  H   H270      1.0  0.84700  0.34918  0.77653  1.0000
  C   C274      1.0  0.65382  0.12027  0.80063  1.0000
  H   H271      1.0  0.94017  0.04554  0.71795  1.0000
  S   S95       1.0  0.56494  0.50105  0.69853  1.0000
  H   H272      1.0  0.88701  0.36533  0.75672  1.0000
  C   C275      1.0  0.54288  0.01631  0.01249  1.0000
  C   C276      1.0  0.71415  0.05821  0.74582  1.0000
  C   C277      1.0  0.89134  0.24904  0.69491  1.0000
  C   C278      1.0  0.98183  0.02346  0.74975  1.0000
  H   H273      1.0  0.75803  0.08352  0.77165  1.0000
  H   H274      1.0  0.55527  0.08673  0.73237  1.0000
  H   H275      1.0  0.86748  0.47606  0.94542  1.0000
  Fe  Fe46      1.0  0.85698  0.08045  0.71555  1.0000
  N   N21       1.0  0.96651  0.11197  0.00154  1.0000
  Fe  Fe47      1.0  0.78222  0.09012  0.69342  1.0000
  S   S96       1.0  0.72587  0.07564  0.70443  1.0000
  C   C279      1.0  0.91330  0.28016  0.70575  1.0000
  Fe  Fe48      1.0  0.00068  0.48764  0.68716  1.0000
  H   H276      1.0  0.61156  0.11151  0.72456  1.0000
  H   H277      1.0  0.53127  0.50591  0.76663  1.0000
  H   H278      1.0  0.66773  0.02984  0.72777  1.0000
  H   H279      1.0  0.63362  0.10086  0.85003  1.0000
  C   C280      1.0  0.68352  0.03634  0.75005  1.0000
  H   H280      1.0  0.99976  0.01994  0.72812  1.0000
  H   H281      1.0  0.55571  0.04792  0.76447  1.0000
  C   C281      1.0  0.67321  0.02279  0.78300  1.0000
  H   H282      1.0  0.86006  0.50349  0.81385  1.0000
  H   H283      1.0  0.89156  0.50212  0.75728  1.0000
  C   C282      1.0  0.91476  0.31653  0.68772  1.0000
  H   H284      1.0  0.83630  0.51113  0.89815  1.0000
  C   C283      1.0  0.96898  0.01782  0.81103  1.0000
  C   C284      1.0  0.85718  0.50607  0.94963  1.0000
  H   H285      1.0  0.93161  0.06352  0.00931  1.0000
  H   H286      1.0  0.87363  0.50941  0.00255  1.0000
  H   H287      1.0  0.64186  0.98672  0.28794  1.0000
  H   H288      1.0  0.52403  0.99388  0.23132  1.0000
  S   S97       1.0  0.67426  0.53214  0.34475  1.0000
  H   H289      1.0  0.83272  0.96262  0.24881  1.0000
  C   C285      1.0  0.67219  0.53774  0.27313  1.0000
  C   C286      1.0  0.97525  0.53049  0.29145  1.0000
  H   H290      1.0  0.55125  0.95738  0.25067  1.0000
  H   H291      1.0  0.74340  0.59964  0.31471  1.0000
  C   C287      1.0  0.68743  0.53479  0.23979  1.0000
  H   H292      1.0  0.69466  0.53711  0.12633  1.0000
  C   C288      1.0  0.67263  0.65553  0.33300  1.0000
  C   C289      1.0  0.66063  0.66206  0.29951  1.0000
  H   H293      1.0  0.87513  0.60005  0.02138  1.0000
  C   C290      1.0  0.75808  0.56772  0.03551  1.0000
  C   C291      1.0  0.98863  0.99557  0.03501  1.0000
  C   C292      1.0  0.97277  0.54822  0.23058  1.0000
  C   C293      1.0  0.98934  0.55028  0.26286  1.0000
  C   C294      1.0  0.52442  0.96976  0.25095  1.0000
  N   N22       1.0  0.70246  0.63419  0.33819  1.0000
  S   S98       1.0  0.99486  0.53216  0.33266  1.0000
  S   S99       1.0  0.82800  0.52426  0.14552  1.0000
  C   C295      1.0  0.83335  0.99125  0.26219  1.0000
  C   C296      1.0  0.77867  0.53906  0.05226  1.0000
  H   H294      1.0  0.97072  0.97101  0.03767  1.0000
  H   H295      1.0  0.60238  0.78787  0.33622  1.0000
  H   H296      1.0  0.68476  0.59172  0.08415  1.0000
  H   H297      1.0  0.98359  0.56391  0.20861  1.0000
  H   H298      1.0  0.67283  0.54404  0.21750  1.0000
  H   H299      1.0  0.78572  0.54356  0.07906  1.0000
  C   C297      1.0  0.69864  0.51765  0.10384  1.0000
  S   S100      1.0  0.58611  0.59630  0.32609  1.0000
  S   S101      1.0  0.78138  0.96084  0.30302  1.0000
  C   C298      1.0  0.57870  0.91011  0.02163  1.0000
  H   H300      1.0  0.58973  0.92425  0.04432  1.0000
  H   H301      1.0  0.53364  0.94760  0.06154  1.0000
  C   C299      1.0  0.62138  0.00864  0.28474  1.0000
  C   C300      1.0  0.67932  0.64642  0.27117  1.0000
  C   C301      1.0  0.72147  0.52018  0.23520  1.0000
  H   H302      1.0  0.74917  0.59410  0.04967  1.0000
  C   C302      1.0  0.67246  0.56890  0.06725  1.0000
  H   H303      1.0  0.63671  0.67877  0.29581  1.0000
  S   S102      1.0  0.69336  0.92980  0.33936  1.0000
  H   H304      1.0  0.98159  0.97168  0.15352  1.0000
  H   H305      1.0  0.72392  0.61118  0.25490  1.0000
  H   H306      1.0  0.82860  0.60224  0.02790  1.0000
  H   H307      1.0  0.64607  0.54927  0.27646  1.0000
  C   C303      1.0  0.70966  0.62451  0.27666  1.0000
  C   C304      1.0  0.94196  0.52658  0.22663  1.0000
  C   C305      1.0  0.72069  0.61824  0.31058  1.0000
  H   H308      1.0  0.67004  0.65068  0.24506  1.0000
  S   S103      1.0  0.92199  0.52517  0.18558  1.0000
  H   H309      1.0  0.51957  0.56324  0.27108  1.0000
  H   H310      1.0  0.64445  0.56708  0.07383  1.0000
  C   C306      1.0  0.69102  0.52623  0.30212  1.0000
  C   C307      1.0  0.81125  0.99831  0.29096  1.0000
  H   H311      1.0  0.85239  0.55983  0.04268  1.0000
  H   H312      1.0  0.55617  0.95744  0.31140  1.0000
  C   C308      1.0  0.85102  0.58223  0.02153  1.0000
  H   H313      1.0  0.75429  0.99794  0.23983  1.0000
  C   C309      1.0  0.53320  0.97630  0.31377  1.0000
  H   H314      1.0  0.62204  0.00418  0.22886  1.0000
  N   N23       1.0  0.54359  0.90979  0.01728  1.0000
  N   N24       1.0  0.51443  0.98597  0.28516  1.0000
  H   H315      1.0  0.00905  0.96504  0.19050  1.0000
  N   N25       1.0  0.68903  0.52962  0.07151  1.0000
  S   S104      1.0  0.74020  0.51916  0.19312  1.0000
  C   C310      1.0  0.00753  0.96115  0.16188  1.0000
  C   C311      1.0  0.52408  0.99212  0.34641  1.0000
  H   H316      1.0  0.67541  0.57967  0.04014  1.0000
  C   C312      1.0  0.52043  0.92522  0.04490  1.0000
  H   H317      1.0  0.01009  0.92862  0.15596  1.0000
  C   C313      1.0  0.97298  0.55770  0.42935  1.0000
  Fe  Fe49      1.0  0.72420  0.98443  0.42390  1.0000
  S   S105      1.0  0.75341  0.93218  0.39995  1.0000
  C   C314      1.0  0.57206  0.60534  0.57640  1.0000
  Fe  Fe50      1.0  0.70127  0.90352  0.39215  1.0000
  H   H318      1.0  0.98886  0.61465  0.45060  1.0000
  S   S106      1.0  0.67286  0.95377  0.41949  1.0000
  H   H319      1.0  0.59458  0.57428  0.61979  1.0000
  H   H320      1.0  0.68286  0.75821  0.43148  1.0000
  S   S107      1.0  0.62437  0.60621  0.40197  1.0000
  S   S108      1.0  0.57935  0.52585  0.38498  1.0000
  H   H321      1.0  0.69708  0.89107  0.47224  1.0000
  Fe  Fe51      1.0  0.57853  0.57449  0.42548  1.0000
  S   S109      1.0  0.57961  0.55837  0.48284  1.0000
  C   C315      1.0  0.64294  0.81101  0.36856  1.0000
  S   S110      1.0  0.54001  0.61315  0.39787  1.0000
  H   H322      1.0  0.66993  0.92703  0.53954  1.0000
  H   H323      1.0  0.64211  0.70596  0.41123  1.0000
  C   C316      1.0  0.61954  0.74308  0.37212  1.0000
  C   C317      1.0  0.57098  0.58534  0.60814  1.0000
  C   C318      1.0  0.74755  0.93202  0.53315  1.0000
  H   H324      1.0  0.75191  0.85623  0.45696  1.0000
  H   H325      1.0  0.67167  0.95251  0.49828  1.0000
  S   S111      1.0  0.69517  0.83934  0.41121  1.0000
  H   H326      1.0  0.70407  0.59705  0.38223  1.0000
  C   C319      1.0  0.68614  0.94573  0.52226  1.0000
  C   C320      1.0  0.71400  0.62650  0.37357  1.0000
  C   C321      1.0  0.77901  0.91275  0.52508  1.0000
  H   H327      1.0  0.98505  0.56303  0.40426  1.0000
  H   H328      1.0  0.74660  0.95367  0.55435  1.0000
  C   C322      1.0  0.54371  0.53917  0.50617  1.0000
  H   H329      1.0  0.56912  0.63661  0.51524  1.0000
  C   C323      1.0  0.66540  0.76472  0.41057  1.0000
  C   C324      1.0  0.66580  0.80291  0.39545  1.0000
  H   H330      1.0  0.69090  0.97520  0.53499  1.0000
  H   H331      1.0  0.93285  0.53748  0.51958  1.0000
  S   S112      1.0  0.96988  0.52550  0.65072  1.0000
  C   C325      1.0  0.95994  0.58015  0.48781  1.0000
  C   C326      1.0  0.53911  0.57876  0.62445  1.0000
  H   H332      1.0  0.80502  0.87074  0.49048  1.0000
  N   N26       1.0  0.71881  0.92493  0.51375  1.0000
  H   H333      1.0  0.96243  0.60203  0.50861  1.0000
  H   H334      1.0  0.80201  0.91965  0.53979  1.0000
  H   H335      1.0  0.64293  0.84021  0.35670  1.0000
  C   C327      1.0  0.94324  0.54399  0.49394  1.0000
  C   C328      1.0  0.64240  0.73496  0.39904  1.0000
  H   H336      1.0  0.80204  0.99193  0.47495  1.0000
  S   S113      1.0  0.59020  0.70668  0.35623  1.0000
  Fe  Fe52      1.0  0.54308  0.56588  0.35563  1.0000
  H   H337      1.0  0.00897  0.54427  0.57893  1.0000
  Fe  Fe53      1.0  0.58607  0.64071  0.37075  1.0000
  C   C329      1.0  0.97482  0.58720  0.45529  1.0000
  Fe  Fe54      1.0  0.66892  0.98247  0.36736  1.0000
  C   C330      1.0  0.75099  0.87742  0.47855  1.0000
  C   C331      1.0  0.54922  0.52181  0.53868  1.0000
  H   H338      1.0  0.57540  0.51772  0.54772  1.0000
  H   H339      1.0  0.74271  0.62598  0.37477  1.0000
  C   C332      1.0  0.72002  0.89740  0.48721  1.0000
  C   C333      1.0  0.78072  0.88549  0.49742  1.0000
  Fe  Fe55      1.0  0.62211  0.56020  0.35904  1.0000
  C   C334      1.0  0.61997  0.78125  0.35701  1.0000
  C   C335      1.0  0.79600  0.00632  0.49961  1.0000
  H   H340      1.0  0.59687  0.60951  0.56347  1.0000
  N   N27       1.0  0.95705  0.52207  0.43575  1.0000
  C   C336      1.0  0.54340  0.63980  0.52841  1.0000
  H   H341      1.0  0.84760  0.99884  0.51971  1.0000
  Fe  Fe56      1.0  0.74356  0.96222  0.34880  1.0000
  H   H342      1.0  0.70438  0.65006  0.39199  1.0000
  H   H343      1.0  0.54000  0.98568  0.36871  1.0000
  C   C337      1.0  0.82171  0.01015  0.52506  1.0000
  H   H344      1.0  0.53798  0.56268  0.64879  1.0000
  N   N28       1.0  0.54213  0.61818  0.56130  1.0000
  H   H345      1.0  0.53785  0.67211  0.53295  1.0000
  H   H346      1.0  0.65770  0.66739  0.35481  1.0000
  H   H347      1.0  0.52419  0.62735  0.51008  1.0000
  C   C338      1.0  0.94213  0.51501  0.46751  1.0000
  H   H348      1.0  0.55757  0.75378  0.83165  1.0000
  S   S114      1.0  0.59284  0.95713  0.83000  1.0000
  H   H349      1.0  0.76652  0.99701  0.73046  1.0000
  Fe  Fe57      1.0  0.57921  0.98408  0.92895  1.0000
  S   S115      1.0  0.53931  0.95144  0.89808  1.0000
  H   H350      1.0  0.94407  0.57087  0.71791  1.0000
  Fe  Fe58      1.0  0.58453  0.91560  0.87537  1.0000
  S   S116      1.0  0.58160  0.84725  0.87594  1.0000
  C   C339      1.0  0.76971  0.97438  0.84387  1.0000
  C   C340      1.0  0.96257  0.58244  0.73634  1.0000
  S   S117      1.0  0.62348  0.94553  0.90914  1.0000
  Fe  Fe59      1.0  0.70949  0.66006  0.86223  1.0000
  S   S118      1.0  0.67067  0.63204  0.89776  1.0000
  S   S119      1.0  0.70729  0.72574  0.84657  1.0000
  Fe  Fe60      1.0  0.75060  0.58103  0.85272  1.0000
  H   H351      1.0  0.78789  0.58977  0.77456  1.0000
  S   S120      1.0  0.79939  0.54521  0.83832  1.0000
  Fe  Fe61      1.0  0.67158  0.58112  0.85899  1.0000
  C   C341      1.0  0.61415  0.66019  0.81195  1.0000
  Fe  Fe62      1.0  0.71596  0.60091  0.92238  1.0000
  S   S121      1.0  0.72228  0.59865  0.98097  1.0000
  S   S122      1.0  0.70843  0.61054  0.82174  1.0000
  S   S123      1.0  0.75511  0.63320  0.88978  1.0000
  C   C342      1.0  0.74908  0.56255  0.00058  1.0000
  C   C343      1.0  0.57001  0.52860  0.80155  1.0000
  C   C344      1.0  0.81057  0.57083  0.77096  1.0000
  C   C345      1.0  0.82176  0.54672  0.79805  1.0000
  C   C346      1.0  0.58369  0.65624  0.83162  1.0000
  H   H352      1.0  0.82212  0.00652  0.76311  1.0000
  H   H353      1.0  0.62994  0.63371  0.80662  1.0000
  C   C347      1.0  0.65547  0.70028  0.77858  1.0000
  C   C348      1.0  0.86930  0.52161  0.76102  1.0000
  H   H354      1.0  0.57627  0.62713  0.84143  1.0000
  C   C349      1.0  0.58711  0.87673  0.96630  1.0000
  C   C350      1.0  0.61839  0.81530  0.87087  1.0000
  C   C351      1.0  0.64796  0.82717  0.85247  1.0000
  C   C352      1.0  0.67523  0.79962  0.84592  1.0000
  C   C353      1.0  0.67350  0.76009  0.85803  1.0000
  C   C354      1.0  0.64439  0.74859  0.87737  1.0000
  C   C355      1.0  0.61695  0.77603  0.88361  1.0000
  H   H355      1.0  0.64942  0.85727  0.84247  1.0000
  H   H356      1.0  0.69769  0.80888  0.83106  1.0000
  H   H357      1.0  0.64268  0.71834  0.88692  1.0000
  H   H358      1.0  0.59425  0.76653  0.89795  1.0000
  H   H359      1.0  0.73311  0.95135  0.80769  1.0000
  C   C356      1.0  0.56310  0.68997  0.83868  1.0000
  C   C357      1.0  0.60423  0.54177  0.80517  1.0000
  N   N29       1.0  0.84666  0.56249  0.98774  1.0000
  H   H360      1.0  0.66657  0.73084  0.78064  1.0000
  H   H361      1.0  0.97118  0.60187  0.82226  1.0000
  C   C358      1.0  0.95385  0.58505  0.77150  1.0000
  C   C359      1.0  0.62595  0.54299  0.77586  1.0000
  H   H362      1.0  0.73514  0.96355  0.74749  1.0000
  C   C360      1.0  0.60361  0.73000  0.80622  1.0000
  C   C361      1.0  0.82869  0.57029  0.73900  1.0000
  H   H363      1.0  0.81831  0.61146  0.96649  1.0000
  N   N30       1.0  0.01008  0.61185  0.78358  1.0000
  H   H364      1.0  0.75415  0.96628  0.86636  1.0000
  C   C362      1.0  0.55131  0.87641  0.96214  1.0000
  C   C363      1.0  0.52979  0.89322  0.98803  1.0000
  C   C364      1.0  0.76329  0.97020  0.74702  1.0000
  C   C365      1.0  0.99244  0.01327  0.78329  1.0000
  C   C366      1.0  0.57298  0.72711  0.82580  1.0000
  H   H365      1.0  0.61152  0.75918  0.79706  1.0000
  H   H366      1.0  0.00978  0.97383  0.98582  1.0000
  N   N31       1.0  0.62395  0.69686  0.79990  1.0000
  C   C367      1.0  0.85793  0.54549  0.73381  1.0000
  H   H367      1.0  0.81033  0.00135  0.87367  1.0000
  C   C368      1.0  0.82976  0.58205  0.96185  1.0000
  H   H368      1.0  0.53964  0.68732  0.85425  1.0000
  Fe  Fe63      1.0  0.62906  0.98933  0.86572  1.0000
  H   H369      1.0  0.63057  0.53107  0.72081  1.0000
  H   H370      1.0  0.65238  0.55292  0.77834  1.0000
  H   H371      1.0  0.77770  0.94459  0.73498  1.0000
  C   C369      1.0  0.80099  0.99436  0.84793  1.0000
  S   S124      1.0  0.71330  0.54745  0.88700  1.0000
  S   S125      1.0  0.61845  0.55664  0.84677  1.0000
  H   H372      1.0  0.81972  0.58883  0.71805  1.0000
  H   H373      1.0  0.67595  0.67955  0.78775  1.0000
  H   H374      1.0  0.64980  0.69324  0.75108  1.0000
  C   C370      1.0  0.97808  0.59993  0.79493  1.0000
  C   C371      1.0  0.86068  0.52518  0.98186  1.0000
  H   H375      1.0  0.62882  0.89548  0.99901  1.0000
  C   C372      1.0  0.75787  0.96607  0.81047  1.0000
  C   C373      1.0  0.99519  0.59473  0.72499  1.0000
  N   N32       1.0  0.77627  0.97823  0.78193  1.0000
  H   H376      1.0  0.54042  0.86372  0.93870  1.0000
  C   C374      1.0  0.80725  0.99726  0.78568  1.0000
  C   C375      1.0  0.82004  0.00566  0.81869  1.0000
  H   H377      1.0  0.60409  0.86429  0.94615  1.0000
  C   C376      1.0  0.76060  0.52829  0.98256  1.0000
  S   S126      1.0  0.68238  0.01377  0.85341  1.0000
  Fe  Fe64      1.0  0.55105  0.99549  0.85561  1.0000
  C   C377      1.0  0.61354  0.53056  0.74331  1.0000
  H   H378      1.0  0.55306  0.52756  0.82409  1.0000
  C   C378      1.0  0.82600  0.56387  0.92927  1.0000
  H   H379      1.0  0.97684  0.01004  0.83692  1.0000
  H   H380      1.0  0.00255  0.59195  0.69778  1.0000
  H   H381      1.0  0.81215  0.57903  0.90889  1.0000
  C   C379      1.0  0.60098  0.89392  0.99608  1.0000
  H   H382      1.0  0.92844  0.57560  0.78043  1.0000
  S   S127      1.0  0.87831  0.54366  0.69248  1.0000
  C   C380      1.0  0.83965  0.52561  0.92322  1.0000
  C   C381      1.0  0.85131  0.52233  0.79302  1.0000
  S   S128      1.0  0.57851  0.99912  0.98673  1.0000
  H   H383      1.0  0.64970  0.00574  0.78604  1.0000
  H   H384      1.0  0.75355  0.52379  0.95575  1.0000
  C   C382      1.0  0.01083  0.99699  0.00564  1.0000
  C   C383      1.0  0.55759  0.51628  0.76902  1.0000
  C   C384      1.0  0.57939  0.51697  0.73978  1.0000
