data_image0
_chemical_formula_structural       FeS2FeS2FeSFeCS2FeS2FeS2FeHFeCS2CHFeS2FeSC2FeHCHSH3CNHCHC2HC6H4C6H4NCHCHC2SCSHCHCH2CH2SC2H3C2H2CNC3H2CH3CH2C2H2C2HC3NH2NC2HC2H5CSC2HC2H2C2HCHC2H2C3H2C2HSHSFeSFeSFeS2FeSHFeS3C3H3CHC2HC2H3C5NH2C3HC2HC2H2S2FeS2FeSCFeSC3H2CH3C2HCH2C6H5CH3CH3CHCHCH3S2CHCH3NCHNCH5NH2C3HCHCHC2NHC2HC4HCH3C2HC3H2CHCFeS2FeS2FeSFeS3FeS2FeS2FeCFeHS2CH3FeS2FeSH3CHC4H4CHCHC9H4C6H4CH2CH2CS2CNC2HC2H2C4H3CHCH3CHNC4NH2FeHCHNCH5CHC2HCSHC2HFeHS3HCH4CSHC4HCHC2HCNH5NHFeSH3C2HC4HFeS2FeS2FeSFeS3FeS2FeS2FeHFeHS2FeCFeS2FeSHCH4CH5C2SH2C7H4C6H10CNC3H2CH4SHC2SCH4CHCH2CSC2SC5HSCH2FeN2C5H3C3HCSCNH2CHNC3H4CHSCH3NC3HCNH2C3FeSFeSFeS2FeSCFeS3C3H2SCH2CH3C2HC6H2C3H2C5NS2FeS2FeSHFeSC3H2CHC3H5C6H3CHCHC3H6C2H2C4HSNSH6C2HNC2H3CHC2HC2H4C3H4CHCNHCHCNFeS2FeS2FeSFeS3FeS2FeS2FeHFeCS3H3FeS2FeSNC2H2CH2FeC2H4CHCHC7H4C6H4C2HCSHCHC3HC6H2CHC2NFeHCSNHCSCHCHC2HCHC2H2CH3CH2CH2CH2CNC2H5CHC2SH2CHCH4CHCH2CNFeSCFeSHFeSFeS3FeS2FeS2FeSFeS3FeSCHFeS2H2CHC2HNC2H2C4H2CHC6H8C2HC5H3C6H2NCHSCS2C2FeHCHCH2SH8C2H4C2H3N2C7H2NCH2SC2H2CHCH4C2H4CH3C2NSC3FeSHFeSFeS2FeS2FeS3CHC3H3C6H2CHC2H2C2SHCFeSNSFeS2FeSHNCHC2H2C3H2C7H3CNCHC2H5C2HCH3C2H4NH4CH4CH4CH2C2HCHCHC2HC2HC4H2C7NC2SCSHFeSCFeSCFeSFeS3FeS2FeS2FeCFeS3FeSH4CNFeS2HSH3C2H3C2HC2SC6H4C2HCSFeCFeCH3C2SC5SH2NH3CHC3H5CNCH4CNHSCHFeHC3SH3C2HC3H4C2H2CSHCH3SCHC2NHCHC4HCHC2HCH3CH6C2HC2FeS2FeSNFeSFeS3FeS2FeS2FeSFeHS2FeSH2FeS2H3CH3C2H2SHC4H3C6H4CHCH2CHSCH2CHSC7H3SHCH3NC3H2CH2CH2CH4CH2C3HFeNCHNC6HCHNH2C2NC3H4CHC4FeC4SH2CHCH2CHC6H2CFeH2C4H2CH3S2CHFeSHFeSFeS2FeS2FeS3C5H3C6H2CHC4HC2H2FeSHSFeS2FeSHC5H2C3H2C7H3CH3CH2C2HCHNCH2C2H5CH2C2N3HCH3SH2C3H4C2HCH2CHC2HCH2CHCHCHCH5C2H2CHCH3FeSCFeS2FeSFeS3FeS2FeS2FeCFeS3FeSCH5FeS2HCFeH2C3HCHC2H2C7H4SHCHC2HSHSHNH2C6H3CH3CH2NCNC3H3CHC4NCSCH3C2H5CHCH2CH2CH2C2HCSHCH2C2HCHSNHC4HC2H2SHCH2CHC2H
_chemical_formula_sum              "Fe128 S256 C768 H768 N64"
_cell_length_a       45.1408
_cell_length_b       32.3618
_cell_length_c       48.5465
_cell_angle_alpha    90.0589
_cell_angle_beta     89.5001
_cell_angle_gamma    89.9988

_space_group_name_H-M_alt    "P 1"
_space_group_IT_number       1

loop_
  _space_group_symop_operation_xyz
  'x, y, z'

loop_
  _atom_site_type_symbol
  _atom_site_label
  _atom_site_symmetry_multiplicity
  _atom_site_fract_x
  _atom_site_fract_y
  _atom_site_fract_z
  _atom_site_occupancy
  Fe  Fe1       1.0  0.45099  0.09128  0.24817  1.0000
  S   S1        1.0  0.46030  0.15978  0.24594  1.0000
  S   S2        1.0  0.48817  0.04863  0.23254  1.0000
  Fe  Fe2       1.0  0.38629  0.10653  0.26626  1.0000
  S   S3        1.0  0.39167  0.17553  0.26588  1.0000
  S   S4        1.0  0.34322  0.07128  0.27514  1.0000
  Fe  Fe3       1.0  0.41612  0.16594  0.22565  1.0000
  S   S5        1.0  0.40191  0.21049  0.19187  1.0000
  Fe  Fe4       1.0  0.43547  0.16420  0.28633  1.0000
  C   C1        1.0  0.04745  0.06503  0.01825  1.0000
  S   S6        1.0  0.40813  0.09746  0.22479  1.0000
  S   S7        1.0  0.42884  0.09526  0.28986  1.0000
  Fe  Fe5       1.0  0.09934  0.10635  0.27902  1.0000
  S   S8        1.0  0.08921  0.03835  0.27565  1.0000
  S   S9        1.0  0.06001  0.14623  0.29392  1.0000
  Fe  Fe6       1.0  0.16498  0.09084  0.26441  1.0000
  S   S10       1.0  0.15867  0.02218  0.25967  1.0000
  S   S11       1.0  0.20861  0.12548  0.25664  1.0000
  Fe  Fe7       1.0  0.11706  0.03849  0.23695  1.0000
  H   H1        1.0  0.12591  0.99259  0.01433  1.0000
  Fe  Fe8       1.0  0.13124  0.02702  0.29869  1.0000
  C   C2        1.0  0.14790  0.99353  0.13361  1.0000
  S   S12       1.0  0.12466  0.10727  0.23883  1.0000
  S   S13       1.0  0.14005  0.09480  0.30494  1.0000
  C   C3        1.0  0.49848  0.46608  0.01822  1.0000
  H   H2        1.0  0.02837  0.11337  0.20864  1.0000
  Fe  Fe9       1.0  0.43719  0.29647  0.04144  1.0000
  S   S14       1.0  0.46006  0.26277  0.07671  1.0000
  S   S15       1.0  0.42904  0.36498  0.03688  1.0000
  Fe  Fe10      1.0  0.13407  0.42487  0.02215  1.0000
  S   S16       1.0  0.13695  0.35637  0.02867  1.0000
  C   C4        1.0  0.50001  0.99045  0.27352  1.0000
  C   C5        1.0  0.04215  0.09620  0.22360  1.0000
  Fe  Fe11      1.0  0.38924  0.34576  0.01149  1.0000
  H   H3        1.0  0.06897  0.19931  0.24511  1.0000
  C   C6        1.0  0.12433  0.02284  0.02500  1.0000
  H   H4        1.0  0.19493  0.31682  0.06403  1.0000
  S   S17       1.0  0.09535  0.00112  0.20255  1.0000
  H   H5        1.0  0.09257  0.99786  0.06843  1.0000
  H   H6        1.0  0.03980  0.01340  0.07880  1.0000
  H   H7        1.0  0.30100  0.01924  0.21400  1.0000
  C   C7        1.0  0.28671  0.13314  0.19507  1.0000
  N   N1        1.0  0.09321  0.03250  0.03102  1.0000
  H   H8        1.0  0.24931  0.04370  0.20694  1.0000
  C   C8        1.0  0.13712  0.00427  0.16002  1.0000
  H   H9        1.0  0.14916  0.02608  0.17258  1.0000
  C   C9        1.0  0.11623  0.44110  0.13075  1.0000
  C   C10       1.0  0.12271  0.47636  0.14658  1.0000
  H   H10       1.0  0.31896  0.29875  0.01240  1.0000
  C   C11       1.0  0.41806  0.22254  0.15935  1.0000
  C   C12       1.0  0.40277  0.24935  0.14166  1.0000
  C   C13       1.0  0.41502  0.26124  0.11607  1.0000
  C   C14       1.0  0.44301  0.24693  0.10806  1.0000
  C   C15       1.0  0.45834  0.21999  0.12569  1.0000
  C   C16       1.0  0.44583  0.20749  0.15109  1.0000
  H   H11       1.0  0.38132  0.26126  0.14786  1.0000
  H   H12       1.0  0.40302  0.28208  0.10280  1.0000
  H   H13       1.0  0.48001  0.20870  0.11967  1.0000
  H   H14       1.0  0.45778  0.18655  0.16434  1.0000
  C   C17       1.0  0.30576  0.08819  0.27267  1.0000
  C   C18       1.0  0.29836  0.12883  0.26571  1.0000
  C   C19       1.0  0.26844  0.13999  0.26190  1.0000
  C   C20       1.0  0.24550  0.11081  0.26501  1.0000
  C   C21       1.0  0.25282  0.07046  0.27276  1.0000
  C   C22       1.0  0.28276  0.05929  0.27656  1.0000
  H   H15       1.0  0.31569  0.15156  0.26303  1.0000
  H   H16       1.0  0.26303  0.17134  0.25608  1.0000
  H   H17       1.0  0.23549  0.04765  0.27519  1.0000
  H   H18       1.0  0.28820  0.02782  0.28204  1.0000
  N   N2        1.0  0.49450  0.29143  0.21133  1.0000
  C   C23       1.0  0.05023  0.02550  0.06026  1.0000
  H   H19       1.0  0.02920  0.39466  0.02535  1.0000
  C   C24       1.0  0.47017  0.26710  0.21596  1.0000
  H   H20       1.0  0.04261  0.36296  0.21998  1.0000
  C   C25       1.0  0.04071  0.18994  0.28046  1.0000
  C   C26       1.0  0.04954  0.20998  0.25621  1.0000
  S   S18       1.0  0.11840  0.47380  0.18285  1.0000
  C   C27       1.0  0.26269  0.10599  0.19752  1.0000
  S   S19       1.0  0.34558  0.38168  0.01211  1.0000
  H   H21       1.0  0.03300  0.46726  0.31665  1.0000
  C   C28       1.0  0.13069  0.47672  0.08868  1.0000
  H   H22       1.0  0.18946  0.44932  0.11467  1.0000
  C   C29       1.0  0.27195  0.30839  0.00635  1.0000
  H   H23       1.0  0.24013  0.11731  0.19579  1.0000
  H   H24       1.0  0.17304  0.38520  0.13767  1.0000
  C   C30       1.0  0.21097  0.45726  0.06331  1.0000
  H   H25       1.0  0.11518  0.41388  0.08999  1.0000
  H   H26       1.0  0.23550  0.45939  0.06403  1.0000
  S   S20       1.0  0.39567  0.27778  0.01924  1.0000
  C   C31       1.0  0.33996  0.14838  0.19757  1.0000
  C   C32       1.0  0.19101  0.42024  0.10358  1.0000
  H   H27       1.0  0.13748  0.02125  0.04425  1.0000
  H   H28       1.0  0.17563  0.31819  0.11236  1.0000
  H   H29       1.0  0.20375  0.45777  0.04147  1.0000
  C   C33       1.0  0.12012  0.44126  0.10191  1.0000
  C   C34       1.0  0.18170  0.38398  0.11674  1.0000
  H   H30       1.0  0.04062  0.25966  0.22776  1.0000
  H   H31       1.0  0.49525  0.33705  0.06409  1.0000
  C   C35       1.0  0.01543  0.20471  0.29462  1.0000
  N   N3        1.0  0.31507  0.11933  0.19874  1.0000
  C   C36       1.0  0.04016  0.46257  0.19755  1.0000
  C   C37       1.0  0.32028  0.07889  0.20532  1.0000
  C   C38       1.0  0.50176  0.32201  0.22960  1.0000
  H   H32       1.0  0.50172  0.37248  0.03656  1.0000
  H   H33       1.0  0.44214  0.18396  0.05484  1.0000
  C   C39       1.0  0.03396  0.04995  0.04218  1.0000
  H   H34       1.0  0.43290  0.25382  0.24272  1.0000
  H   H35       1.0  0.05236  0.11867  0.23800  1.0000
  H   H36       1.0  0.48291  0.00532  0.28573  1.0000
  C   C40       1.0  0.18306  0.34649  0.10253  1.0000
  H   H37       1.0  0.29076  0.42500  0.00584  1.0000
  H   H38       1.0  0.28241  0.16552  0.19106  1.0000
  C   C41       1.0  0.45231  0.27308  0.23932  1.0000
  C   C42       1.0  0.03340  0.24434  0.24644  1.0000
  H   H39       1.0  0.21058  0.38167  0.04183  1.0000
  H   H40       1.0  0.49913  0.28278  0.16804  1.0000
  C   C43       1.0  0.26784  0.06463  0.20394  1.0000
  C   C44       1.0  0.07718  0.05555  0.01280  1.0000
  H   H41       1.0  0.48989  0.35364  0.26731  1.0000
  C   C45       1.0  0.48428  0.32895  0.25313  1.0000
  C   C46       1.0  0.19384  0.34566  0.07550  1.0000
  C   C47       1.0  0.01593  0.25483  0.00791  1.0000
  N   N4        1.0  0.02384  0.06620  0.23863  1.0000
  H   H42       1.0  0.03426  0.01663  0.21118  1.0000
  H   H43       1.0  0.34260  0.06841  0.20969  1.0000
  N   N5        1.0  0.20094  0.41923  0.07686  1.0000
  C   C48       1.0  0.45952  0.30409  0.25807  1.0000
  C   C49       1.0  0.30157  0.32133  0.00967  1.0000
  H   H44       1.0  0.10820  0.41346  0.14087  1.0000
  C   C50       1.0  0.08002  0.01692  0.05430  1.0000
  C   C51       1.0  0.20272  0.38255  0.06295  1.0000
  H   H45       1.0  0.33429  0.17723  0.18638  1.0000
  H   H46       1.0  0.35927  0.13449  0.18662  1.0000
  H   H47       1.0  0.47927  0.45366  0.02881  1.0000
  H   H48       1.0  0.34678  0.15682  0.21877  1.0000
  H   H49       1.0  0.46435  0.24289  0.20154  1.0000
  C   C52       1.0  0.03376  0.39165  0.21186  1.0000
  S   S21       1.0  0.45700  0.20813  0.31724  1.0000
  C   C53       1.0  0.50267  0.13069  0.01085  1.0000
  C   C54       1.0  0.11059  0.98733  0.16986  1.0000
  H   H50       1.0  0.49214  0.43143  0.28872  1.0000
  C   C55       1.0  0.48029  0.14392  0.05534  1.0000
  C   C56       1.0  0.02018  0.33464  0.32657  1.0000
  H   H51       1.0  0.44585  0.30887  0.27632  1.0000
  H   H52       1.0  0.47960  0.13954  0.07750  1.0000
  C   C57       1.0  0.46056  0.17457  0.01408  1.0000
  C   C58       1.0  0.29680  0.05090  0.20785  1.0000
  H   H53       1.0  0.06068  0.08072  0.21236  1.0000
  C   C59       1.0  0.50367  0.45234  0.27497  1.0000
  H   H54       1.0  0.16829  0.00723  0.12610  1.0000
  C   C60       1.0  0.50209  0.12452  0.03938  1.0000
  C   C61       1.0  0.05211  0.42591  0.20798  1.0000
  H   H55       1.0  0.26680  0.27574  0.00649  1.0000
  H   H56       1.0  0.07552  0.42414  0.21284  1.0000
  C   C62       1.0  0.50631  0.00482  0.24694  1.0000
  C   C63       1.0  0.28556  0.39236  0.00614  1.0000
  C   C64       1.0  0.45926  0.16887  0.04262  1.0000
  H   H57       1.0  0.50923  0.00726  0.03924  1.0000
  H   H58       1.0  0.13474  0.04664  0.01158  1.0000
  C   C65       1.0  0.30856  0.36345  0.00946  1.0000
  C   C66       1.0  0.02190  0.02637  0.22932  1.0000
  H   H59       1.0  0.01811  0.32123  0.30614  1.0000
  S   S22       1.0  0.13760  0.47807  0.05274  1.0000
  H   H60       1.0  0.05832  0.29842  0.33705  1.0000
  S   S23       1.0  0.05836  0.31621  0.00583  1.0000
  Fe  Fe12      1.0  0.44716  0.36023  0.49684  1.0000
  S   S24       1.0  0.48963  0.39687  0.48699  1.0000
  Fe  Fe13      1.0  0.38012  0.34822  0.50630  1.0000
  S   S25       1.0  0.33618  0.38363  0.50663  1.0000
  Fe  Fe14      1.0  0.41428  0.28543  0.47141  1.0000
  S   S26       1.0  0.40463  0.23687  0.43852  1.0000
  S   S27       1.0  0.40839  0.35407  0.46788  1.0000
  Fe  Fe15      1.0  0.12636  0.41553  0.46552  1.0000
  S   S28       1.0  0.13625  0.34935  0.45489  1.0000
  H   H61       1.0  0.28480  0.22463  0.44849  1.0000
  Fe  Fe16      1.0  0.09428  0.33406  0.47869  1.0000
  S   S29       1.0  0.05730  0.29478  0.45951  1.0000
  S   S30       1.0  0.15229  0.41507  0.50526  1.0000
  S   S31       1.0  0.08310  0.40090  0.48655  1.0000
  C   C67       1.0  0.29942  0.36362  0.50655  1.0000
  C   C68       1.0  0.27565  0.39066  0.50141  1.0000
  C   C69       1.0  0.24622  0.37603  0.50023  1.0000
  H   H62       1.0  0.28006  0.42315  0.49806  1.0000
  H   H63       1.0  0.22827  0.39718  0.49593  1.0000
  H   H64       1.0  0.09076  0.32317  0.37683  1.0000
  C   C70       1.0  0.09260  0.44811  0.61781  1.0000
  H   H65       1.0  0.04767  0.13761  0.47610  1.0000
  C   C71       1.0  0.18110  0.36277  0.57117  1.0000
  C   C72       1.0  0.27353  0.28908  0.44482  1.0000
  H   H66       1.0  0.47057  0.46052  0.52704  1.0000
  C   C73       1.0  0.28470  0.32915  0.44178  1.0000
  C   C74       1.0  0.29315  0.25580  0.44579  1.0000
  H   H67       1.0  0.14121  0.46658  0.56534  1.0000
  H   H68       1.0  0.07250  0.43114  0.62236  1.0000
  H   H69       1.0  0.02344  0.40082  0.57270  1.0000
  C   C75       1.0  0.41861  0.19246  0.36102  1.0000
  C   C76       1.0  0.40759  0.19924  0.38790  1.0000
  C   C77       1.0  0.41928  0.23062  0.40467  1.0000
  C   C78       1.0  0.44230  0.25520  0.39427  1.0000
  C   C79       1.0  0.45346  0.24826  0.36739  1.0000
  N   N6        1.0  0.31459  0.33590  0.44007  1.0000
  H   H70       1.0  0.38982  0.17997  0.39571  1.0000
  H   H71       1.0  0.45149  0.27950  0.40691  1.0000
  C   C80       1.0  0.13128  0.46785  0.58569  1.0000
  C   C81       1.0  0.33396  0.30335  0.44042  1.0000
  C   C82       1.0  0.48330  0.12513  0.50569  1.0000
  H   H72       1.0  0.18793  0.02206  0.38558  1.0000
  C   C83       1.0  0.05007  0.03731  0.46471  1.0000
  C   C84       1.0  0.46469  0.13797  0.52726  1.0000
  H   H73       1.0  0.07081  0.03079  0.47498  1.0000
  C   C85       1.0  0.04005  0.24003  0.50120  1.0000
  C   C86       1.0  0.03549  0.25434  0.47439  1.0000
  H   H74       1.0  0.17564  0.34331  0.55371  1.0000
  H   H75       1.0  0.05732  0.25362  0.51359  1.0000
  S   S32       1.0  0.45474  0.29127  0.49753  1.0000
  S   S33       1.0  0.38394  0.27920  0.50828  1.0000
  Fe  Fe17      1.0  0.42418  0.29038  0.53438  1.0000
  S   S34       1.0  0.44061  0.24518  0.56705  1.0000
  S   S35       1.0  0.41863  0.35971  0.53525  1.0000
  Fe  Fe18      1.0  0.10972  0.39461  0.52531  1.0000
  S   S36       1.0  0.11843  0.32677  0.51872  1.0000
  C   C87       1.0  0.43431  0.17365  0.49431  1.0000
  Fe  Fe19      1.0  0.15971  0.34787  0.49582  1.0000
  S   S37       1.0  0.20353  0.31376  0.50311  1.0000
  C   C88       1.0  0.24012  0.33414  0.50463  1.0000
  C   C89       1.0  0.26383  0.30723  0.51024  1.0000
  C   C90       1.0  0.29332  0.32175  0.51096  1.0000
  H   H76       1.0  0.25939  0.27481  0.51380  1.0000
  H   H77       1.0  0.31129  0.30056  0.51505  1.0000
  C   C91       1.0  0.02246  0.20763  0.51197  1.0000
  H   H78       1.0  0.20396  0.47271  0.63174  1.0000
  H   H79       1.0  0.40935  0.16813  0.34843  1.0000
  H   H80       1.0  0.11524  0.03654  0.36763  1.0000
  C   C92       1.0  0.10541  0.44560  0.59133  1.0000
  C   C93       1.0  0.06919  0.32442  0.38804  1.0000
  H   H81       1.0  0.49513  0.08782  0.45472  1.0000
  C   C94       1.0  0.14510  0.98662  0.66330  1.0000
  H   H82       1.0  0.50295  0.26492  0.56844  1.0000
  H   H83       1.0  0.44863  0.16945  0.45220  1.0000
  C   C95       1.0  0.43999  0.16224  0.52144  1.0000
  C   C96       1.0  0.43452  0.20493  0.64643  1.0000
  C   C97       1.0  0.44038  0.20777  0.61790  1.0000
  C   C98       1.0  0.43179  0.24281  0.60276  1.0000
  C   C99       1.0  0.41749  0.27523  0.61651  1.0000
  C   C100      1.0  0.41210  0.27271  0.64512  1.0000
  H   H84       1.0  0.50234  0.10591  0.51032  1.0000
  H   H85       1.0  0.45154  0.18256  0.60747  1.0000
  H   H86       1.0  0.41083  0.30243  0.60519  1.0000
  H   H87       1.0  0.02759  0.38104  0.39947  1.0000
  H   H88       1.0  0.08447  0.42480  0.35099  1.0000
  C   C101      1.0  0.19196  0.99657  0.39957  1.0000
  H   H89       1.0  0.18568  0.43904  0.65560  1.0000
  H   H90       1.0  0.50790  0.19912  0.35632  1.0000
  H   H91       1.0  0.33911  0.23728  0.44398  1.0000
  C   C102      1.0  0.10604  0.44340  0.38858  1.0000
  H   H92       1.0  0.26931  0.35491  0.44158  1.0000
  H   H93       1.0  0.32669  0.38615  0.41432  1.0000
  H   H94       1.0  0.24983  0.28411  0.44717  1.0000
  C   C103      1.0  0.09831  0.44783  0.36064  1.0000
  H   H95       1.0  0.34825  0.38144  0.44548  1.0000
  C   C104      1.0  0.04291  0.32200  0.34412  1.0000
  H   H96       1.0  0.01634  0.34316  0.49328  1.0000
  C   C105      1.0  0.04971  0.10648  0.48559  1.0000
  H   H97       1.0  0.10690  0.03424  0.41830  1.0000
  H   H98       1.0  0.22488  0.37705  0.55604  1.0000
  H   H99       1.0  0.15151  0.39988  0.63067  1.0000
  S   S38       1.0  0.08843  0.41407  0.56609  1.0000
  S   S39       1.0  0.13312  0.47027  0.43673  1.0000
  C   C106      1.0  0.42047  0.23756  0.66022  1.0000
  H   H100      1.0  0.02645  0.19662  0.53266  1.0000
  C   C107      1.0  0.16795  0.39435  0.61465  1.0000
  H   H101      1.0  0.49218  0.13655  0.43688  1.0000
  H   H102      1.0  0.44106  0.17767  0.65772  1.0000
  H   H103      1.0  0.40124  0.29815  0.65558  1.0000
  N   N7        1.0  0.19519  0.41287  0.61578  1.0000
  C   C108      1.0  0.49187  0.46939  0.51853  1.0000
  H   H104      1.0  0.07222  0.34513  0.40611  1.0000
  N   N8        1.0  0.03653  0.07488  0.46784  1.0000
  C   C109      1.0  0.21543  0.40710  0.59498  1.0000
  H   H105      1.0  0.03808  0.10689  0.50588  1.0000
  H   H106      1.0  0.35765  0.30846  0.43853  1.0000
  H   H107      1.0  0.46935  0.12912  0.54833  1.0000
  H   H108      1.0  0.07367  0.10079  0.48904  1.0000
  H   H109      1.0  0.17897  0.03194  0.43549  1.0000
  N   N9        1.0  0.47759  0.13651  0.47912  1.0000
  H   H110      1.0  0.09817  0.41724  0.40036  1.0000
  H   H111      1.0  0.31152  0.40067  0.44772  1.0000
  C   C110      1.0  0.49726  0.12191  0.45698  1.0000
  C   C111      1.0  0.03743  0.00665  0.44821  1.0000
  C   C112      1.0  0.49393  0.34510  0.55868  1.0000
  H   H112      1.0  0.04410  0.35428  0.53668  1.0000
  C   C113      1.0  0.20878  0.38177  0.57248  1.0000
  H   H113      1.0  0.13852  0.35556  0.59104  1.0000
  C   C114      1.0  0.32580  0.37809  0.43651  1.0000
  H   H114      1.0  0.48863  0.01412  0.48073  1.0000
  C   C115      1.0  0.32356  0.26288  0.44342  1.0000
  C   C116      1.0  0.12372  0.47324  0.40133  1.0000
  N   N10       1.0  0.04561  0.33896  0.36984  1.0000
  H   H115      1.0  0.50298  0.36044  0.57725  1.0000
  C   C117      1.0  0.11819  0.00785  0.37871  1.0000
  C   C118      1.0  0.16044  0.36922  0.59227  1.0000
  H   H116      1.0  0.22426  0.43114  0.64790  1.0000
  C   C119      1.0  0.44167  0.21686  0.35062  1.0000
  C   C120      1.0  0.45341  0.16041  0.47324  1.0000
  C   C121      1.0  0.02307  0.36981  0.53343  1.0000
  C   C122      1.0  0.20269  0.44010  0.63887  1.0000
  H   H117      1.0  0.23687  0.42223  0.59565  1.0000
  C   C123      1.0  0.02575  0.36803  0.37894  1.0000
  H   H118      1.0  0.47116  0.26755  0.35954  1.0000
  H   H119      1.0  0.06368  0.29315  0.39609  1.0000
  H   H120      1.0  0.42529  0.17231  0.53795  1.0000
  C   C124      1.0  0.50561  0.44421  0.49876  1.0000
  C   C125      1.0  0.11347  0.00643  0.40747  1.0000
  H   H121      1.0  0.41522  0.19268  0.48962  1.0000
  C   C126      1.0  0.18696  0.00246  0.42778  1.0000
  C   C127      1.0  0.50285  0.99092  0.48964  1.0000
  C   C128      1.0  0.10602  0.47165  0.63876  1.0000
  H   H122      1.0  0.09639  0.47253  0.65924  1.0000
  H   H123      1.0  0.48659  0.36929  0.54398  1.0000
  C   C129      1.0  0.11422  0.98968  0.66486  1.0000
  H   H124      1.0  0.47397  0.32695  0.56471  1.0000
  C   C130      1.0  0.01289  0.23599  0.45867  1.0000
  Fe  Fe20      1.0  0.45134  0.10938  0.75068  1.0000
  S   S40       1.0  0.45863  0.17811  0.75280  1.0000
  S   S41       1.0  0.49260  0.07312  0.73662  1.0000
  Fe  Fe21      1.0  0.38462  0.12011  0.76252  1.0000
  S   S42       1.0  0.38792  0.18934  0.76535  1.0000
  S   S43       1.0  0.34220  0.08163  0.76778  1.0000
  Fe  Fe22      1.0  0.41751  0.18470  0.72775  1.0000
  S   S44       1.0  0.41414  0.23705  0.69640  1.0000
  Fe  Fe23      1.0  0.42897  0.17787  0.79020  1.0000
  S   S45       1.0  0.44527  0.22274  0.82310  1.0000
  S   S46       1.0  0.41151  0.11613  0.72302  1.0000
  S   S47       1.0  0.42436  0.10847  0.79002  1.0000
  Fe  Fe24      1.0  0.09486  0.10443  0.77614  1.0000
  S   S48       1.0  0.08530  0.03705  0.76963  1.0000
  S   S49       1.0  0.05498  0.14221  0.79189  1.0000
  Fe  Fe25      1.0  0.16155  0.09010  0.76455  1.0000
  S   S50       1.0  0.15574  0.02166  0.75704  1.0000
  S   S51       1.0  0.20460  0.12725  0.75898  1.0000
  Fe  Fe26      1.0  0.11561  0.04010  0.73268  1.0000
  C   C131      1.0  0.04684  0.42551  0.81066  1.0000
  Fe  Fe27      1.0  0.12573  0.02392  0.79465  1.0000
  H   H125      1.0  0.48479  0.02505  0.78779  1.0000
  S   S52       1.0  0.12280  0.10860  0.73762  1.0000
  S   S53       1.0  0.13387  0.09109  0.80372  1.0000
  C   C132      1.0  0.28707  0.04656  0.70679  1.0000
  H   H126      1.0  0.40212  0.28539  0.79580  1.0000
  H   H127      1.0  0.06118  0.18895  0.74005  1.0000
  H   H128      1.0  0.12731  0.39734  0.88379  1.0000
  Fe  Fe28      1.0  0.42351  0.27921  0.98049  1.0000
  S   S54       1.0  0.41813  0.22377  0.95211  1.0000
  S   S55       1.0  0.41467  0.34595  0.97130  1.0000
  Fe  Fe29      1.0  0.13196  0.41614  0.95877  1.0000
  S   S56       1.0  0.13474  0.34637  0.96058  1.0000
  H   H129      1.0  0.48779  0.35771  0.81845  1.0000
  H   H130      1.0  0.34931  0.24474  0.93717  1.0000
  H   H131      1.0  0.47901  0.22002  0.69347  1.0000
  C   C133      1.0  0.12696  0.00579  0.87579  1.0000
  H   H132      1.0  0.21183  0.05316  0.70652  1.0000
  C   C134      1.0  0.04270  0.20152  0.75166  1.0000
  C   C135      1.0  0.02443  0.05544  0.70689  1.0000
  C   C136      1.0  0.35151  0.27571  0.94688  1.0000
  C   C137      1.0  0.41917  0.30092  0.78378  1.0000
  H   H133      1.0  0.32820  0.12901  0.70974  1.0000
  H   H134      1.0  0.33122  0.10478  0.67613  1.0000
  H   H135      1.0  0.08738  0.06692  0.99395  1.0000
  H   H136      1.0  0.27714  0.14630  0.69014  1.0000
  C   C138      1.0  0.27453  0.34955  0.93745  1.0000
  H   H137      1.0  0.34019  0.07679  0.70715  1.0000
  C   C139      1.0  0.12463  0.46534  0.82964  1.0000
  H   H138      1.0  0.47939  0.14571  0.83438  1.0000
  C   C140      1.0  0.50098  0.20639  0.69276  1.0000
  C   C141      1.0  0.01645  0.19067  0.98149  1.0000
  C   C142      1.0  0.46412  0.33859  0.75373  1.0000
  C   C143      1.0  0.43585  0.22318  0.85862  1.0000
  C   C144      1.0  0.42175  0.18978  0.87140  1.0000
  C   C145      1.0  0.41635  0.19052  0.90005  1.0000
  C   C146      1.0  0.42466  0.22477  0.91607  1.0000
  C   C147      1.0  0.43852  0.25833  0.90323  1.0000
  C   C148      1.0  0.44427  0.25736  0.87468  1.0000
  H   H139      1.0  0.41527  0.16319  0.85933  1.0000
  H   H140      1.0  0.40566  0.16437  0.90982  1.0000
  H   H141      1.0  0.44521  0.28477  0.91536  1.0000
  H   H142      1.0  0.45547  0.28319  0.86507  1.0000
  C   C149      1.0  0.30408  0.09631  0.76843  1.0000
  C   C150      1.0  0.29476  0.13644  0.76216  1.0000
  C   C151      1.0  0.26423  0.14556  0.76029  1.0000
  C   C152      1.0  0.24257  0.11488  0.76480  1.0000
  C   C153      1.0  0.25188  0.07508  0.77193  1.0000
  C   C154      1.0  0.28242  0.06591  0.77365  1.0000
  H   H143      1.0  0.31105  0.16029  0.75829  1.0000
  H   H144      1.0  0.25732  0.17650  0.75491  1.0000
  H   H145      1.0  0.23558  0.05115  0.77555  1.0000
  H   H146      1.0  0.28931  0.03480  0.77866  1.0000
  C   C155      1.0  0.12528  0.42756  0.84399  1.0000
  H   H147      1.0  0.22451  0.12529  0.69416  1.0000
  H   H148      1.0  0.35546  0.27152  0.96925  1.0000
  C   C156      1.0  0.50366  0.16329  0.69276  1.0000
  H   H149      1.0  0.48693  0.39559  0.79133  1.0000
  H   H150      1.0  0.48173  0.35305  0.74186  1.0000
  C   C157      1.0  0.41847  0.29981  0.75510  1.0000
  S   S57       1.0  0.21239  0.31909  0.99686  1.0000
  S   S58       1.0  0.09566  0.01061  0.69420  1.0000
  C   C158      1.0  0.04955  0.08258  0.85942  1.0000
  N   N11       1.0  0.29386  0.08656  0.70009  1.0000
  C   C159      1.0  0.02792  0.08600  0.88016  1.0000
  C   C160      1.0  0.05942  0.39362  0.79497  1.0000
  H   H151      1.0  0.29593  0.24926  0.94057  1.0000
  C   C161      1.0  0.02638  0.23512  0.74106  1.0000
  C   C162      1.0  0.03520  0.18457  0.77729  1.0000
  H   H152      1.0  0.30405  0.40146  0.94203  1.0000
  H   H153      1.0  0.37143  0.29034  0.93742  1.0000
  C   C163      1.0  0.01786  0.42137  0.82057  1.0000
  C   C164      1.0  0.04318  0.26731  0.99619  1.0000
  C   C165      1.0  0.23488  0.06211  0.70393  1.0000
  C   C166      1.0  0.04896  0.00856  0.86522  1.0000
  H   H154      1.0  0.48228  0.19592  0.96399  1.0000
  H   H155      1.0  0.44069  0.31758  0.71755  1.0000
  H   H156      1.0  0.15842  0.99782  0.68014  1.0000
  C   C167      1.0  0.50946  0.44626  0.99462  1.0000
  H   H157      1.0  0.05803  0.10998  0.84909  1.0000
  C   C168      1.0  0.12727  0.00459  0.90483  1.0000
  H   H158      1.0  0.07790  0.25017  0.96779  1.0000
  H   H159      1.0  0.03256  0.24807  0.72128  1.0000
  H   H160      1.0  0.08187  0.39731  0.78718  1.0000
  C   C169      1.0  0.51052  0.02850  0.75033  1.0000
  H   H161      1.0  0.51039  0.35055  0.78823  1.0000
  N   N12       1.0  0.32504  0.30112  0.94279  1.0000
  C   C170      1.0  0.32734  0.34327  0.94357  1.0000
  C   C171      1.0  0.29794  0.28265  0.94007  1.0000
  C   C172      1.0  0.48274  0.16229  0.96872  1.0000
  C   C173      1.0  0.50872  0.12483  0.80221  1.0000
  N   N13       1.0  0.04367  0.35843  0.78954  1.0000
  H   H162      1.0  0.40053  0.28407  0.74466  1.0000
  H   H163      1.0  0.03493  0.08400  0.00403  1.0000
  Fe  Fe30      1.0  0.10183  0.35057  0.99596  1.0000
  H   H164      1.0  0.01976  0.11644  0.88581  1.0000
  C   C174      1.0  0.27230  0.30656  0.93728  1.0000
  H   H165      1.0  0.50258  0.41385  0.71728  1.0000
  N   N14       1.0  0.46452  0.33981  0.78190  1.0000
  C   C175      1.0  0.30220  0.36810  0.94062  1.0000
  H   H166      1.0  0.12928  0.03498  0.86514  1.0000
  H   H167      1.0  0.04646  0.32551  0.75189  1.0000
  H   H168      1.0  0.07715  0.04050  0.83618  1.0000
  H   H169      1.0  0.04103  0.05802  0.69065  1.0000
  H   H170      1.0  0.34856  0.35795  0.94733  1.0000
  C   C176      1.0  0.25751  0.03373  0.70879  1.0000
  H   H171      1.0  0.30451  0.02469  0.71155  1.0000
  C   C177      1.0  0.25602  0.37941  0.00244  1.0000
  C   C178      1.0  0.05702  0.24111  0.97708  1.0000
  H   H172      1.0  0.25467  0.36836  0.93624  1.0000
  C   C179      1.0  0.12676  0.42659  0.87303  1.0000
  S   S59       1.0  0.16904  0.42571  0.98892  1.0000
  H   H173      1.0  0.23880  0.40204  0.99909  1.0000
  C   C180      1.0  0.44245  0.32125  0.79695  1.0000
  C   C181      1.0  0.02715  0.01306  0.88570  1.0000
  H   H174      1.0  0.12978  0.03306  0.91629  1.0000
  Fe  Fe31      1.0  0.16971  0.35693  0.99325  1.0000
  H   H175      1.0  0.44288  0.32144  0.81927  1.0000
  S   S60       1.0  0.49319  0.40028  0.98120  1.0000
  S   S61       1.0  0.12237  0.46486  0.79308  1.0000
  S   S62       1.0  0.09693  0.41985  0.99198  1.0000
  H   H176      1.0  0.05275  0.29481  0.78232  1.0000
  C   C182      1.0  0.44109  0.31864  0.73990  1.0000
  H   H177      1.0  0.50171  0.28640  0.68365  1.0000
  H   H178      1.0  0.25069  0.29195  0.93601  1.0000
  H   H179      1.0  0.49288  0.10315  0.79377  1.0000
  H   H180      1.0  0.12478  0.39882  0.83261  1.0000
  C   C183      1.0  0.49728  0.46702  0.74376  1.0000
  S   S63       1.0  0.12908  0.46479  0.92464  1.0000
  H   H181      1.0  0.05458  0.18335  0.95484  1.0000
  C   C184      1.0  0.27180  0.11442  0.69492  1.0000
  C   C185      1.0  0.48852  0.36193  0.79575  1.0000
  C   C186      1.0  0.04369  0.20314  0.96977  1.0000
  C   C187      1.0  0.05674  0.32547  0.77263  1.0000
  H   H182      1.0  0.25216  0.00240  0.71498  1.0000
  C   C188      1.0  0.32487  0.09986  0.69802  1.0000
  H   H183      1.0  0.08108  0.32918  0.77011  1.0000
  C   C189      1.0  0.24201  0.10269  0.69688  1.0000
  C   C190      1.0  0.12746  0.46351  0.88804  1.0000
  H   H184      1.0  0.05958  0.45321  0.81499  1.0000
  C   C191      1.0  0.06017  0.04360  0.85204  1.0000
  N   N15       1.0  0.01726  0.05149  0.89319  1.0000
  H   H185      1.0  0.25898  0.45997  0.77342  1.0000
  H   H186      1.0  0.01826  0.98564  0.89564  1.0000
  H   H187      1.0  0.46290  0.14779  0.95932  1.0000
  H   H188      1.0  0.48409  0.14377  0.69352  1.0000
  H   H189      1.0  0.04396  0.10276  0.73232  1.0000
  N   N16       1.0  0.48220  0.15582  0.99861  1.0000
  H   H190      1.0  0.50506  0.23192  0.85273  1.0000
  Fe  Fe32      1.0  0.45479  0.36032  0.99714  1.0000
  S   S64       1.0  0.46538  0.29293  0.00306  1.0000
  H   H191      1.0  0.47852  0.47913  0.73262  1.0000
  H   H192      1.0  0.20759  0.47891  0.78666  1.0000
  H   H193      1.0  0.49548  0.18674  0.87250  1.0000
  C   C192      1.0  0.50134  0.14876  0.82529  1.0000
  C   C193      1.0  0.50280  0.01170  0.77595  1.0000
  H   H194      1.0  0.50293  0.14897  0.95890  1.0000
  C   C194      1.0  0.02608  0.08054  0.73023  1.0000
  C   C195      1.0  0.51098  0.42986  0.73515  1.0000
  C   C196      1.0  0.01520  0.35425  0.79904  1.0000
  C   C197      1.0  0.24904  0.33728  0.00250  1.0000
  H   H195      1.0  0.44414  0.19409  0.00434  1.0000
  Fe  Fe33      1.0  0.44429  0.59742  0.24941  1.0000
  S   S65       1.0  0.44502  0.66756  0.24796  1.0000
  S   S66       1.0  0.48970  0.56720  0.24158  1.0000
  Fe  Fe34      1.0  0.37651  0.59580  0.25500  1.0000
  S   S67       1.0  0.37336  0.66441  0.25418  1.0000
  S   S68       1.0  0.33474  0.55623  0.25683  1.0000
  Fe  Fe35      1.0  0.40639  0.66189  0.21930  1.0000
  S   S69       1.0  0.39228  0.70253  0.18335  1.0000
  Fe  Fe36      1.0  0.41202  0.66433  0.28301  1.0000
  S   S70       1.0  0.40729  0.71414  0.31614  1.0000
  S   S71       1.0  0.40744  0.59256  0.21836  1.0000
  S   S72       1.0  0.41337  0.59486  0.28639  1.0000
  Fe  Fe37      1.0  0.09204  0.60289  0.23983  1.0000
  S   S73       1.0  0.08344  0.53453  0.24176  1.0000
  S   S74       1.0  0.04933  0.63853  0.22978  1.0000
  Fe  Fe38      1.0  0.15856  0.58796  0.24814  1.0000
  S   S75       1.0  0.15404  0.51871  0.25040  1.0000
  S   S76       1.0  0.20210  0.62435  0.25072  1.0000
  Fe  Fe39      1.0  0.12319  0.52580  0.21443  1.0000
  H   H196      1.0  0.33857  0.58185  0.19830  1.0000
  Fe  Fe40      1.0  0.11441  0.53165  0.27759  1.0000
  H   H197      1.0  0.48361  0.94395  0.02281  1.0000
  S   S77       1.0  0.13028  0.59428  0.20998  1.0000
  S   S78       1.0  0.12042  0.60091  0.27790  1.0000
  Fe  Fe41      1.0  0.10046  0.84097  0.01864  1.0000
  C   C198      1.0  0.46128  0.64423  0.04632  1.0000
  Fe  Fe42      1.0  0.43776  0.78166  0.03396  1.0000
  S   S79       1.0  0.45803  0.74647  0.07010  1.0000
  S   S80       1.0  0.42870  0.84993  0.03049  1.0000
  Fe  Fe43      1.0  0.13652  0.90817  0.04902  1.0000
  S   S81       1.0  0.13910  0.83850  0.04818  1.0000
  H   H198      1.0  0.45499  0.82615  0.24482  1.0000
  C   C199      1.0  0.44979  0.76882  0.20532  1.0000
  H   H199      1.0  0.05154  0.90335  0.31677  1.0000
  H   H200      1.0  0.07060  0.71041  0.26154  1.0000
  H   H201      1.0  0.20104  0.48510  0.07319  1.0000
  H   H202      1.0  0.04012  0.86233  0.27836  1.0000
  C   C200      1.0  0.10398  0.91163  0.23657  1.0000
  H   H203      1.0  0.28761  0.56385  0.18974  1.0000
  H   H204      1.0  0.04673  0.84430  0.22929  1.0000
  H   H205      1.0  0.13798  0.53929  0.14524  1.0000
  H   H206      1.0  0.09415  0.92633  0.11411  1.0000
  H   H207      1.0  0.07314  0.94917  0.31089  1.0000
  C   C201      1.0  0.30988  0.57990  0.32221  1.0000
  C   C202      1.0  0.08475  0.88405  0.22375  1.0000
  S   S82       1.0  0.14691  0.95471  0.08324  1.0000
  H   H208      1.0  0.27726  0.67390  0.32735  1.0000
  H   H209      1.0  0.04728  0.77839  0.27177  1.0000
  C   C203      1.0  0.33935  0.59210  0.32494  1.0000
  C   C204      1.0  0.41082  0.71305  0.15169  1.0000
  C   C205      1.0  0.43924  0.69800  0.14575  1.0000
  C   C206      1.0  0.45341  0.70855  0.12070  1.0000
  C   C207      1.0  0.43925  0.73389  0.10127  1.0000
  C   C208      1.0  0.41073  0.74845  0.10708  1.0000
  C   C209      1.0  0.39669  0.73823  0.13221  1.0000
  H   H210      1.0  0.45032  0.67837  0.16045  1.0000
  H   H211      1.0  0.47545  0.69701  0.11636  1.0000
  H   H212      1.0  0.39958  0.76804  0.09237  1.0000
  H   H213      1.0  0.37476  0.75017  0.13661  1.0000
  C   C210      1.0  0.29796  0.57574  0.25568  1.0000
  C   C211      1.0  0.29197  0.61816  0.25592  1.0000
  C   C212      1.0  0.26246  0.63238  0.25522  1.0000
  C   C213      1.0  0.23859  0.60448  0.25391  1.0000
  C   C214      1.0  0.24457  0.56207  0.25386  1.0000
  C   C215      1.0  0.27410  0.54783  0.25485  1.0000
  H   H214      1.0  0.30999  0.64006  0.25674  1.0000
  H   H215      1.0  0.25807  0.66525  0.25520  1.0000
  H   H216      1.0  0.22646  0.54022  0.25286  1.0000
  H   H217      1.0  0.27844  0.51494  0.25480  1.0000
  H   H218      1.0  0.50289  0.76375  0.18119  1.0000
  H   H219      1.0  0.49980  0.86649  0.25663  1.0000
  H   H220      1.0  0.29208  0.90512  0.02261  1.0000
  H   H221      1.0  0.30456  0.54774  0.31815  1.0000
  H   H222      1.0  0.34089  0.71869  0.31408  1.0000
  H   H223      1.0  0.01759  0.86864  0.04519  1.0000
  C   C216      1.0  0.04880  0.71740  0.25373  1.0000
  N   N17       1.0  0.01736  0.52860  0.31302  1.0000
  C   C217      1.0  0.50210  0.78607  0.19788  1.0000
  C   C218      1.0  0.03825  0.75941  0.01775  1.0000
  C   C219      1.0  0.47537  0.82083  0.23336  1.0000
  H   H224      1.0  0.22320  0.66119  0.18935  1.0000
  H   H225      1.0  0.41065  0.69716  0.05113  1.0000
  C   C220      1.0  0.09959  0.92152  0.26437  1.0000
  H   H226      1.0  0.45534  0.73637  0.19982  1.0000
  H   H227      1.0  0.50688  0.62362  0.04744  1.0000
  H   H228      1.0  0.35695  0.56939  0.32320  1.0000
  H   H229      1.0  0.12188  0.92586  0.22489  1.0000
  S   S83       1.0  0.09644  0.91065  0.02203  1.0000
  H   H230      1.0  0.05006  0.56513  0.05433  1.0000
  C   C221      1.0  0.13695  0.51207  0.10447  1.0000
  C   C222      1.0  0.28743  0.60948  0.32330  1.0000
  S   S84       1.0  0.16800  0.91549  0.01303  1.0000
  C   C223      1.0  0.34597  0.63390  0.32896  1.0000
  H   H231      1.0  0.07462  0.94588  0.16044  1.0000
  H   H232      1.0  0.08773  0.87661  0.20208  1.0000
  H   H233      1.0  0.23519  0.58652  0.19052  1.0000
  H   H234      1.0  0.14509  0.53970  0.09441  1.0000
  C   C224      1.0  0.09520  0.95914  0.15308  1.0000
  H   H235      1.0  0.45933  0.64636  0.06857  1.0000
  C   C225      1.0  0.13296  0.51195  0.13329  1.0000
  H   H236      1.0  0.39073  0.66381  0.02812  1.0000
  H   H237      1.0  0.50711  0.80887  0.06071  1.0000
  C   C226      1.0  0.07285  0.91502  0.30818  1.0000
  S   S85       1.0  0.09714  0.48663  0.31030  1.0000
  C   C227      1.0  0.48827  0.63185  0.03453  1.0000
  C   C228      1.0  0.03795  0.55932  0.30977  1.0000
  S   S86       1.0  0.39876  0.76191  0.00845  1.0000
  C   C229      1.0  0.05804  0.87659  0.26674  1.0000
  C   C230      1.0  0.03547  0.75606  0.25946  1.0000
  C   C231      1.0  0.50492  0.51808  0.25047  1.0000
  C   C232      1.0  0.49110  0.62982  0.00593  1.0000
  C   C233      1.0  0.04412  0.57857  0.03406  1.0000
  H   H238      1.0  0.34369  0.60775  0.16548  1.0000
  S   S87       1.0  0.13499  0.97263  0.32858  1.0000
  C   C234      1.0  0.03395  0.68806  0.23777  1.0000
  H   H239      1.0  0.11454  0.94319  0.27415  1.0000
  H   H240      1.0  0.43360  0.76730  0.22270  1.0000
  Fe  Fe44      1.0  0.16804  0.84659  0.01023  1.0000
  N   N18       1.0  0.07669  0.90430  0.27901  1.0000
  N   N19       1.0  0.30487  0.62518  0.18751  1.0000
  C   C235      1.0  0.29849  0.66646  0.18609  1.0000
  C   C236      1.0  0.28256  0.59656  0.18834  1.0000
  C   C237      1.0  0.26905  0.68009  0.18652  1.0000
  C   C238      1.0  0.25289  0.60911  0.18862  1.0000
  C   C239      1.0  0.24615  0.65116  0.18802  1.0000
  H   H241      1.0  0.31627  0.68908  0.18497  1.0000
  H   H242      1.0  0.26400  0.71286  0.18601  1.0000
  H   H243      1.0  0.36897  0.64329  0.33076  1.0000
  C   C240      1.0  0.06171  0.86617  0.23893  1.0000
  C   C241      1.0  0.49023  0.49029  0.26792  1.0000
  C   C242      1.0  0.50055  0.84386  0.24009  1.0000
  H   H244      1.0  0.35028  0.63450  0.19742  1.0000
  C   C243      1.0  0.40932  0.66519  0.04297  1.0000
  S   S88       1.0  0.05553  0.80800  0.02527  1.0000
  C   C244      1.0  0.33583  0.61155  0.18707  1.0000
  N   N20       1.0  0.43762  0.65362  0.03003  1.0000
  H   H245      1.0  0.02127  0.56812  0.02920  1.0000
  H   H246      1.0  0.51079  0.94583  0.30495  1.0000
  C   C245      1.0  0.09260  0.55209  0.01883  1.0000
  H   H247      1.0  0.09912  0.54894  0.04019  1.0000
  N   N21       1.0  0.06493  0.56609  0.01224  1.0000
  C   C246      1.0  0.28616  0.87465  0.01531  1.0000
  C   C247      1.0  0.25597  0.86325  0.01417  1.0000
  C   C248      1.0  0.03188  0.59368  0.29329  1.0000
  H   H248      1.0  0.23897  0.88495  0.02046  1.0000
  H   H249      1.0  0.40392  0.64403  0.06030  1.0000
  H   H250      1.0  0.04826  0.61794  0.29052  1.0000
  H   H251      1.0  0.09129  0.90175  0.32036  1.0000
  C   C249      1.0  0.10619  0.94801  0.12676  1.0000
  H   H252      1.0  0.04384  0.61284  0.03587  1.0000
  S   S89       1.0  0.34638  0.86411  0.00796  1.0000
  C   C250      1.0  0.29484  0.65106  0.32716  1.0000
  H   H253      1.0  0.50335  0.51763  0.04614  1.0000
  H   H254      1.0  0.46862  0.49816  0.27618  1.0000
  H   H255      1.0  0.43877  0.78345  0.18740  1.0000
  N   N22       1.0  0.47649  0.79205  0.21267  1.0000
  C   C251      1.0  0.30875  0.84705  0.00716  1.0000
  C   C252      1.0  0.50352  0.95454  0.01246  1.0000
  C   C253      1.0  0.51217  0.50247  0.02797  1.0000
  H   H256      1.0  0.05929  0.55729  0.31982  1.0000
  C   C254      1.0  0.13261  0.96533  0.11681  1.0000
  N   N23       1.0  0.32380  0.66268  0.33026  1.0000
  H   H257      1.0  0.05475  0.48876  0.19410  1.0000
  H   H258      1.0  0.26452  0.60038  0.32023  1.0000
  C   C255      1.0  0.02410  0.49239  0.32996  1.0000
  C   C256      1.0  0.33150  0.70638  0.33367  1.0000
  C   C257      1.0  0.24787  0.82409  0.00457  1.0000
  Fe  Fe45      1.0  0.45030  0.83942  0.50854  1.0000
  S   S90       1.0  0.49633  0.86921  0.51314  1.0000
  Fe  Fe46      1.0  0.38294  0.83539  0.49875  1.0000
  S   S91       1.0  0.34131  0.87524  0.49482  1.0000
  Fe  Fe47      1.0  0.42320  0.76754  0.47588  1.0000
  S   S92       1.0  0.43677  0.71815  0.44454  1.0000
  S   S93       1.0  0.42292  0.83649  0.46991  1.0000
  Fe  Fe48      1.0  0.12357  0.91734  0.48840  1.0000
  S   S94       1.0  0.12315  0.84913  0.47926  1.0000
  C   C258      1.0  0.12701  0.97227  0.36447  1.0000
  Fe  Fe49      1.0  0.09901  0.84241  0.52009  1.0000
  S   S95       1.0  0.05587  0.80828  0.53200  1.0000
  S   S96       1.0  0.16701  0.91621  0.51077  1.0000
  S   S97       1.0  0.09704  0.91142  0.52785  1.0000
  C   C259      1.0  0.30417  0.85707  0.49312  1.0000
  C   C260      1.0  0.28072  0.88562  0.49540  1.0000
  C   C261      1.0  0.25093  0.87236  0.49526  1.0000
  H   H259      1.0  0.28569  0.91815  0.49763  1.0000
  H   H260      1.0  0.23323  0.89463  0.49743  1.0000
  S   S98       1.0  0.11326  0.97022  0.45870  1.0000
  C   C262      1.0  0.04626  0.74097  0.49677  1.0000
  H   H261      1.0  0.03734  0.68958  0.46961  1.0000
  H   H262      1.0  0.43719  0.65478  0.35239  1.0000
  C   C263      1.0  0.12635  0.51136  0.35774  1.0000
  H   H263      1.0  0.20724  0.85327  0.54771  1.0000
  H   H264      1.0  0.13731  0.90745  0.36844  1.0000
  H   H265      1.0  0.20338  0.90538  0.44962  1.0000
  C   C264      1.0  0.22351  0.86549  0.56270  1.0000
  C   C265      1.0  0.11776  0.96961  0.42232  1.0000
  H   H266      1.0  0.49416  0.59036  0.56979  1.0000
  C   C266      1.0  0.40589  0.74749  0.36814  1.0000
  C   C267      1.0  0.41172  0.74890  0.39661  1.0000
  C   C268      1.0  0.42707  0.71657  0.40917  1.0000
  C   C269      1.0  0.43615  0.68266  0.39299  1.0000
  C   C270      1.0  0.42998  0.68100  0.36456  1.0000
  C   C271      1.0  0.03002  0.70616  0.48780  1.0000
  H   H267      1.0  0.40462  0.77523  0.40875  1.0000
  H   H268      1.0  0.44815  0.65756  0.40248  1.0000
  C   C272      1.0  0.04514  0.51158  0.56314  1.0000
  C   C273      1.0  0.03618  0.58052  0.53038  1.0000
  C   C274      1.0  0.49133  0.95106  0.49499  1.0000
  H   H269      1.0  0.07751  0.49262  0.53276  1.0000
  H   H270      1.0  0.27901  0.89499  0.56323  1.0000
  C   C275      1.0  0.41497  0.71360  0.35196  1.0000
  C   C276      1.0  0.02462  0.54202  0.57071  1.0000
  C   C277      1.0  0.51207  0.74933  0.37008  1.0000
  C   C278      1.0  0.03706  0.76304  0.52013  1.0000
  C   C279      1.0  0.05683  0.55057  0.52214  1.0000
  N   N24       1.0  0.02021  0.57577  0.55428  1.0000
  S   S99       1.0  0.45255  0.76995  0.51312  1.0000
  S   S100      1.0  0.38161  0.76628  0.50179  1.0000
  Fe  Fe50      1.0  0.41108  0.77452  0.53866  1.0000
  S   S101      1.0  0.39545  0.73769  0.57618  1.0000
  S   S102      1.0  0.41047  0.84394  0.53699  1.0000
  Fe  Fe51      1.0  0.14059  0.90434  0.54956  1.0000
  S   S103      1.0  0.14129  0.83531  0.54425  1.0000
  H   H271      1.0  0.06941  0.55441  0.50315  1.0000
  Fe  Fe52      1.0  0.16539  0.84793  0.50429  1.0000
  S   S104      1.0  0.20717  0.81166  0.49291  1.0000
  C   C280      1.0  0.24423  0.83034  0.49243  1.0000
  C   C281      1.0  0.26765  0.80193  0.48958  1.0000
  C   C282      1.0  0.29744  0.81512  0.49013  1.0000
  H   H272      1.0  0.26274  0.76939  0.48727  1.0000
  H   H273      1.0  0.31517  0.79280  0.48821  1.0000
  C   C283      1.0  0.43254  0.65697  0.50526  1.0000
  H   H274      1.0  0.49463  0.52552  0.54241  1.0000
  C   C284      1.0  0.11098  0.95705  0.61931  1.0000
  C   C285      1.0  0.42470  0.65934  0.53306  1.0000
  C   C286      1.0  0.14462  0.49145  0.60659  1.0000
  H   H275      1.0  0.19345  0.92547  0.35269  1.0000
  H   H276      1.0  0.40269  0.66962  0.53912  1.0000
  H   H277      1.0  0.09767  0.94582  0.60246  1.0000
  H   H278      1.0  0.22872  0.78401  0.55800  1.0000
  H   H279      1.0  0.48189  0.71558  0.63655  1.0000
  C   C287      1.0  0.14187  0.95413  0.61768  1.0000
  C   C288      1.0  0.45839  0.71082  0.63373  1.0000
  C   C289      1.0  0.44458  0.72622  0.60986  1.0000
  C   C290      1.0  0.41417  0.72026  0.60603  1.0000
  C   C291      1.0  0.39789  0.69875  0.62625  1.0000
  C   C292      1.0  0.41164  0.68351  0.65012  1.0000
  H   H280      1.0  0.21366  0.86357  0.58373  1.0000
  H   H281      1.0  0.45740  0.74264  0.59444  1.0000
  H   H282      1.0  0.37439  0.69375  0.62345  1.0000
  C   C293      1.0  0.48103  0.63280  0.51827  1.0000
  H   H283      1.0  0.13421  0.53769  0.34608  1.0000
  C   C294      1.0  0.30445  0.83910  0.56083  1.0000
  H   H284      1.0  0.43908  0.65068  0.57463  1.0000
  C   C295      1.0  0.49474  0.62435  0.56669  1.0000
  C   C296      1.0  0.13066  0.93524  0.37925  1.0000
  C   C297      1.0  0.27602  0.77616  0.55815  1.0000
  H   H285      1.0  0.48995  0.63997  0.58666  1.0000
  H   H286      1.0  0.50287  0.62177  0.51226  1.0000
  H   H287      1.0  0.02439  0.88681  0.55281  1.0000
  H   H288      1.0  0.04850  0.97709  0.44561  1.0000
  H   H289      1.0  0.41670  0.66553  0.48956  1.0000
  H   H290      1.0  0.34844  0.71007  0.35000  1.0000
  C   C298      1.0  0.13234  0.49307  0.63332  1.0000
  C   C299      1.0  0.50618  0.78256  0.45459  1.0000
  H   H291      1.0  0.39431  0.77294  0.35860  1.0000
  H   H292      1.0  0.22693  0.89860  0.55752  1.0000
  C   C300      1.0  0.27796  0.86157  0.56219  1.0000
  C   C301      1.0  0.44198  0.68945  0.65400  1.0000
  C   C302      1.0  0.12622  0.93392  0.40802  1.0000
  C   C303      1.0  0.24996  0.79961  0.55931  1.0000
  H   H293      1.0  0.18269  0.96688  0.63878  1.0000
  S   S105      1.0  0.16044  0.93239  0.58858  1.0000
  N   N25       1.0  0.47336  0.63616  0.54553  1.0000
  S   S106      1.0  0.15233  0.51889  0.65952  1.0000
  H   H294      1.0  0.07339  0.97709  0.64365  1.0000
  H   H295      1.0  0.46703  0.64156  0.47612  1.0000
  H   H296      1.0  0.04870  0.48502  0.57630  1.0000
  H   H297      1.0  0.14732  0.53051  0.39547  1.0000
  H   H298      1.0  0.27496  0.74281  0.55614  1.0000
  H   H299      1.0  0.12948  0.90534  0.41915  1.0000
  C   C304      1.0  0.44547  0.64869  0.55306  1.0000
  C   C305      1.0  0.20525  0.92653  0.40736  1.0000
  H   H300      1.0  0.03306  0.60767  0.51758  1.0000
  N   N26       1.0  0.25118  0.84177  0.56118  1.0000
  C   C306      1.0  0.30343  0.79612  0.55888  1.0000
  C   C307      1.0  0.46084  0.64355  0.49774  1.0000
  H   H301      1.0  0.32565  0.85497  0.56043  1.0000
  H   H302      1.0  0.32386  0.77844  0.55743  1.0000
  H   H303      1.0  0.46852  0.94402  0.49020  1.0000
  C   C308      1.0  0.15880  0.96900  0.63982  1.0000
  H   H304      1.0  0.06579  0.75082  0.48550  1.0000
  C   C309      1.0  0.50561  0.50641  0.52719  1.0000
  C   C310      1.0  0.13374  0.50721  0.38576  1.0000
  H   H305      1.0  0.21222  0.89662  0.39955  1.0000
  C   C311      1.0  0.06133  0.51592  0.53870  1.0000
  C   C312      1.0  0.09728  0.97479  0.64275  1.0000
  H   H306      1.0  0.31203  0.72538  0.33981  1.0000
  H   H307      1.0  0.39872  0.66702  0.66546  1.0000
  H   H308      1.0  0.16481  0.50826  0.60209  1.0000
  H   H309      1.0  0.46615  0.79707  0.41574  1.0000
  C   C313      1.0  0.20038  0.93132  0.43570  1.0000
  C   C314      1.0  0.48583  0.78154  0.40794  1.0000
  C   C315      1.0  0.50938  0.92044  0.50634  1.0000
  H   H310      1.0  0.04102  0.49975  0.34576  1.0000
  H   H311      1.0  0.49324  0.81148  0.45780  1.0000
  H   H312      1.0  0.46902  0.77764  0.36647  1.0000
  H   H313      1.0  0.49494  0.75696  0.46575  1.0000
  C   C316      1.0  0.48726  0.77045  0.38009  1.0000
  H   H314      1.0  0.19804  0.97964  0.34781  1.0000
  C   C317      1.0  0.20596  0.95285  0.36009  1.0000
  N   N27       1.0  0.20082  0.95887  0.38970  1.0000
  H   H315      1.0  0.18657  0.97367  0.46767  1.0000
  C   C318      1.0  0.19113  0.96958  0.44588  1.0000
  H   H316      1.0  0.22997  0.94854  0.35584  1.0000
  C   C319      1.0  0.10852  0.48174  0.34506  1.0000
  N   N28       1.0  0.50857  0.77208  0.42528  1.0000
  Fe  Fe53      1.0  0.45200  0.57436  0.76413  1.0000
  S   S107      1.0  0.46382  0.64158  0.75932  1.0000
  S   S108      1.0  0.49096  0.53467  0.77929  1.0000
  Fe  Fe54      1.0  0.38692  0.59247  0.74929  1.0000
  S   S109      1.0  0.39525  0.66044  0.74305  1.0000
  S   S110      1.0  0.34232  0.56066  0.74144  1.0000
  Fe  Fe55      1.0  0.43675  0.64062  0.72067  1.0000
  S   S111      1.0  0.46006  0.67175  0.68412  1.0000
  Fe  Fe56      1.0  0.42180  0.65599  0.78221  1.0000
  S   S112      1.0  0.41991  0.71139  0.81147  1.0000
  S   S113      1.0  0.42720  0.57252  0.72412  1.0000
  S   S114      1.0  0.41115  0.58900  0.78985  1.0000
  Fe  Fe57      1.0  0.09967  0.59874  0.73867  1.0000
  S   S115      1.0  0.09707  0.53057  0.72795  1.0000
  S   S116      1.0  0.05396  0.63055  0.73528  1.0000
  Fe  Fe58      1.0  0.16737  0.59194  0.74812  1.0000
  S   S117      1.0  0.16834  0.52452  0.73808  1.0000
  S   S118      1.0  0.20981  0.62422  0.76216  1.0000
  Fe  Fe59      1.0  0.13844  0.54059  0.70270  1.0000
  H   H317      1.0  0.17334  0.52802  0.80281  1.0000
  Fe  Fe60      1.0  0.12709  0.52048  0.76428  1.0000
  C   C320      1.0  0.22577  0.49894  0.79255  1.0000
  S   S119      1.0  0.13976  0.60910  0.71128  1.0000
  S   S120      1.0  0.12734  0.58739  0.77660  1.0000
  S   S121      1.0  0.12469  0.96753  0.95573  1.0000
  H   H318      1.0  0.50643  0.71123  0.94896  1.0000
  H   H319      1.0  0.05163  0.87798  0.68517  1.0000
  H   H320      1.0  0.07035  0.56294  0.94264  1.0000
  Fe  Fe61      1.0  0.42918  0.76768  0.97146  1.0000
  S   S122      1.0  0.43833  0.71431  0.94177  1.0000
  S   S123      1.0  0.41891  0.83462  0.96369  1.0000
  Fe  Fe62      1.0  0.12798  0.91361  0.98594  1.0000
  S   S124      1.0  0.12950  0.84455  0.98045  1.0000
  N   N29       1.0  0.44885  0.76133  0.71918  1.0000
  C   C321      1.0  0.18999  0.54604  0.81454  1.0000
  C   C322      1.0  0.42120  0.76183  0.70354  1.0000
  H   H321      1.0  0.40529  0.78418  0.71278  1.0000
  H   H322      1.0  0.05569  0.93348  0.68801  1.0000
  C   C323      1.0  0.05451  0.71237  0.75465  1.0000
  H   H323      1.0  0.17233  0.89731  0.93664  1.0000
  H   H324      1.0  0.25942  0.84861  0.94568  1.0000
  Fe  Fe63      1.0  0.39087  0.83026  0.00263  1.0000
  C   C324      1.0  0.24319  0.56033  0.81382  1.0000
  C   C325      1.0  0.12519  0.50221  0.84466  1.0000
  H   H325      1.0  0.47243  0.74711  0.78442  1.0000
  H   H326      1.0  0.11877  0.90126  0.91469  1.0000
  H   H327      1.0  0.05353  0.77497  0.77015  1.0000
  H   H328      1.0  0.18576  0.57928  0.81024  1.0000
  C   C326      1.0  0.19555  0.90156  0.94149  1.0000
  H   H329      1.0  0.20225  0.82663  0.90927  1.0000
  C   C327      1.0  0.08326  0.89695  0.77809  1.0000
  H   H330      1.0  0.23876  0.58947  0.82413  1.0000
  C   C328      1.0  0.50775  0.48824  0.76683  1.0000
  C   C329      1.0  0.42353  0.71059  0.84789  1.0000
  C   C330      1.0  0.41611  0.74623  0.86311  1.0000
  C   C331      1.0  0.41987  0.74764  0.89192  1.0000
  C   C332      1.0  0.43148  0.71350  0.90578  1.0000
  C   C333      1.0  0.43890  0.67786  0.89058  1.0000
  C   C334      1.0  0.43486  0.67632  0.86181  1.0000
  H   H331      1.0  0.40730  0.77291  0.85254  1.0000
  H   H332      1.0  0.41404  0.77524  0.90333  1.0000
  H   H333      1.0  0.44785  0.65124  0.90108  1.0000
  H   H334      1.0  0.44072  0.64872  0.85039  1.0000
  C   C335      1.0  0.30598  0.58185  0.74453  1.0000
  C   C336      1.0  0.30022  0.61844  0.75903  1.0000
  C   C337      1.0  0.27072  0.63166  0.76347  1.0000
  C   C338      1.0  0.24661  0.60867  0.75341  1.0000
  C   C339      1.0  0.25243  0.57275  0.73822  1.0000
  C   C340      1.0  0.28191  0.55947  0.73385  1.0000
  H   H335      1.0  0.31844  0.63602  0.76740  1.0000
  H   H336      1.0  0.26653  0.65956  0.77517  1.0000
  H   H337      1.0  0.23423  0.55482  0.73020  1.0000
  H   H338      1.0  0.28606  0.53123  0.72251  1.0000
  C   C341      1.0  0.50089  0.75951  0.74940  1.0000
  C   C342      1.0  0.46717  0.64082  0.98947  1.0000
  H   H339      1.0  0.29047  0.57090  0.81196  1.0000
  C   C343      1.0  0.12067  0.93166  0.87499  1.0000
  S   S125      1.0  0.46852  0.78250  0.99744  1.0000
  H   H340      1.0  0.46914  0.63998  0.96717  1.0000
  C   C344      1.0  0.44766  0.75408  0.74692  1.0000
  H   H341      1.0  0.12699  0.52998  0.88504  1.0000
  C   C345      1.0  0.06641  0.90327  0.69227  1.0000
  C   C346      1.0  0.09731  0.91848  0.73224  1.0000
  C   C347      1.0  0.27823  0.51358  0.79259  1.0000
  H   H342      1.0  0.04248  0.86220  0.78069  1.0000
  C   C348      1.0  0.05246  0.72809  0.00273  1.0000
  C   C349      1.0  0.20540  0.94086  0.94918  1.0000
  C   C350      1.0  0.12128  0.93041  0.90403  1.0000
  C   C351      1.0  0.03859  0.68072  0.74181  1.0000
  C   C352      1.0  0.12352  0.96930  0.86069  1.0000
  C   C353      1.0  0.25471  0.91330  0.95425  1.0000
  H   H343      1.0  0.07485  0.73289  0.99529  1.0000
  H   H344      1.0  0.48160  0.76469  0.85558  1.0000
  C   C354      1.0  0.10495  0.54545  0.97057  1.0000
  H   H345      1.0  0.08723  0.90133  0.67990  1.0000
  C   C355      1.0  0.23514  0.94661  0.95579  1.0000
  C   C356      1.0  0.20400  0.82812  0.93203  1.0000
  N   N30       1.0  0.22033  0.53499  0.80647  1.0000
  Fe  Fe64      1.0  0.45698  0.84943  0.99199  1.0000
  H   H346      1.0  0.11786  0.90327  0.86352  1.0000
  C   C357      1.0  0.47361  0.75310  0.76244  1.0000
  S   S126      1.0  0.12133  0.96916  0.82415  1.0000
  N   N31       1.0  0.21478  0.86890  0.94050  1.0000
  H   H347      1.0  0.07721  0.70697  0.76064  1.0000
  C   C358      1.0  0.25477  0.48785  0.78522  1.0000
  S   S127      1.0  0.21006  0.80919  0.00053  1.0000
  C   C359      1.0  0.27247  0.54996  0.80709  1.0000
  H   H348      1.0  0.21894  0.80310  0.93927  1.0000
  C   C360      1.0  0.24413  0.87448  0.94632  1.0000
  H   H349      1.0  0.11271  0.93455  0.71872  1.0000
  C   C361      1.0  0.10304  0.91723  0.76050  1.0000
  C   C362      1.0  0.50243  0.74737  0.89375  1.0000
  H   H350      1.0  0.02124  0.87142  0.99444  1.0000
  C   C363      1.0  0.05292  0.88024  0.73892  1.0000
  H   H351      1.0  0.41109  0.73053  0.70373  1.0000
  C   C364      1.0  0.50195  0.76664  0.72107  1.0000
  C   C365      1.0  0.47555  0.76729  0.70616  1.0000
  H   H352      1.0  0.12260  0.93211  0.76876  1.0000
  H   H353      1.0  0.42207  0.66161  0.98891  1.0000
  C   C366      1.0  0.12664  0.50124  0.87365  1.0000
  H   H354      1.0  0.50825  0.80762  0.94982  1.0000
  H   H355      1.0  0.08749  0.89596  0.80007  1.0000
  H   H356      1.0  0.12059  0.53747  0.95434  1.0000
  C   C367      1.0  0.04096  0.75103  0.76000  1.0000
  H   H357      1.0  0.26452  0.76605  0.98901  1.0000
  H   H358      1.0  0.18201  0.82169  0.94160  1.0000
  C   C368      1.0  0.27044  0.79642  0.99649  1.0000
  H   H359      1.0  0.30076  0.50630  0.78614  1.0000
  H   H360      1.0  0.42491  0.77050  0.68162  1.0000
  C   C369      1.0  0.05804  0.87822  0.76728  1.0000
  H   H361      1.0  0.47660  0.77181  0.68404  1.0000
  H   H362      1.0  0.12418  0.53150  0.83400  1.0000
  C   C370      1.0  0.48801  0.77469  0.87602  1.0000
  N   N32       1.0  0.07259  0.89992  0.72178  1.0000
  C   C371      1.0  0.07676  0.55984  0.96402  1.0000
  C   C372      1.0  0.03760  0.69051  0.99716  1.0000
  H   H363      1.0  0.04888  0.66684  0.98535  1.0000
  H   H364      1.0  0.42654  0.74874  0.75720  1.0000
  H   H365      1.0  0.51233  0.96485  0.80629  1.0000
  H   H366      1.0  0.27783  0.91714  0.95974  1.0000
  H   H367      1.0  0.03312  0.86582  0.73075  1.0000
  C   C373      1.0  0.12451  0.96695  0.91912  1.0000
  H   H368      1.0  0.46896  0.83544  0.87197  1.0000
  C   C374      1.0  0.11294  0.54139  0.99811  1.0000
  C   C375      1.0  0.30066  0.80771  0.99784  1.0000
  S   S128      1.0  0.49697  0.88731  0.97672  1.0000
  H   H369      1.0  0.18992  0.96651  0.95027  1.0000
  H   H370      1.0  0.51185  0.61974  0.99661  1.0000
  C   C376      1.0  0.48075  0.81428  0.88529  1.0000
  H   H371      1.0  0.03516  0.58176  0.97997  1.0000
  C   C377      1.0  0.05695  0.57025  0.98525  1.0000
  H   H372      1.0  0.31767  0.78614  0.99140  1.0000
  H   H373      1.0  0.13473  0.52983  0.00338  1.0000
  H   H374      1.0  0.05728  0.97817  0.85963  1.0000
  H   H375      1.0  0.50707  0.71618  0.88674  1.0000
  C   C378      1.0  0.44047  0.65291  0.00194  1.0000
  H   H376      1.0  0.18645  0.53996  0.83683  1.0000
  C   C379      1.0  0.48818  0.82619  0.91198  1.0000
  H   H377      1.0  0.24299  0.97676  0.96225  1.0000
  H   H378      1.0  0.48234  0.85672  0.91962  1.0000
  C   C380      1.0  0.50283  0.79820  0.92905  1.0000
  N   N33       1.0  0.50993  0.75947  0.91979  1.0000
  Fe  Fe65      1.0  0.92458  0.40854  0.29870  1.0000
  S   S129      1.0  0.91856  0.33934  0.29738  1.0000
  C   C381      1.0  0.55531  0.32722  0.33621  1.0000
  Fe  Fe66      1.0  0.91539  0.41759  0.23574  1.0000
  S   S130      1.0  0.90893  0.34931  0.23014  1.0000
  H   H379      1.0  0.80314  0.28645  0.20558  1.0000
  Fe  Fe67      1.0  0.88032  0.35352  0.26855  1.0000
  S   S131      1.0  0.83645  0.31757  0.26954  1.0000
  Fe  Fe68      1.0  0.94739  0.34037  0.25924  1.0000
  S   S132      1.0  0.98918  0.30330  0.24737  1.0000
  S   S133      1.0  0.88475  0.42251  0.27259  1.0000
  S   S134      1.0  0.95545  0.40887  0.26208  1.0000
  Fe  Fe69      1.0  0.59015  0.35833  0.26215  1.0000
  S   S135      1.0  0.57921  0.29191  0.25411  1.0000
  S   S136      1.0  0.54760  0.39307  0.27447  1.0000
  Fe  Fe70      1.0  0.65681  0.33941  0.25445  1.0000
  S   S137      1.0  0.64943  0.27154  0.24562  1.0000
  S   S138      1.0  0.70150  0.37386  0.25339  1.0000
  Fe  Fe71      1.0  0.61183  0.29335  0.21910  1.0000
  S   S139      1.0  0.59113  0.26306  0.18140  1.0000
  Fe  Fe72      1.0  0.61701  0.27473  0.28125  1.0000
  S   S140      1.0  0.60553  0.21930  0.30830  1.0000
  S   S141      1.0  0.62074  0.36123  0.22530  1.0000
  S   S142      1.0  0.62637  0.34108  0.29195  1.0000
  Fe  Fe73      1.0  0.93857  0.04125  0.02836  1.0000
  S   S143      1.0  0.92926  0.10904  0.02239  1.0000
  C   C382      1.0  0.55563  0.25527  0.03737  1.0000
  H   H380      1.0  0.56814  0.46128  0.23881  1.0000
  Fe  Fe74      1.0  0.64281  0.15173  0.03996  1.0000
  S   S144      1.0  0.64568  0.08266  0.03525  1.0000
  S   S145      1.0  0.66002  0.18351  0.07874  1.0000
  H   H381      1.0  0.78165  0.27238  0.27005  1.0000
  H   H382      1.0  0.00830  0.18948  0.31337  1.0000
  C   C383      1.0  0.77160  0.33512  0.19813  1.0000
  H   H383      1.0  0.59070  0.20679  0.22950  1.0000
  C   C384      1.0  0.95473  0.98264  0.12045  1.0000
  C   C385      1.0  0.55562  0.08616  0.26184  1.0000
  H   H384      1.0  0.86671  0.39935  0.19046  1.0000
  N   N34       1.0  0.98599  0.39411  0.00834  1.0000
  C   C386      1.0  0.91589  0.47106  0.16733  1.0000
  C   C387      1.0  0.52874  0.98498  0.23148  1.0000
  H   H385      1.0  0.72897  0.29277  0.26382  1.0000
  H   H386      1.0  0.52537  0.27598  0.06889  1.0000
  C   C388      1.0  0.80005  0.31907  0.20134  1.0000
  C   C389      1.0  0.55440  0.17160  0.26536  1.0000
  C   C390      1.0  0.79270  0.40340  0.19419  1.0000
  C   C391      1.0  0.53185  0.44142  0.26457  1.0000
  H   H387      1.0  0.97328  0.98807  0.27675  1.0000
  H   H388      1.0  0.51513  0.24577  0.31339  1.0000
  C   C392      1.0  0.57005  0.26541  0.01273  1.0000
  H   H389      1.0  0.98946  0.36780  0.20775  1.0000
  C   C393      1.0  0.61063  0.24114  0.15298  1.0000
  C   C394      1.0  0.64157  0.24089  0.15160  1.0000
  C   C395      1.0  0.65621  0.22313  0.12870  1.0000
  C   C396      1.0  0.64016  0.20537  0.10697  1.0000
  C   C397      1.0  0.60918  0.20555  0.10835  1.0000
  C   C398      1.0  0.59452  0.22338  0.13126  1.0000
  H   H390      1.0  0.65425  0.25445  0.16811  1.0000
  H   H391      1.0  0.68016  0.22316  0.12782  1.0000
  H   H392      1.0  0.59658  0.19184  0.09185  1.0000
  H   H393      1.0  0.57057  0.22330  0.13217  1.0000
  H   H394      1.0  0.84977  0.42612  0.21916  1.0000
  H   H395      1.0  0.93049  0.41150  0.11080  1.0000
  H   H396      1.0  0.75240  0.31502  0.19967  1.0000
  H   H397      1.0  0.60964  0.16101  0.21932  1.0000
  C   C399      1.0  0.54637  0.33223  0.01391  1.0000
  C   C400      1.0  0.00387  0.39437  0.20511  1.0000
  H   H398      1.0  0.95498  0.42867  0.03259  1.0000
  C   C401      1.0  0.52929  0.26370  0.32679  1.0000
  C   C402      1.0  0.53256  0.10547  0.27619  1.0000
  C   C403      1.0  0.99258  0.43164  0.19515  1.0000
  C   C404      1.0  0.92212  0.43579  0.15161  1.0000
  C   C405      1.0  0.54402  0.00515  0.00853  1.0000
  H   H399      1.0  0.55629  0.05273  0.26029  1.0000
  H   H400      1.0  0.72746  0.17953  0.07066  1.0000
  H   H401      1.0  0.92466  0.40619  0.16164  1.0000
  C   C406      1.0  0.79883  0.33446  0.26773  1.0000
  C   C407      1.0  0.79115  0.37612  0.26475  1.0000
  C   C408      1.0  0.76119  0.38760  0.26129  1.0000
  C   C409      1.0  0.73846  0.35773  0.26067  1.0000
  C   C410      1.0  0.74608  0.31616  0.26423  1.0000
  C   C411      1.0  0.77604  0.30469  0.26774  1.0000
  H   H402      1.0  0.80830  0.39945  0.26480  1.0000
  H   H403      1.0  0.75560  0.41985  0.25867  1.0000
  N   N35       1.0  0.53196  0.32184  0.03785  1.0000
  C   C412      1.0  0.76782  0.37755  0.19459  1.0000
  H   H404      1.0  0.82302  0.10429  0.08350  1.0000
  S   S146      1.0  0.95807  0.01552  0.06825  1.0000
  C   C413      1.0  0.98923  0.05078  0.27514  1.0000
  S   S147      1.0  0.94375  0.44855  0.33311  1.0000
  S   S148      1.0  0.56089  0.05147  0.02089  1.0000
  C   C414      1.0  0.53652  0.28404  0.04972  1.0000
  C   C415      1.0  0.96051  0.41633  0.01241  1.0000
  Fe  Fe75      1.0  0.60381  0.08670  0.01027  1.0000
  H   H405      1.0  0.82415  0.08173  0.04941  1.0000
  C   C416      1.0  0.92540  0.43889  0.12273  1.0000
  H   H406      1.0  0.78953  0.43647  0.19228  1.0000
  C   C417      1.0  0.53690  0.30404  0.31924  1.0000
  H   H407      1.0  0.53013  0.30806  0.18382  1.0000
  H   H408      1.0  0.97981  0.24969  0.29590  1.0000
  S   S149      1.0  0.59945  0.15535  0.01789  1.0000
  H   H409      1.0  0.98211  0.37434  0.32231  1.0000
  H   H410      1.0  0.61741  0.18405  0.25251  1.0000
  H   H411      1.0  0.82590  0.13630  0.05294  1.0000
  H   H412      1.0  0.52885  0.31717  0.30020  1.0000
  H   H413      1.0  0.53391  0.99592  0.21094  1.0000
  H   H414      1.0  0.84625  0.33325  0.20486  1.0000
  H   H415      1.0  0.89757  0.98399  0.07533  1.0000
  H   H416      1.0  0.56165  0.35840  0.33031  1.0000
  C   C418      1.0  0.99919  0.23893  0.28476  1.0000
  C   C419      1.0  0.59973  0.17719  0.23739  1.0000
  H   H417      1.0  0.55943  0.22546  0.04694  1.0000
  H   H418      1.0  0.74564  0.39040  0.19344  1.0000
  H   H419      1.0  0.84310  0.44238  0.18420  1.0000
  H   H420      1.0  0.00497  0.27464  0.02276  1.0000
  C   C420      1.0  0.00810  0.25909  0.26057  1.0000
  C   C421      1.0  0.51812  0.99057  0.02171  1.0000
  H   H421      1.0  0.59517  0.09489  0.23777  1.0000
  H   H422      1.0  0.00863  0.11050  0.26814  1.0000
  H   H423      1.0  0.54325  0.36248  0.00476  1.0000
  N   N36       1.0  0.82056  0.38732  0.19701  1.0000
  N   N37       1.0  0.78320  0.11061  0.06093  1.0000
  C   C422      1.0  0.76682  0.07601  0.05546  1.0000
  C   C423      1.0  0.76947  0.14741  0.06657  1.0000
  C   C424      1.0  0.73586  0.07790  0.05513  1.0000
  C   C425      1.0  0.73854  0.15034  0.06649  1.0000
  C   C426      1.0  0.72175  0.11532  0.06072  1.0000
  C   C427      1.0  0.81561  0.10805  0.06192  1.0000
  C   C428      1.0  0.84620  0.41509  0.19777  1.0000
  H   H424      1.0  0.78243  0.17483  0.07089  1.0000
  H   H425      1.0  0.01091  0.05714  0.04667  1.0000
  N   N38       1.0  0.57640  0.15242  0.25056  1.0000
  C   C429      1.0  0.82440  0.34581  0.20098  1.0000
  H   H426      1.0  0.77763  0.04701  0.05042  1.0000
  H   H427      1.0  0.72289  0.05090  0.04965  1.0000
  S   S150      1.0  0.91292  0.46970  0.20393  1.0000
  C   C430      1.0  0.57748  0.11022  0.24906  1.0000
  C   C431      1.0  0.53198  0.14847  0.27818  1.0000
  H   H428      1.0  0.00005  0.40461  0.04993  1.0000
  H   H429      1.0  0.00573  0.35298  0.03675  1.0000
  C   C432      1.0  0.54648  0.46910  0.24699  1.0000
  H   H430      1.0  0.55419  0.20496  0.26733  1.0000
  C   C433      1.0  0.00611  0.38635  0.03131  1.0000
  H   H431      1.0  0.96929  0.43352  0.19022  1.0000
  H   H432      1.0  0.69782  0.11737  0.06034  1.0000
  H   H433      1.0  0.52651  0.37206  0.06549  1.0000
  H   H434      1.0  0.97630  0.06074  0.29291  1.0000
  C   C434      1.0  0.00398  0.99757  0.24301  1.0000
  C   C435      1.0  0.98753  0.00994  0.26606  1.0000
  H   H435      1.0  0.51840  0.10458  0.04895  1.0000
  H   H436      1.0  0.52477  0.25372  0.18895  1.0000
  H   H437      1.0  0.98177  0.20776  0.00994  1.0000
  H   H438      1.0  0.52109  0.34139  0.22611  1.0000
  C   C436      1.0  0.93915  0.99120  0.09611  1.0000
  H   H439      1.0  0.97746  0.99280  0.12236  1.0000
  H   H440      1.0  0.51413  0.16369  0.28937  1.0000
  H   H441      1.0  0.51503  0.08700  0.28546  1.0000
  C   C437      1.0  0.00753  0.07873  0.26104  1.0000
  C   C438      1.0  0.92213  0.47705  0.10913  1.0000
  N   N39       1.0  0.01057  0.46531  0.19185  1.0000
  S   S151      1.0  0.92733  0.47912  0.07273  1.0000
  C   C439      1.0  0.51299  0.35234  0.05174  1.0000
  C   C440      1.0  0.51300  0.28373  0.18687  1.0000
  C   C441      1.0  0.99998  0.36446  0.33561  1.0000
  Fe  Fe76      1.0  0.91969  0.03365  0.46104  1.0000
  S   S152      1.0  0.91439  0.10299  0.45891  1.0000
  H   H442      1.0  0.60863  0.26972  0.65494  1.0000
  Fe  Fe77      1.0  0.94100  0.10479  0.49805  1.0000
  S   S153      1.0  0.97983  0.14665  0.51062  1.0000
  Fe  Fe78      1.0  0.87459  0.09282  0.48710  1.0000
  S   S154      1.0  0.83095  0.12838  0.48373  1.0000
  S   S155      1.0  0.87829  0.02382  0.48627  1.0000
  Fe  Fe79      1.0  0.62433  0.15814  0.46843  1.0000
  S   S156      1.0  0.62812  0.08906  0.46446  1.0000
  S   S157      1.0  0.63094  0.20967  0.43691  1.0000
  Fe  Fe80      1.0  0.59013  0.08504  0.49515  1.0000
  S   S158      1.0  0.54573  0.05178  0.48804  1.0000
  S   S159      1.0  0.58455  0.15436  0.49622  1.0000
  S   S160      1.0  0.65592  0.16265  0.50391  1.0000
  C   C442      1.0  0.62680  0.20830  0.65664  1.0000
  H   H443      1.0  0.57946  0.25011  0.51638  1.0000
  C   C443      1.0  0.79508  0.10778  0.48994  1.0000
  C   C444      1.0  0.77097  0.13504  0.49286  1.0000
  C   C445      1.0  0.74196  0.12000  0.49701  1.0000
  H   H444      1.0  0.77474  0.16804  0.49190  1.0000
  H   H445      1.0  0.72365  0.14137  0.49920  1.0000
  H   H446      1.0  0.83053  0.11826  0.55034  1.0000
  C   C446      1.0  0.62826  0.24851  0.35746  1.0000
  C   C447      1.0  0.63327  0.24580  0.38599  1.0000
  C   C448      1.0  0.62516  0.21026  0.40089  1.0000
  C   C449      1.0  0.61229  0.17708  0.38693  1.0000
  C   C450      1.0  0.60719  0.17984  0.35838  1.0000
  C   C451      1.0  0.78878  0.01886  0.57110  1.0000
  H   H447      1.0  0.64329  0.27160  0.39663  1.0000
  H   H448      1.0  0.60604  0.14950  0.39815  1.0000
  C   C452      1.0  0.61486  0.21571  0.34358  1.0000
  H   H449      1.0  0.73196  0.02755  0.55410  1.0000
  C   C453      1.0  0.69372  0.14058  0.42814  1.0000
  C   C454      1.0  0.78798  0.08962  0.55817  1.0000
  H   H450      1.0  0.69423  0.20533  0.41811  1.0000
  H   H451      1.0  0.97186  0.46585  0.62921  1.0000
  C   C455      1.0  0.90800  0.43311  0.37900  1.0000
  C   C456      1.0  0.91192  0.47180  0.42230  1.0000
  S   S161      1.0  0.90042  0.47828  0.45713  1.0000
  H   H452      1.0  0.94066  0.44571  0.49992  1.0000
  C   C457      1.0  0.98062  0.38429  0.50514  1.0000
  Fe  Fe81      1.0  0.90707  0.03076  0.52368  1.0000
  S   S162      1.0  0.90085  0.09959  0.52607  1.0000
  N   N40       1.0  0.96951  0.41020  0.52500  1.0000
  S   S163      1.0  0.94885  0.03580  0.49849  1.0000
  Fe  Fe82      1.0  0.61625  0.15427  0.53168  1.0000
  S   S164      1.0  0.61954  0.08470  0.53257  1.0000
  S   S165      1.0  0.60411  0.20233  0.56436  1.0000
  Fe  Fe83      1.0  0.65738  0.09355  0.50192  1.0000
  S   S166      1.0  0.70065  0.05679  0.50307  1.0000
  H   H453      1.0  0.52074  0.12893  0.46200  1.0000
  N   N41       1.0  0.77331  0.05405  0.56512  1.0000
  C   C458      1.0  0.81895  0.09038  0.55671  1.0000
  H   H454      1.0  0.79855  0.11817  0.42806  1.0000
  C   C459      1.0  0.78755  0.14794  0.42300  1.0000
  C   C460      1.0  0.56570  0.30998  0.36062  1.0000
  H   H455      1.0  0.91051  0.04659  0.38988  1.0000
  H   H456      1.0  0.97799  0.19001  0.45709  1.0000
  C   C461      1.0  0.73672  0.07743  0.49806  1.0000
  C   C462      1.0  0.76086  0.05019  0.49539  1.0000
  C   C463      1.0  0.78990  0.06523  0.49134  1.0000
  H   H457      1.0  0.75708  0.01719  0.49629  1.0000
  H   H458      1.0  0.80822  0.04387  0.48913  1.0000
  C   C464      1.0  0.94096  0.43063  0.52050  1.0000
  C   C465      1.0  0.63331  0.17251  0.64127  1.0000
  C   C466      1.0  0.62691  0.17030  0.61293  1.0000
  C   C467      1.0  0.61361  0.20380  0.59974  1.0000
  C   C468      1.0  0.60692  0.23952  0.61516  1.0000
  C   C469      1.0  0.61363  0.24192  0.64343  1.0000
  C   C470      1.0  0.70753  0.17787  0.42162  1.0000
  H   H459      1.0  0.63203  0.14258  0.60135  1.0000
  H   H460      1.0  0.59667  0.26562  0.60510  1.0000
  H   H461      1.0  0.77718  0.99067  0.57662  1.0000
  C   C471      1.0  0.53334  0.45651  0.48800  1.0000
  N   N42       1.0  0.53963  0.24698  0.35071  1.0000
  C   C472      1.0  0.93012  0.45761  0.36702  1.0000
  H   H462      1.0  0.74909  0.20877  0.41513  1.0000
  C   C473      1.0  0.01148  0.39604  0.55365  1.0000
  C   C474      1.0  0.93560  0.45602  0.65779  1.0000
  H   H463      1.0  0.53555  0.36750  0.52233  1.0000
  H   H464      1.0  0.00026  0.99087  0.42255  1.0000
  H   H465      1.0  0.54346  0.18302  0.34252  1.0000
  H   H466      1.0  0.77580  0.11745  0.55309  1.0000
  H   H467      1.0  0.92270  0.40767  0.52156  1.0000
  C   C475      1.0  0.91583  0.01852  0.37877  1.0000
  C   C476      1.0  0.01055  0.01443  0.43522  1.0000
  H   H468      1.0  0.89807  0.40841  0.36721  1.0000
  C   C477      1.0  0.98443  0.41597  0.54914  1.0000
  H   H469      1.0  0.85888  0.05483  0.56213  1.0000
  H   H470      1.0  0.00906  0.24677  0.43792  1.0000
  H   H471      1.0  0.56627  0.25616  0.38637  1.0000
  C   C478      1.0  0.53682  0.33514  0.52807  1.0000
  C   C479      1.0  0.53251  0.00090  0.49561  1.0000
  H   H472      1.0  0.54424  0.43740  0.47268  1.0000
  H   H473      1.0  0.70029  0.07664  0.43892  1.0000
  H   H474      1.0  0.96166  0.01022  0.63518  1.0000
  H   H475      1.0  0.88229  0.42050  0.41574  1.0000
  N   N43       1.0  0.75515  0.14498  0.42465  1.0000
  H   H476      1.0  0.58037  0.32751  0.37382  1.0000
  H   H477      1.0  0.73340  0.04956  0.58844  1.0000
  H   H478      1.0  0.79468  0.15724  0.40195  1.0000
  H   H479      1.0  0.96862  0.37937  0.48613  1.0000
  C   C480      1.0  0.74084  0.05337  0.56674  1.0000
  H   H480      1.0  0.59706  0.15414  0.34775  1.0000
  H   H481      1.0  0.53948  0.19546  0.37848  1.0000
  H   H482      1.0  0.63432  0.27624  0.34632  1.0000
  H   H483      1.0  0.93645  0.45504  0.53614  1.0000
  C   C481      1.0  0.71084  0.10550  0.43298  1.0000
  H   H484      1.0  0.75487  0.08092  0.43526  1.0000
  H   H485      1.0  0.64341  0.14630  0.65132  1.0000
  H   H486      1.0  0.79572  0.17106  0.43812  1.0000
  H   H487      1.0  0.97548  0.43600  0.56511  1.0000
  C   C482      1.0  0.74173  0.10819  0.43093  1.0000
  H   H488      1.0  0.94300  0.02284  0.58789  1.0000
  H   H489      1.0  0.57545  0.32398  0.50254  1.0000
  C   C483      1.0  0.81978  0.01867  0.57013  1.0000
  C   C484      1.0  0.89910  0.44006  0.40655  1.0000
  H   H490      1.0  0.83218  0.99078  0.57479  1.0000
  C   C485      1.0  0.99993  0.18917  0.49626  1.0000
  H   H491      1.0  0.98685  0.40416  0.36922  1.0000
  C   C486      1.0  0.73848  0.17957  0.41999  1.0000
  H   H492      1.0  0.97559  0.05869  0.42906  1.0000
  C   C487      1.0  0.56160  0.26927  0.52444  1.0000
  C   C488      1.0  0.90551  0.46286  0.66331  1.0000
  H   H493      1.0  0.66976  0.13904  0.42963  1.0000
  C   C489      1.0  0.83486  0.05471  0.56294  1.0000
  C   C490      1.0  0.55754  0.26959  0.36764  1.0000
  H   H494      1.0  0.99895  0.11205  0.45839  1.0000
  C   C491      1.0  0.55948  0.31072  0.51683  1.0000
  C   C492      1.0  0.99519  0.20370  0.46950  1.0000
  C   C493      1.0  0.91184  0.01648  0.34998  1.0000
  C   C494      1.0  0.53225  0.20402  0.35742  1.0000
  H   H495      1.0  0.73084  0.08221  0.55852  1.0000
  H   H496      1.0  0.54287  0.22067  0.54934  1.0000
  C   C495      1.0  0.99671  0.05262  0.43882  1.0000
  C   C496      1.0  0.54102  0.25270  0.54296  1.0000
  C   C497      1.0  0.01003  0.08262  0.45539  1.0000
  C   C498      1.0  0.93286  0.99926  0.60064  1.0000
  C   C499      1.0  0.94340  0.99202  0.62749  1.0000
  C   C500      1.0  0.00270  0.38126  0.36196  1.0000
  C   C501      1.0  0.94857  0.47127  0.63325  1.0000
  N   N44       1.0  0.51660  0.31853  0.54609  1.0000
  C   C502      1.0  0.51861  0.27795  0.55376  1.0000
  C   C503      1.0  0.00754  0.36372  0.50904  1.0000
  S   S167      1.0  0.93417  0.98581  0.42894  1.0000
  C   C504      1.0  0.92716  0.98448  0.39296  1.0000
  S   S168      1.0  0.89561  0.98258  0.55652  1.0000
  H   H497      1.0  0.90340  0.04317  0.33917  1.0000
  Fe  Fe84      1.0  0.92210  0.40809  0.79096  1.0000
  S   S169      1.0  0.91915  0.33875  0.79550  1.0000
  C   C505      1.0  0.53395  0.01025  0.73528  1.0000
  Fe  Fe85      1.0  0.90540  0.40563  0.72935  1.0000
  S   S170      1.0  0.90171  0.33635  0.72964  1.0000
  C   C506      1.0  0.99266  0.37817  0.98291  1.0000
  Fe  Fe86      1.0  0.87738  0.34467  0.76993  1.0000
  S   S171      1.0  0.83513  0.30652  0.77606  1.0000
  Fe  Fe87      1.0  0.94354  0.33567  0.75483  1.0000
  S   S172      1.0  0.98394  0.29648  0.74203  1.0000
  S   S173      1.0  0.87887  0.41395  0.76853  1.0000
  S   S174      1.0  0.94886  0.40497  0.75153  1.0000
  Fe  Fe88      1.0  0.59335  0.33157  0.75015  1.0000
  S   S175      1.0  0.59062  0.26185  0.75251  1.0000
  S   S176      1.0  0.54941  0.36382  0.73953  1.0000
  Fe  Fe89      1.0  0.66106  0.32983  0.75574  1.0000
  S   S177      1.0  0.66264  0.26099  0.75796  1.0000
  S   S178      1.0  0.70268  0.36988  0.75846  1.0000
  Fe  Fe90      1.0  0.62962  0.26114  0.72354  1.0000
  C   C507      1.0  0.55671  0.15754  0.80078  1.0000
  Fe  Fe91      1.0  0.62366  0.26619  0.78679  1.0000
  S   S179      1.0  0.62533  0.21655  0.82007  1.0000
  S   S180      1.0  0.63079  0.33025  0.71884  1.0000
  S   S181      1.0  0.62368  0.33596  0.78697  1.0000
  Fe  Fe92      1.0  0.93224  0.02334  0.96599  1.0000
  S   S182      1.0  0.92230  0.08962  0.95604  1.0000
  H   H498      1.0  0.54237  0.11088  0.77191  1.0000
  H   H499      1.0  0.78032  0.26330  0.76863  1.0000
  H   H500      1.0  0.75119  0.42603  0.67797  1.0000
  H   H501      1.0  0.72843  0.28673  0.76158  1.0000
  C   C508      1.0  0.69985  0.26618  0.83357  1.0000
  N   N45       1.0  0.72976  0.27279  0.83183  1.0000
  Fe  Fe93      1.0  0.62627  0.16299  0.97885  1.0000
  S   S183      1.0  0.62848  0.09465  0.96992  1.0000
  S   S184      1.0  0.61094  0.21548  0.95091  1.0000
  H   H502      1.0  0.75748  0.41288  0.76623  1.0000
  S   S185      1.0  0.84779  0.12041  0.99659  1.0000
  H   H503      1.0  0.00633  0.09585  0.76928  1.0000
  H   H504      1.0  0.57292  0.23301  0.69177  1.0000
  H   H505      1.0  0.80944  0.38942  0.77238  1.0000
  C   C509      1.0  0.77537  0.29600  0.76806  1.0000
  C   C510      1.0  0.74593  0.30920  0.76404  1.0000
  H   H506      1.0  0.65223  0.00043  0.74837  1.0000
  H   H507      1.0  0.67596  0.36565  0.83020  1.0000
  H   H508      1.0  0.81477  0.42726  0.69802  1.0000
  C   C511      1.0  0.92771  0.46399  0.85590  1.0000
  C   C512      1.0  0.53534  0.41333  0.74940  1.0000
  H   H509      1.0  0.91434  0.03169  0.90028  1.0000
  C   C513      1.0  0.01105  0.20157  0.79199  1.0000
  C   C514      1.0  0.81064  0.10290  0.99204  1.0000
  S   S186      1.0  0.66957  0.16482  0.00157  1.0000
  C   C515      1.0  0.62211  0.21804  0.85650  1.0000
  C   C516      1.0  0.62976  0.18252  0.87149  1.0000
  C   C517      1.0  0.62686  0.18149  0.90039  1.0000
  C   C518      1.0  0.61591  0.21590  0.91461  1.0000
  C   C519      1.0  0.60809  0.25142  0.89960  1.0000
  C   C520      1.0  0.61126  0.25260  0.87067  1.0000
  H   H510      1.0  0.63800  0.15552  0.86072  1.0000
  H   H511      1.0  0.63287  0.15394  0.91166  1.0000
  H   H512      1.0  0.59951  0.27814  0.91045  1.0000
  H   H513      1.0  0.60496  0.28000  0.85941  1.0000
  C   C521      1.0  0.53442  0.46314  0.98113  1.0000
  C   C522      1.0  0.72158  0.34610  0.82954  1.0000
  H   H514      1.0  0.57848  0.16154  0.79141  1.0000
  C   C523      1.0  0.00191  0.38555  0.81473  1.0000
  S   S187      1.0  0.88789  0.44528  0.69404  1.0000
  Fe  Fe94      1.0  0.89269  0.08701  0.99400  1.0000
  C   C524      1.0  0.68012  0.29948  0.83354  1.0000
  Fe  Fe95      1.0  0.95931  0.10633  0.98511  1.0000
  C   C525      1.0  0.54863  0.18084  0.82395  1.0000
  H   H515      1.0  0.97929  0.37240  0.94045  1.0000
  H   H516      1.0  0.76340  0.44495  0.71117  1.0000
  H   H517      1.0  0.54312  0.44816  0.96284  1.0000
  C   C526      1.0  0.89496  0.44923  0.89476  1.0000
  C   C527      1.0  0.74075  0.31214  0.82994  1.0000
  S   S188      1.0  0.71302  0.05963  0.98657  1.0000
  C   C528      1.0  0.79853  0.32477  0.77090  1.0000
  C   C529      1.0  0.79189  0.36695  0.77003  1.0000
  C   C530      1.0  0.76239  0.38015  0.76655  1.0000
  C   C531      1.0  0.73928  0.35142  0.76339  1.0000
  C   C532      1.0  0.80364  0.06131  0.98760  1.0000
  S   S189      1.0  0.97063  0.03978  0.99278  1.0000
  H   H518      1.0  0.85292  0.37296  0.69904  1.0000
  H   H519      1.0  0.73983  0.14166  0.99439  1.0000
  N   N46       1.0  0.52141  0.17588  0.83610  1.0000
  H   H520      1.0  0.73496  0.40681  0.70968  1.0000
  H   H521      1.0  0.79240  0.16391  0.99783  1.0000
  H   H522      1.0  0.69098  0.23500  0.83469  1.0000
  C   C533      1.0  0.99397  0.05566  0.91426  1.0000
  H   H523      1.0  0.56429  0.20294  0.83220  1.0000
  C   C534      1.0  0.94800  0.40797  0.96450  1.0000
  C   C535      1.0  0.77011  0.34408  0.70073  1.0000
  C   C536      1.0  0.97385  0.38495  0.96060  1.0000
  H   H524      1.0  0.58504  0.24356  0.00289  1.0000
  H   H525      1.0  0.97928  0.38218  0.82215  1.0000
  H   H526      1.0  0.65646  0.29403  0.83481  1.0000
  H   H527      1.0  0.93324  0.41366  0.94737  1.0000
  H   H528      1.0  0.87696  0.43132  0.90350  1.0000
  C   C537      1.0  0.82970  0.36451  0.69964  1.0000
  N   N47       1.0  0.98212  0.04853  0.74862  1.0000
  C   C538      1.0  0.74986  0.23725  0.83046  1.0000
  H   H529      1.0  0.76440  0.31747  0.82774  1.0000
  H   H530      1.0  0.77332  0.24647  0.83377  1.0000
  H   H531      1.0  0.74394  0.21422  0.84658  1.0000
  H   H532      1.0  0.74836  0.22246  0.80984  1.0000
  C   C539      1.0  0.75592  0.41726  0.69958  1.0000
  N   N48       1.0  0.52567  0.23094  0.69212  1.0000
  H   H533      1.0  0.78470  0.28060  0.70322  1.0000
  S   S190      1.0  0.90057  0.01920  0.00231  1.0000
  C   C540      1.0  0.55682  0.17066  0.69171  1.0000
  H   H534      1.0  0.76861  0.01655  0.98206  1.0000
  Fe  Fe96      1.0  0.67041  0.09614  0.99566  1.0000
  H   H535      1.0  0.56462  0.42259  0.78358  1.0000
  C   C541      1.0  0.98048  0.02358  0.72592  1.0000
  C   C542      1.0  0.00232  0.25228  0.75582  1.0000
  C   C543      1.0  0.00269  0.21677  0.00071  1.0000
  S   S191      1.0  0.00066  0.14250  0.97112  1.0000
  H   H536      1.0  0.52258  0.28624  0.71539  1.0000
  H   H537      1.0  0.89368  0.41747  0.85548  1.0000
  H   H538      1.0  0.57498  0.99390  0.97545  1.0000
  C   C544      1.0  0.91608  0.00559  0.85924  1.0000
  C   C545      1.0  0.69108  0.33963  0.83122  1.0000
  H   H539      1.0  0.96862  0.02018  0.78602  1.0000
  C   C546      1.0  0.96055  0.04359  0.77113  1.0000
  C   C547      1.0  0.54608  0.43488  0.77223  1.0000
  C   C548      1.0  0.78732  0.13166  0.99436  1.0000
  H   H540      1.0  0.73027  0.37713  0.82692  1.0000
  H   H541      1.0  0.53406  0.11197  0.69260  1.0000
  H   H542      1.0  0.95669  0.07324  0.78215  1.0000
  H   H543      1.0  0.97633  0.24791  0.79306  1.0000
  C   C549      1.0  0.52256  0.27600  0.69352  1.0000
  C   C550      1.0  0.53232  0.47199  0.78088  1.0000
  H   H544      1.0  0.90489  0.03162  0.84998  1.0000
  H   H545      1.0  0.82124  0.03875  0.98583  1.0000
  C   C551      1.0  0.82140  0.32310  0.70135  1.0000
  S   S192      1.0  0.63447  0.20864  0.69244  1.0000
  H   H546      1.0  0.99681  0.08455  0.92637  1.0000
  C   C552      1.0  0.75040  0.07753  0.98799  1.0000
  H   H547      1.0  0.74681  0.33577  0.70153  1.0000
  H   H548      1.0  0.57889  0.15723  0.69129  1.0000
  H   H549      1.0  0.83820  0.29921  0.70286  1.0000
  S   S193      1.0  0.94053  0.45511  0.82164  1.0000
  C   C553      1.0  0.77373  0.04880  0.98549  1.0000
  H   H550      1.0  0.00766  0.44586  0.83265  1.0000
  C   C554      1.0  0.99471  0.23518  0.78139  1.0000
  C   C555      1.0  0.00470  0.07648  0.75109  1.0000
  N   N49       1.0  0.77851  0.38472  0.70012  1.0000
  H   H551      1.0  0.99446  0.02960  0.92916  1.0000
  C   C556      1.0  0.92145  0.00574  0.88778  1.0000
  H   H552      1.0  0.54016  0.02286  0.71543  1.0000
  C   C557      1.0  0.80789  0.39513  0.69903  1.0000
  C   C558      1.0  0.90442  0.44124  0.86750  1.0000
  C   C559      1.0  0.75743  0.11914  0.99241  1.0000
  C   C560      1.0  0.94118  0.42364  0.99057  1.0000
  H   H553      1.0  0.93871  0.03305  0.76329  1.0000
  C   C561      1.0  0.55333  0.21362  0.69183  1.0000
  H   H554      1.0  0.00257  0.32662  0.79443  1.0000
  C   C562      1.0  0.79141  0.31269  0.70159  1.0000
  C   C563      1.0  0.56536  0.30404  0.00085  1.0000
  H   H555      1.0  0.54120  0.29174  0.68265  1.0000
  C   C564      1.0  0.53658  0.12926  0.78990  1.0000
  H   H556      1.0  0.51962  0.11509  0.99868  1.0000
  H   H557      1.0  0.92110  0.44156  0.99382  1.0000
  H   H558      1.0  0.00497  0.18879  0.81183  1.0000
  C   C565      1.0  0.53178  0.14539  0.69228  1.0000
  H   H559      1.0  0.53263  0.20632  0.87362  1.0000
  H   H560      1.0  0.97188  0.05622  0.90440  1.0000
  H   H561      1.0  0.96280  0.00106  0.72409  1.0000
  H   H562      1.0  0.57655  0.31211  0.98171  1.0000
  H   H563      1.0  0.94885  0.43899  0.67237  1.0000
  H   H564      1.0  0.01266  0.36008  0.97976  1.0000
  C   C566      1.0  0.55517  0.98312  0.98588  1.0000
  C   C567      1.0  0.90857  0.48005  0.91075  1.0000
  H   H565      1.0  0.99993  0.00693  0.68666  1.0000
  C   C568      1.0  0.00149  0.02674  0.70468  1.0000
  C   C569      1.0  0.51329  0.20147  0.85994  1.0000
  Fe  Fe97      1.0  0.91452  0.92262  0.27097  1.0000
  S   S194      1.0  0.91511  0.85652  0.28477  1.0000
  S   S195      1.0  0.83658  0.63642  0.01892  1.0000
  Fe  Fe98      1.0  0.90857  0.89836  0.20950  1.0000
  S   S196      1.0  0.90932  0.83021  0.21955  1.0000
  N   N50       1.0  0.97677  0.90170  0.04719  1.0000
  Fe  Fe99      1.0  0.87813  0.84708  0.25435  1.0000
  S   S197      1.0  0.83655  0.80976  0.26467  1.0000
  Fe  Fe100     1.0  0.94637  0.84553  0.24885  1.0000
  S   S198      1.0  0.99181  0.81577  0.25690  1.0000
  S   S199      1.0  0.87554  0.91379  0.24302  1.0000
  S   S200      1.0  0.94758  0.91307  0.23644  1.0000
  Fe  Fe101     1.0  0.59514  0.85163  0.26918  1.0000
  S   S201      1.0  0.58475  0.78348  0.26900  1.0000
  S   S202      1.0  0.55726  0.89398  0.28377  1.0000
  Fe  Fe102     1.0  0.66024  0.83508  0.25364  1.0000
  S   S203      1.0  0.65387  0.76622  0.25214  1.0000
  S   S204      1.0  0.70375  0.86812  0.24299  1.0000
  Fe  Fe103     1.0  0.61163  0.78021  0.22979  1.0000
  S   S205      1.0  0.59165  0.73869  0.19660  1.0000
  Fe  Fe104     1.0  0.62749  0.77472  0.29153  1.0000
  H   H566      1.0  0.54802  0.80368  0.19244  1.0000
  S   S206      1.0  0.61927  0.84896  0.22839  1.0000
  S   S207      1.0  0.63661  0.84293  0.29449  1.0000
  Fe  Fe105     1.0  0.91871  0.53157  0.04201  1.0000
  S   S208      1.0  0.91761  0.60119  0.04563  1.0000
  H   H567      1.0  0.93717  0.93720  0.04350  1.0000
  H   H568      1.0  0.59912  0.67357  0.23330  1.0000
  Fe  Fe106     1.0  0.62853  0.67596  0.03934  1.0000
  S   S209      1.0  0.63369  0.60716  0.04132  1.0000
  S   S210      1.0  0.63956  0.72252  0.07299  1.0000
  H   H569      1.0  0.78035  0.77203  0.27690  1.0000
  H   H570      1.0  0.95205  0.90210  0.08498  1.0000
  H   H571      1.0  0.56433  0.59967  0.31649  1.0000
  C   C570      1.0  0.83692  0.94428  0.31224  1.0000
  H   H572      1.0  0.70065  0.67639  0.05198  1.0000
  H   H573      1.0  0.00271  0.96599  0.23562  1.0000
  H   H574      1.0  0.96316  0.56582  0.27215  1.0000
  C   C571      1.0  0.67518  0.63705  0.10303  1.0000
  C   C572      1.0  0.83897  0.84984  0.17836  1.0000
  H   H575      1.0  0.97180  0.70993  0.02907  1.0000
  H   H576      1.0  0.72823  0.79366  0.26880  1.0000
  S   S211      1.0  0.89406  0.91766  0.16630  1.0000
  H   H577      1.0  0.99770  0.77614  0.03879  1.0000
  C   C573      1.0  0.95544  0.92228  0.03278  1.0000
  C   C574      1.0  0.54542  0.63957  0.22725  1.0000
  C   C575      1.0  0.53845  0.93697  0.26899  1.0000
  C   C576      1.0  0.52682  0.83762  0.22533  1.0000
  H   H578      1.0  0.54572  0.60888  0.21695  1.0000
  H   H579      1.0  0.97497  0.50565  0.30135  1.0000
  H   H580      1.0  0.81003  0.55407  0.01298  1.0000
  C   C577      1.0  0.60533  0.73434  0.16234  1.0000
  C   C578      1.0  0.59298  0.70462  0.14462  1.0000
  C   C579      1.0  0.60311  0.70048  0.11717  1.0000
  C   C580      1.0  0.62552  0.72642  0.10714  1.0000
  C   C581      1.0  0.63784  0.75608  0.12486  1.0000
  C   C582      1.0  0.62790  0.75997  0.15233  1.0000
  H   H581      1.0  0.57546  0.68469  0.15214  1.0000
  H   H582      1.0  0.59348  0.67745  0.10378  1.0000
  H   H583      1.0  0.65518  0.77629  0.11729  1.0000
  H   H584      1.0  0.63752  0.78307  0.16569  1.0000
  C   C583      1.0  0.94127  0.96063  0.14231  1.0000
  H   H585      1.0  0.78392  0.87556  0.16890  1.0000
  C   C584      1.0  0.71186  0.66730  0.07134  1.0000
  H   H586      1.0  0.97039  0.74345  0.22583  1.0000
  H   H587      1.0  0.55288  0.66350  0.21228  1.0000
  C   C585      1.0  0.65896  0.60343  0.11318  1.0000
  H   H588      1.0  0.63042  0.67248  0.27471  1.0000
  S   S212      1.0  0.87835  0.52838  0.01521  1.0000
  C   C586      1.0  0.76004  0.90088  0.31257  1.0000
  H   H589      1.0  0.84794  0.97372  0.30883  1.0000
  H   H590      1.0  0.78168  0.68064  0.01490  1.0000
  C   C587      1.0  0.99419  0.71470  0.02163  1.0000
  H   H591      1.0  0.91308  0.54178  0.11476  1.0000
  S   S213      1.0  0.55307  0.56578  0.02759  1.0000
  C   C588      1.0  0.59471  0.78001  0.01844  1.0000
  C   C589      1.0  0.79972  0.82724  0.25961  1.0000
  C   C590      1.0  0.79366  0.86555  0.24761  1.0000
  C   C591      1.0  0.76414  0.87765  0.24296  1.0000
  C   C592      1.0  0.74032  0.85178  0.25036  1.0000
  C   C593      1.0  0.74634  0.81382  0.26290  1.0000
  C   C594      1.0  0.77591  0.80168  0.26750  1.0000
  H   H592      1.0  0.81168  0.88568  0.24159  1.0000
  H   H593      1.0  0.75970  0.90713  0.23333  1.0000
  H   H594      1.0  0.97551  0.50928  0.18931  1.0000
  S   S214      1.0  0.58683  0.67254  0.01478  1.0000
  H   H595      1.0  0.83372  0.77637  0.20265  1.0000
  C   C595      1.0  0.74017  0.59384  0.00507  1.0000
  H   H596      1.0  0.58056  0.75661  0.05778  1.0000
  H   H597      1.0  0.75158  0.91884  0.29477  1.0000
  H   H598      1.0  0.67012  0.66774  0.11068  1.0000
  N   N51       1.0  0.81150  0.82709  0.18381  1.0000
  C   C596      1.0  0.81261  0.78946  0.19658  1.0000
  C   C597      1.0  0.78481  0.84495  0.17794  1.0000
  C   C598      1.0  0.78651  0.76813  0.20309  1.0000
  H   H599      1.0  0.73708  0.83943  0.18059  1.0000
  H   H600      1.0  0.78751  0.73887  0.21392  1.0000
  C   C599      1.0  0.91261  0.50917  0.15375  1.0000
  H   H601      1.0  0.87380  0.94511  0.11371  1.0000
  H   H602      1.0  0.90784  0.53670  0.16567  1.0000
  C   C600      1.0  0.57518  0.77724  0.04092  1.0000
  H   H603      1.0  0.99682  0.50181  0.15806  1.0000
  H   H604      1.0  0.61304  0.63602  0.31674  1.0000
  C   C601      1.0  0.54345  0.82709  0.02077  1.0000
  H   H605      1.0  0.73548  0.66011  0.06667  1.0000
  H   H606      1.0  0.65209  0.53760  0.11031  1.0000
  H   H607      1.0  0.85789  0.82862  0.17434  1.0000
  H   H608      1.0  0.99986  0.62268  0.26693  1.0000
  C   C602      1.0  0.80614  0.94069  0.30987  1.0000
  H   H609      1.0  0.75240  0.86852  0.30963  1.0000
  H   H610      1.0  0.95357  0.95408  0.16083  1.0000
  C   C603      1.0  0.99819  0.50375  0.18087  1.0000
  C   C604      1.0  0.53708  0.51944  0.01442  1.0000
  C   C605      1.0  0.75919  0.78591  0.19693  1.0000
  H   H611      1.0  0.53340  0.60183  0.27473  1.0000
  Fe  Fe107     1.0  0.87888  0.59747  0.01604  1.0000
  N   N52       1.0  0.54965  0.80005  0.04159  1.0000
  C   C606      1.0  0.99096  0.53046  0.29942  1.0000
  H   H612      1.0  0.64149  0.60827  0.12835  1.0000
  N   N53       1.0  0.56412  0.63856  0.25177  1.0000
  C   C607      1.0  0.59124  0.65747  0.25149  1.0000
  C   C608      1.0  0.55462  0.61752  0.27465  1.0000
  C   C609      1.0  0.60921  0.65667  0.27478  1.0000
  C   C610      1.0  0.57205  0.61609  0.29833  1.0000
  C   C611      1.0  0.59943  0.63610  0.29839  1.0000
  C   C612      1.0  0.83951  0.87164  0.32293  1.0000
  H   H613      1.0  0.99379  0.67556  0.21551  1.0000
  C   C613      1.0  0.52766  0.80863  0.20405  1.0000
  H   H614      1.0  0.01193  0.53099  0.18651  1.0000
  N   N54       1.0  0.79244  0.90343  0.31397  1.0000
  H   H615      1.0  0.84446  0.86949  0.19636  1.0000
  H   H616      1.0  0.54477  0.52829  0.22658  1.0000
  C   C614      1.0  0.98417  0.56438  0.28279  1.0000
  C   C615      1.0  0.99214  0.73645  0.23375  1.0000
  N   N55       1.0  0.69670  0.63145  0.08335  1.0000
  C   C616      1.0  0.70276  0.59276  0.07343  1.0000
  C   C617      1.0  0.68702  0.55841  0.08311  1.0000
  C   C618      1.0  0.91556  0.51219  0.12485  1.0000
  H   H617      1.0  0.71946  0.58833  0.05756  1.0000
  H   H618      1.0  0.69146  0.52799  0.07457  1.0000
  H   H619      1.0  0.73874  0.77056  0.20289  1.0000
  H   H620      1.0  0.71130  0.69432  0.08550  1.0000
  C   C619      1.0  0.91203  0.94683  0.14000  1.0000
  H   H621      1.0  0.83704  0.87005  0.15995  1.0000
  C   C620      1.0  0.54475  0.95133  0.24240  1.0000
  C   C621      1.0  0.75826  0.82460  0.18432  1.0000
  C   C622      1.0  0.66491  0.56387  0.10306  1.0000
  C   C623      1.0  0.00553  0.69788  0.22792  1.0000
  Fe  Fe108     1.0  0.94636  0.60215  0.00721  1.0000
  C   C624      1.0  0.00901  0.75235  0.02711  1.0000
  C   C625      1.0  0.79957  0.61888  0.01442  1.0000
  C   C626      1.0  0.85360  0.90951  0.31892  1.0000
  C   C627      1.0  0.00473  0.59625  0.27988  1.0000
  S   S215      1.0  0.63316  0.72378  0.32368  1.0000
  H   H622      1.0  0.56199  0.93666  0.23026  1.0000
  H   H623      1.0  0.72972  0.65868  0.00640  1.0000
  C   C628      1.0  0.91876  0.98032  0.33513  1.0000
  H   H624      1.0  0.79803  0.83943  0.32342  1.0000
  C   C629      1.0  0.79263  0.57694  0.01167  1.0000
  H   H625      1.0  0.74994  0.91306  0.33186  1.0000
  H   H626      1.0  0.52211  0.64679  0.23311  1.0000
  C   C630      1.0  0.76309  0.56455  0.00711  1.0000
  H   H627      1.0  0.52373  0.84623  0.02170  1.0000
  C   C631      1.0  0.80870  0.86918  0.32057  1.0000
  C   C632      1.0  0.52956  0.79662  0.06538  1.0000
  C   C633      1.0  0.74704  0.63574  0.00811  1.0000
  C   C634      1.0  0.77654  0.64811  0.01287  1.0000
  C   C635      1.0  0.00836  0.68344  0.00652  1.0000
  C   C636      1.0  0.53314  0.50720  0.24013  1.0000
  H   H628      1.0  0.79330  0.96786  0.30469  1.0000
  H   H629      1.0  0.87745  0.91188  0.32079  1.0000
  C   C637      1.0  0.89642  0.95563  0.11571  1.0000
  Fe  Fe109     1.0  0.59364  0.60349  0.01388  1.0000
  H   H630      1.0  0.54648  0.85530  0.23038  1.0000
  H   H631      1.0  0.52644  0.76370  0.07130  1.0000
  C   C638      1.0  0.90983  0.97778  0.09392  1.0000
  C   C639      1.0  0.00037  0.88421  0.03371  1.0000
  C   C640      1.0  0.51593  0.95669  0.28438  1.0000
  C   C641      1.0  0.00708  0.76593  0.24951  1.0000
  H   H632      1.0  0.61485  0.76167  0.01788  1.0000
  H   H633      1.0  0.98787  0.92679  0.08597  1.0000
  C   C642      1.0  0.97533  0.90031  0.07735  1.0000
  H   H634      1.0  0.98483  0.87100  0.08531  1.0000
  H   H635      1.0  0.53865  0.81403  0.08311  1.0000
  H   H636      1.0  0.85242  0.84415  0.32730  1.0000
  S   S216      1.0  0.91375  0.97959  0.29883  1.0000
  S   S217      1.0  0.94967  0.53232  0.00533  1.0000
  C   C643      1.0  0.00263  0.88597  0.00497  1.0000
  H   H637      1.0  0.75801  0.53203  0.00499  1.0000
  Fe  Fe110     1.0  0.91148  0.53120  0.48648  1.0000
  S   S218      1.0  0.90413  0.59896  0.47906  1.0000
  H   H638      1.0  0.70441  0.58486  0.56664  1.0000
  Fe  Fe111     1.0  0.94508  0.61015  0.50464  1.0000
  S   S219      1.0  0.98490  0.64852  0.48946  1.0000
  Fe  Fe112     1.0  0.87907  0.59755  0.51942  1.0000
  S   S220      1.0  0.83508  0.63263  0.52285  1.0000
  S   S221      1.0  0.88435  0.52918  0.52572  1.0000
  Fe  Fe113     1.0  0.61862  0.67123  0.48337  1.0000
  S   S222      1.0  0.61982  0.60196  0.47797  1.0000
  S   S223      1.0  0.60666  0.72271  0.45320  1.0000
  Fe  Fe114     1.0  0.59327  0.59942  0.51767  1.0000
  S   S224      1.0  0.54935  0.56621  0.52802  1.0000
  S   S225      1.0  0.59020  0.66900  0.52176  1.0000
  S   S226      1.0  0.66079  0.67375  0.50757  1.0000
  C   C644      1.0  0.90157  0.50000  0.61947  1.0000
  C   C645      1.0  0.90696  0.93820  0.63421  1.0000
  C   C646      1.0  0.79887  0.61376  0.51607  1.0000
  C   C647      1.0  0.77542  0.64216  0.51364  1.0000
  C   C648      1.0  0.74613  0.62862  0.50924  1.0000
  H   H639      1.0  0.77993  0.67491  0.51528  1.0000
  H   H640      1.0  0.72844  0.65093  0.50721  1.0000
  H   H641      1.0  0.60482  0.80908  0.60858  1.0000
  C   C649      1.0  0.61537  0.75998  0.37329  1.0000
  C   C650      1.0  0.60993  0.75900  0.40196  1.0000
  C   C651      1.0  0.61528  0.72299  0.41740  1.0000
  C   C652      1.0  0.62624  0.68795  0.40388  1.0000
  C   C653      1.0  0.63169  0.68894  0.37524  1.0000
  C   C654      1.0  0.73619  0.67668  0.58176  1.0000
  H   H642      1.0  0.60156  0.78637  0.41221  1.0000
  H   H643      1.0  0.63039  0.66001  0.41544  1.0000
  C   C655      1.0  0.94309  0.92351  0.50891  1.0000
  H   H644      1.0  0.73866  0.52824  0.45356  1.0000
  C   C656      1.0  0.84184  0.55100  0.44209  1.0000
  C   C657      1.0  0.93377  0.49665  0.41020  1.0000
  C   C658      1.0  0.89657  0.94523  0.60730  1.0000
  C   C659      1.0  0.53270  0.75063  0.41576  1.0000
  H   H645      1.0  0.55038  0.74213  0.42964  1.0000
  C   C660      1.0  0.94296  0.48934  0.38278  1.0000
  C   C661      1.0  0.93050  0.96153  0.64445  1.0000
  H   H646      1.0  0.99881  0.84562  0.56022  1.0000
  H   H647      1.0  0.89691  0.91453  0.64695  1.0000
  Fe  Fe115     1.0  0.92649  0.54520  0.54774  1.0000
  S   S227      1.0  0.91959  0.61410  0.54463  1.0000
  H   H648      1.0  0.00413  0.76614  0.55254  1.0000
  S   S228      1.0  0.95405  0.54190  0.50892  1.0000
  Fe  Fe116     1.0  0.63253  0.66580  0.54557  1.0000
  S   S229      1.0  0.63391  0.59646  0.54450  1.0000
  S   S230      1.0  0.65095  0.70295  0.58147  1.0000
  Fe  Fe117     1.0  0.66047  0.60471  0.50536  1.0000
  S   S231      1.0  0.70356  0.56773  0.50067  1.0000
  H   H649      1.0  0.78347  0.61484  0.45348  1.0000
  C   C662      1.0  0.53904  0.93043  0.51235  1.0000
  C   C663      1.0  0.99532  0.71461  0.52549  1.0000
  C   C664      1.0  0.56502  0.83108  0.58918  1.0000
  C   C665      1.0  0.00053  0.87927  0.55588  1.0000
  C   C666      1.0  0.00441  0.69274  0.50201  1.0000
  H   H650      1.0  0.87851  0.92671  0.59954  1.0000
  H   H651      1.0  0.86543  0.49066  0.64817  1.0000
  C   C667      1.0  0.73990  0.58639  0.50724  1.0000
  C   C668      1.0  0.76335  0.55797  0.50961  1.0000
  C   C669      1.0  0.79266  0.57150  0.51405  1.0000
  H   H652      1.0  0.75883  0.52521  0.50806  1.0000
  H   H653      1.0  0.81041  0.54925  0.51601  1.0000
  C   C670      1.0  0.97735  0.88239  0.48214  1.0000
  C   C671      1.0  0.58806  0.73018  0.63983  1.0000
  C   C672      1.0  0.60199  0.71420  0.61596  1.0000
  C   C673      1.0  0.63241  0.71999  0.61178  1.0000
  C   C674      1.0  0.64871  0.74155  0.63173  1.0000
  C   C675      1.0  0.63485  0.75720  0.65567  1.0000
  C   C676      1.0  0.92978  0.94615  0.34937  1.0000
  H   H654      1.0  0.58917  0.69779  0.60073  1.0000
  H   H655      1.0  0.67223  0.74635  0.62866  1.0000
  H   H656      1.0  0.74025  0.54531  0.41802  1.0000
  C   C677      1.0  0.59266  0.81180  0.58945  1.0000
  H   H657      1.0  0.93542  0.91820  0.33825  1.0000
  H   H658      1.0  0.86585  0.55044  0.44271  1.0000
  H   H659      1.0  0.58470  0.76615  0.50287  1.0000
  C   C678      1.0  0.54711  0.49349  0.49670  1.0000
  H   H660      1.0  0.94388  0.52113  0.42206  1.0000
  H   H661      1.0  0.01185  0.63255  0.57468  1.0000
  C   C679      1.0  0.60184  0.78230  0.51518  1.0000
  C   C680      1.0  0.95913  0.91405  0.53264  1.0000
  H   H662      1.0  0.88829  0.51695  0.60488  1.0000
  C   C681      1.0  0.53331  0.51881  0.51637  1.0000
  H   H663      1.0  0.92355  0.94298  0.51019  1.0000
  N   N56       1.0  0.73323  0.63511  0.57748  1.0000
  C   C682      1.0  0.93413  0.94837  0.37807  1.0000
  H   H664      1.0  0.69345  0.63474  0.55486  1.0000
  H   H665      1.0  0.94303  0.92191  0.38880  1.0000
  C   C683      1.0  0.95236  0.90771  0.48353  1.0000
  C   C684      1.0  0.74783  0.55196  0.43927  1.0000
  H   H666      1.0  0.94011  0.91497  0.46500  1.0000
  H   H667      1.0  0.55432  0.72259  0.38054  1.0000
  H   H668      1.0  0.78347  0.48877  0.42807  1.0000
  H   H669      1.0  0.71679  0.69658  0.58177  1.0000
  H   H670      1.0  0.98167  0.59561  0.57654  1.0000
  C   C685      1.0  0.90938  0.97582  0.59040  1.0000
  H   H671      1.0  0.55018  0.82117  0.52113  1.0000
  H   H672      1.0  0.62603  0.78094  0.56535  1.0000
  C   C686      1.0  0.54969  0.83446  0.56445  1.0000
  C   C687      1.0  0.82637  0.51553  0.43455  1.0000
  N   N57       1.0  0.58905  0.79855  0.54085  1.0000
  N   N58       1.0  0.78030  0.55196  0.44032  1.0000
  N   N59       1.0  0.98378  0.88945  0.53104  1.0000
  H   H673      1.0  0.98882  0.62289  0.54524  1.0000
  C   C688      1.0  0.62630  0.72488  0.35977  1.0000
  H   H674      1.0  0.83814  0.61431  0.45565  1.0000
  H   H675      1.0  0.61967  0.75936  0.51911  1.0000
  H   H676      1.0  0.64768  0.77381  0.67081  1.0000
  S   S232      1.0  0.94902  0.51172  0.58333  1.0000
  H   H677      1.0  0.61129  0.80787  0.50263  1.0000
  H   H678      1.0  0.76656  0.72723  0.58859  1.0000
  C   C689      1.0  0.53495  0.73924  0.38801  1.0000
  C   C690      1.0  0.78920  0.66874  0.58533  1.0000
  C   C691      1.0  0.78587  0.62626  0.58160  1.0000
  H   H679      1.0  0.55559  0.84354  0.60809  1.0000
  H   H680      1.0  0.83847  0.48743  0.42955  1.0000
  H   H681      1.0  0.64023  0.66165  0.36503  1.0000
  H   H682      1.0  0.97568  0.70494  0.53666  1.0000
  C   C692      1.0  0.60448  0.79576  0.56493  1.0000
  C   C693      1.0  0.76421  0.69416  0.58567  1.0000
  H   H683      1.0  0.56448  0.72590  0.64278  1.0000
  C   C694      1.0  0.70372  0.61814  0.57235  1.0000
  H   H684      1.0  0.81119  0.68190  0.58751  1.0000
  H   H685      1.0  0.75531  0.57698  0.57373  1.0000
  C   C695      1.0  0.56216  0.81805  0.54031  1.0000
  H   H686      1.0  0.01223  0.53850  0.58983  1.0000
  C   C696      1.0  0.75755  0.60983  0.57764  1.0000
  C   C697      1.0  0.82631  0.58688  0.44898  1.0000
  H   H687      1.0  0.80528  0.60648  0.58058  1.0000
  C   C698      1.0  0.93163  0.49325  0.61394  1.0000
  H   H688      1.0  0.68929  0.62211  0.59084  1.0000
  H   H689      1.0  0.61119  0.78789  0.36169  1.0000
  C   C699      1.0  0.79539  0.51653  0.43381  1.0000
  H   H690      1.0  0.95161  0.92656  0.55226  1.0000
  C   C700      1.0  0.60442  0.75175  0.65978  1.0000
  H   H691      1.0  0.52832  0.84989  0.56384  1.0000
  C   C701      1.0  0.55053  0.97034  0.50710  1.0000
  H   H692      1.0  0.55333  0.90721  0.52110  1.0000
  C   C702      1.0  0.79534  0.58692  0.44777  1.0000
  H   H693      1.0  0.73820  0.58213  0.44576  1.0000
  H   H694      1.0  0.56834  0.50244  0.48811  1.0000
  H   H695      1.0  0.57336  0.97739  0.51181  1.0000
  H   H696      1.0  0.96010  0.50851  0.37376  1.0000
  H   H697      1.0  0.99244  0.89652  0.57428  1.0000
  C   C703      1.0  0.99283  0.87344  0.50626  1.0000
  C   C704      1.0  0.01149  0.74954  0.53439  1.0000
  H   H698      1.0  0.52836  0.78784  0.46370  1.0000
  H   H699      1.0  0.00397  0.48126  0.34098  1.0000
  C   C705      1.0  0.99966  0.60829  0.56321  1.0000
  H   H700      1.0  0.98463  0.86960  0.46256  1.0000
  C   C706      1.0  0.88866  0.48502  0.64406  1.0000
  H   H701      1.0  0.01214  0.85352  0.50504  1.0000
  H   H702      1.0  0.51767  0.63299  0.56034  1.0000
  H   H703      1.0  0.51343  0.74052  0.34854  1.0000
  Fe  Fe118     1.0  0.92062  0.92063  0.77570  1.0000
  S   S233      1.0  0.91430  0.85253  0.78186  1.0000
  C   C707      1.0  0.62779  0.96645  0.79312  1.0000
  Fe  Fe119     1.0  0.92822  0.91125  0.71256  1.0000
  S   S234      1.0  0.92201  0.84197  0.71432  1.0000
  S   S235      1.0  0.99102  0.63495  0.99883  1.0000
  Fe  Fe120     1.0  0.88456  0.85647  0.74464  1.0000
  S   S236      1.0  0.83999  0.82231  0.74836  1.0000
  Fe  Fe121     1.0  0.95199  0.84313  0.75137  1.0000
  S   S237      1.0  0.99550  0.80836  0.76033  1.0000
  S   S238      1.0  0.88912  0.92528  0.74011  1.0000
  S   S239      1.0  0.96001  0.91178  0.74802  1.0000
  Fe  Fe122     1.0  0.59501  0.86960  0.76899  1.0000
  S   S240      1.0  0.58043  0.80365  0.76367  1.0000
  S   S241      1.0  0.56114  0.91637  0.78603  1.0000
  Fe  Fe123     1.0  0.65989  0.84742  0.75450  1.0000
  S   S242      1.0  0.64930  0.78002  0.74778  1.0000
  S   S243      1.0  0.70413  0.88211  0.74937  1.0000
  Fe  Fe124     1.0  0.60899  0.80283  0.72545  1.0000
  C   C708      1.0  0.85226  0.85442  0.82392  1.0000
  Fe  Fe125     1.0  0.62133  0.78542  0.78655  1.0000
  S   S244      1.0  0.61977  0.72957  0.81540  1.0000
  S   S245      1.0  0.62100  0.87023  0.72928  1.0000
  S   S246      1.0  0.63445  0.85133  0.79474  1.0000
  Fe  Fe126     1.0  0.90924  0.53378  0.97873  1.0000
  S   S247      1.0  0.90759  0.60323  0.97791  1.0000
  C   C709      1.0  0.57133  0.66326  0.76207  1.0000
  H   H704      1.0  0.78510  0.77917  0.75760  1.0000
  H   H705      1.0  0.52309  0.77148  0.71069  1.0000
  H   H706      1.0  0.73222  0.80084  0.75819  1.0000
  H   H707      1.0  0.68756  0.97530  0.75154  1.0000
  H   H708      1.0  0.83070  0.49172  0.96347  1.0000
  Fe  Fe127     1.0  0.61606  0.67468  0.97694  1.0000
  S   S248      1.0  0.62039  0.60512  0.97434  1.0000
  S   S249      1.0  0.60219  0.72479  0.94637  1.0000
  H   H709      1.0  0.75893  0.92500  0.73936  1.0000
  C   C710      1.0  0.53561  0.64298  0.71782  1.0000
  Fe  Fe128     1.0  0.66033  0.61363  0.00209  1.0000
  H   H710      1.0  0.88345  0.84158  0.88687  1.0000
  H   H711      1.0  0.81172  0.90321  0.73829  1.0000
  C   C711      1.0  0.77950  0.81112  0.75369  1.0000
  C   C712      1.0  0.74941  0.82333  0.75402  1.0000
  C   C713      1.0  0.67094  0.93630  0.82806  1.0000
  H   H712      1.0  0.65594  0.94564  0.74152  1.0000
  C   C714      1.0  0.94450  0.93861  0.88351  1.0000
  H   H713      1.0  0.52116  0.75884  0.76122  1.0000
  C   C715      1.0  0.54169  0.95886  0.77124  1.0000
  C   C716      1.0  0.99099  0.56660  0.75179  1.0000
  H   H714      1.0  0.68788  0.92358  0.84130  1.0000
  H   H715      1.0  0.52868  0.60894  0.79871  1.0000
  C   C717      1.0  0.55096  0.60522  0.78903  1.0000
  C   C718      1.0  0.61578  0.72955  0.85194  1.0000
  C   C719      1.0  0.62160  0.69293  0.86656  1.0000
  C   C720      1.0  0.61809  0.69110  0.89546  1.0000
  C   C721      1.0  0.60823  0.72581  0.91008  1.0000
  C   C722      1.0  0.60206  0.76233  0.89545  1.0000
  C   C723      1.0  0.60604  0.76435  0.86659  1.0000
  H   H716      1.0  0.62905  0.66579  0.85546  1.0000
  H   H717      1.0  0.62276  0.66273  0.90636  1.0000
  H   H718      1.0  0.59430  0.78933  0.90650  1.0000
  H   H719      1.0  0.60127  0.79265  0.85565  1.0000
  S   S250      1.0  0.70347  0.57647  0.99870  1.0000
  H   H720      1.0  0.59750  0.95949  0.82747  1.0000
  C   C724      1.0  0.95077  0.51961  0.75582  1.0000
  H   H721      1.0  0.79767  0.48098  0.94438  1.0000
  C   C725      1.0  0.83439  0.57186  0.94778  1.0000
  C   C726      1.0  0.54931  0.97550  0.74553  1.0000
  H   H722      1.0  0.95952  0.51247  0.86322  1.0000
  S   S251      1.0  0.94500  0.95351  0.67797  1.0000
  H   H723      1.0  0.94959  0.54617  0.80712  1.0000
  S   S252      1.0  0.58581  0.77239  0.68903  1.0000
  H   H724      1.0  0.53911  0.70881  0.92697  1.0000
  N   N60       1.0  0.85136  0.89667  0.82314  1.0000
  H   H725      1.0  0.96930  0.53397  0.68844  1.0000
  H   H726      1.0  0.94559  0.91212  0.84248  1.0000
  C   C727      1.0  0.83926  0.91764  0.79901  1.0000
  C   C728      1.0  0.80235  0.83972  0.74822  1.0000
  C   C729      1.0  0.79461  0.88089  0.74306  1.0000
  C   C730      1.0  0.76454  0.89314  0.74354  1.0000
  C   C731      1.0  0.74169  0.86449  0.74892  1.0000
  C   C732      1.0  0.93193  0.50275  0.89920  1.0000
  H   H727      1.0  0.94002  0.94087  0.99263  1.0000
  H   H728      1.0  0.75417  0.61157  0.94126  1.0000
  H   H729      1.0  0.84696  0.63592  0.95223  1.0000
  C   C733      1.0  0.96985  0.53715  0.71070  1.0000
  H   H730      1.0  0.63633  0.93285  0.85890  1.0000
  H   H731      1.0  0.85985  0.95296  0.84460  1.0000
  H   H732      1.0  0.97281  0.73273  0.73351  1.0000
  C   C734      1.0  0.80000  0.62884  0.94601  1.0000
  H   H733      1.0  0.98215  0.90817  0.96776  1.0000
  H   H734      1.0  0.56725  0.51203  0.98024  1.0000
  N   N61       1.0  0.97095  0.54547  0.76773  1.0000
  C   C735      1.0  0.77690  0.60074  0.94248  1.0000
  N   N62       1.0  0.55279  0.62981  0.76373  1.0000
  C   C736      1.0  0.93563  0.97218  0.90008  1.0000
  C   C737      1.0  0.94977  0.51531  0.72715  1.0000
  C   C738      1.0  0.01138  0.75890  0.75248  1.0000
  H   H735      1.0  0.55412  0.57187  0.78422  1.0000
  H   H736      1.0  0.54917  0.93085  0.95879  1.0000
  H   H737      1.0  0.76487  0.53680  0.93995  1.0000
  C   C739      1.0  0.53519  0.61943  0.74197  1.0000
  H   H738      1.0  0.94268  0.52647  0.91125  1.0000
  C   C740      1.0  0.51846  0.97737  0.78638  1.0000
  C   C741      1.0  0.55467  0.67679  0.71581  1.0000
  C   C742      1.0  0.58804  0.80639  0.99665  1.0000
  C   C743      1.0  0.54045  0.94726  0.97650  1.0000
  N   N63       1.0  0.81158  0.54448  0.94476  1.0000
  C   C744      1.0  0.87402  0.85697  0.86913  1.0000
  S   S253      1.0  0.94227  0.97059  0.93602  1.0000
  C   C745      1.0  0.62029  0.95658  0.82035  1.0000
  H   H739      1.0  0.58528  0.67177  0.77931  1.0000
  H   H740      1.0  0.61049  0.97700  0.77940  1.0000
  H   H741      1.0  0.98152  0.57890  0.80439  1.0000
  C   C746      1.0  0.78311  0.55837  0.94189  1.0000
  C   C747      1.0  0.98075  0.90637  0.99007  1.0000
  H   H742      1.0  0.52112  0.63513  0.70083  1.0000
  H   H743      1.0  0.55547  0.69498  0.69704  1.0000
  H   H744      1.0  0.54062  0.48799  0.79881  1.0000
  H   H745      1.0  0.81505  0.92231  0.80166  1.0000
  H   H746      1.0  0.93531  0.50210  0.76849  1.0000
  C   C748      1.0  0.92459  0.97183  0.84272  1.0000
  H   H747      1.0  0.58774  0.71317  0.73656  1.0000
  C   C749      1.0  0.82896  0.61439  0.94861  1.0000
  H   H748      1.0  0.70005  0.94154  0.79304  1.0000
  H   H749      1.0  0.85690  0.56075  0.95006  1.0000
  C   C750      1.0  0.97214  0.54871  0.79783  1.0000
  H   H750      1.0  0.56708  0.96174  0.73358  1.0000
  H   H751      1.0  0.84310  0.89901  0.78010  1.0000
  C   C751      1.0  0.94143  0.49471  0.87192  1.0000
  H   H752      1.0  0.56799  0.61440  0.80427  1.0000
  H   H753      1.0  0.52044  0.59298  0.74334  1.0000
  C   C752      1.0  0.87209  0.89999  0.86852  1.0000
  C   C753      1.0  0.51452  0.93274  0.98967  1.0000
  H   H754      1.0  0.86533  0.80048  0.84692  1.0000
  C   C754      1.0  0.67769  0.94660  0.80072  1.0000
  S   S254      1.0  0.91560  0.97257  0.80723  1.0000
  H   H755      1.0  0.88002  0.91829  0.88571  1.0000
  C   C755      1.0  0.93896  0.93834  0.85495  1.0000
  H   H756      1.0  0.84449  0.83632  0.80656  1.0000
  H   H757      1.0  0.79539  0.66166  0.94760  1.0000
  C   C756      1.0  0.99552  0.72736  0.73946  1.0000
  C   C757      1.0  0.57271  0.68702  0.73801  1.0000
  H   H758      1.0  0.95548  0.91247  0.89284  1.0000
  C   C758      1.0  0.99069  0.56290  0.72307  1.0000
  H   H759      1.0  0.00666  0.57991  0.71061  1.0000
  S   S255      1.0  0.65761  0.68278  0.00173  1.0000
  N   N64       1.0  0.65626  0.96189  0.78374  1.0000
  H   H760      1.0  0.99637  0.66457  0.72431  1.0000
  C   C759      1.0  0.64203  0.94143  0.83790  1.0000
  C   C760      1.0  0.54817  0.49945  0.99094  1.0000
  C   C761      1.0  0.86061  0.91945  0.84521  1.0000
  C   C762      1.0  0.86392  0.83395  0.84676  1.0000
  H   H761      1.0  0.93359  0.49504  0.71775  1.0000
  C   C763      1.0  0.66331  0.97145  0.75490  1.0000
  C   C764      1.0  0.56242  0.83047  0.99791  1.0000
  H   H762      1.0  0.60280  0.80817  0.97889  1.0000
  H   H763      1.0  0.83194  0.49210  0.92637  1.0000
  S   S256      1.0  0.89559  0.48822  0.94503  1.0000
  H   H764      1.0  0.98597  0.52333  0.80616  1.0000
  C   C765      1.0  0.81809  0.50010  0.94468  1.0000
  H   H765      1.0  0.00738  0.58656  0.76121  1.0000
  H   H766      1.0  0.85037  0.94792  0.79554  1.0000
  C   C766      1.0  0.00899  0.68859  0.73431  1.0000
  H   H767      1.0  0.53750  0.74573  0.95415  1.0000
  C   C767      1.0  0.95702  0.92471  0.00404  1.0000
  C   C768      1.0  0.52384  0.72981  0.93843  1.0000
  H   H768      1.0  0.55728  0.85181  0.98138  1.0000
