data_image0
_chemical_formula_structural       FeS2FeS2FeSFeS2CH2CFeS2H3C2HCSH2CHSH5CHC2HC4HC3SC2HCHC3FeS2CSCHC2FeS2H2SNCSCFeHSHC2FeS2FeCH3CHC4H3S2C2FeNHC2H2SFeCH2FeSHSHC3HC2FeH2C2HCSCHC2FeNCHC2H4C2SCSHC2H2CN2HFeHFeCHFeSHFeC2HSC8H2CHC2FeSCH6C2H3CSCH2CH2SC2H3CHC6H5C3H5CHSH3FeC4HNH2SH3FeSCNHCHCHCHCFeSFeS2FeS2FeSFeS3NC2N2C2SFeS2FeSCFeSFeHS2CSHC3H2CH2CNFeC2H2C3SC2H2SHC2HCHC2HNHCH2FeHSFe2CHSCHC2H5C7H4C6H4C3H2C7H4C4H2C3HC2SC3HS2C2H2C2H4CHC2SH2CS2HCH2S2HSC3H2C2HCHSH2NC6H9SC3SCHCHNCH2CNC6H10CHCHSCHC2HNHCHSHCH3SHSCHC3HSNCHC2HC2SH3CHC2H2CHCH5C2HCH3CNHC2SC2FeCFeCNCNH2CH3CHC2HC3HC2H2CHC3HC2FeHCSCSHNH2FeH2FeHCH5SFeN2HCSCNCHSH2C2H2CH5C3HCH2SFeS3H2S2FeSHSH2FeH2Fe3CFeC2FeS2FeS2FeCFeS2FeS2FeS2FeSFeS3FeSHSFeCFeSHC3FeS2CS2CHC3HNFeSHC2SC6H4C6H4C6H4S2HC2H6C2SH2CSCH3CFeHC6H4C8H4C3HCHCH3C2H2SC3HNC3SHCH2C2H3C2Fe2SCH2CH2C2H2CSC5SCH3CNC6H8SHCHC2H2C2H4N2HCHNH2SFeHC2HCFeH2SC2HCHSHC2HCH2CH2CNCH5NC6H5CH7C2HCHCH2CHNCSC2SC4SCFeSH2CH2SH2SHC3H2SHC2SH4CSHC2H6SHCHCHSC2NC4HCH2CFeH6FeS2FeSHFeSFeSCSFeS2H3C2SFeCNSHCHFeS2FeS2FeSFeS3CFeS2FeS2FeC2FeNFeS3HC2H4C4H2SCHCHCNHSCHNH5NFeSCH2C6H4C6H4SHCHC7HSH2C2HC2H2C4H4CH2C4H2SCH2CHCHC2FeSCH4CHC3SH2S2HSC2HC7H4C6H5NSCHC4H2CH5C2NH2C2HC3HNC6H11NCH2NCHSCHNHNC6H4FeC2HCHC2HCFeH2CHFeH2SHSCH2SCNHCHCHC3H4C2H5C7H3CSFeS2FeSFeS2C3SCFeS2FeS2FeHFeS3HSHSH6SHSHCSCH2FeCSFeS2FeSH2SHCH2FeS2NH2FeHSCFeCS2HC2FeC2HCFeSCSFeS2FeS2FeSFeS3C3HNCHCH2C6SH4C6H4C6H4C5HCH2CFeCHS2HFeCH2SHC4H4CHSCHNC3H2FeCHCSH3CH2C3H2CHC9H4SHC2NCHC2SCH2NFeC7H3C6H4C6H4FeH3CHCH2NH4CNC5S2CSHC2HCH2CH2CH3CH2SHCNC4HCH8CFe2CH2CNCHFeH2CFeHC2H2NHC2SH2CHCHCH3CH6FeCHC2NH2C2SC2HSH2CNCHCHCS2CHSFeS2FeSFeSFeS3HC5H2CHFeHFeS2HCFeS4CSCH2SCSFeSCFe2SFe2S2FeSFeSHCSNSNH3CHSCH2CHCSC2HCHFeH2SH2CSHC2HC6H10CHC2HC6HCH5CHCSH2CSH2C3NCH2C6H4C6H4C6H2CHC2FeSH2SC3HCHC4NC6H9CHC3NCHCHFeH2C2NC3NHC2HCH2C2HNSHSCH4CNHSH3CHSH2NHSH2CFeH2CHCHN2C2HC9H3FeNH2C4HSH2CHCH5C2H2C2H2CHCHCH4CHFeC2H2CHSH3FeCS2HSFeC2HFeSHFeS2FeSFeS3CS2FeSFeS2FeS2FeS2FeS3HFeS2FeS2FeSFeHS2C2HC3H2C2H2C2HC2HC7HCHSCHCH3SHC3H2C6H5C3NFeH2C8H4C6H3CH6C2HSC6H4FeCHC4FeC2SCH2C2H3CSCH4NC2H2CSNHC5H3CNCHCH4CFeH3CNC6H8NCH4C2H2CNHSNC2H3CH3CHCH2C3NH3CSC2H2C3HC2HSC4SH2C2H3CSH2Fe3HC2NC3H3C3HC2H3NCH4CH2CHCSHCH3C2SCH3SH2SC2HC2HCHCH4C2HC3H2SHC3SCSCHSHNCSH3CH2S2CFeS2HCFeSC4NSFeHS2H2CSC2HSHNFeS2FeS2FeSFeS3HNSHSHSFeSFeHSFeS2FeS2FeSFeS3HSCFeS2C6H6CSHC7H4CH2C6H3C6H4C6SH3C6H4SFeH6C3HC6SC2HC4H2FeH2CHC6H5CHFeCSH3FeH5NCSCHFeH6SHC2H2CFeCH3SCHCHCSHC2H3C3H3N2CH3C2SH4CSH2NH2CFeHCH2C3HFeHC4HC2H4C2HNH3FeHCSCHC2HC3HNC2H6FeHCHSFeHCHCH2FeCSH3C3HFeC2HCSH4C5NH3CFeCHCHCHCH7C2HNH2CHC3HCNCFeSHCFeS2FeS2FeSFeS3HFeS2FeS2FeSFeNS2HCHFe2S2FeS3CHSCFeCH3S2HFeHSHCSCHSCH5CSCH2CH2C5FeHSH2C6HC2HCHC3HCH3C2HC4H4C6H4C6H4C6H4C6H4C6H2C2HFeSCHNC2HNHC2HCH2NH5SC2HC3SCHCHCHSHCH3SCFeCHSFeHCH3C2HNHCHFeC2H5CH3CH2C2HSCHCNC2HFeNCNCSC2HC2SHCSHC2SH2C2H3NC4H2CHCNH2SH4SHSFeCSFeSC2HFeS2FeS2FeSFeNS2FeS2FeS2FeSFeS3HCSFeHSHCSHFe2SCH6CSFeHSFeS2H2FeS3FeS2FeHSFe2S3CHC2HC6H2CH4CHC4H4CH3SHC2HS2CHSH2FeNC2NHC6H4C6H4CHCHC2FeCSHC6H4C6H5NC2H2CNH2C6H4SC6H5CNH2C3SCSFeCHCH2CH3CH2CHCH2CH2C3HC3FeCSHNCHC2HCH2CHNH3CH2FeCHC2HCH2CH4C2HC3HC2SCHC2HCHNH3CHCHFeSHC2HSH2NC6H7NH2C2FeH2CSHCSCSC2HC3HC2HC3HC2HCH2S2H2CH3S5CFeS2FeS2Fe2S2FeS2FeS2FeSFeHSHSH2C2H4C3S2FeC2FeC4H4CHSC3H2CHC6H5C6SCH2SHC2H2C2H2C4H4C2HC12HSCHC2HC3HNCHC2HSNC5H2C2H3CH2CSHCHCHCHCH3N2C6H8CHC2SH4FeHCHSCHSH5SCS3C3FeC2HCHC2H6C2FeH2C2HNH2CH2C2NHNC6H2CFeH3C4HCSHC3SCFeH4SHNH4SH2C2SHC3NHC2HCHFeHC2H4CH2NSCSFeHCSH2FeHCFe2S2FeS2FeSFeS3HNFeS2FeSFeSNFeSCS2CHSCFeS2CSNHFeSFeS2FeS2FeCFeS3HCFeSCSNHCH2C6H4C6H3C7H4C2HSH2CH2SCHCHCSCH2C6H4C6H3C7H4C6H4CH2CH2SH4CH2C2HC3NH2CFeHSC2NC2SHCSFeH3NSHSCFe2H4C2H2CSH2C2HCFeHNC6H7C2H2C2H4CH5CHSCH2CH2C2HNHCS2C2H3CH2NC6H6CH2CH2S2CHC2FeCH3C3H7CH3FeH2CHCH3CH2C3H2CHNHSCH4CHCSCFeSFeSFeSCH3FeS2Fe2SFeSHS2FeSFeS3FeS2FeS2FeSFeS3H2CHSH2C2NHC6H4C6H4C6H4CHC2HC3H2CSNHC2H2CH3CH3FeC6H7C6H4C6HC2H2C4H2SCNCH4NC6H3NC2HNS2H2C2HCHCSCH2CHCH2C2H2CH4SH2CH2CHCHC2HCH2C2HCH2CHCFeH2CNFe2CH3C2SH2NCHCH2CHSHCH4CNHC2HC7HC3H2CSHCNSH3SC2H2C2HCHC2H4CHCHSHCFeHNC2H2SCS2HNC2SHSFeS2FeSFeS2FeSCFeS2FeSFeS3H2SC2HC4HFeCS2FeS2FeSFeSHFeS2FeHSFeHSCNHS3C2H2CHC3SC2H2SHC6H4S2HC7H4C2FeSC6H4CHNFe2C3SC2HCH3C2HC3SCHC6H5CHCFeHC4H3C4H3CH2S2C3H2CHCFeHCHCHCFeC2NC7FeHC3H5FeH2C2H2SCHFeHSC2HSNHFeSHC2HCH4NC6H8C3SHC2FeHSCH3CH2SH3NCFeCS2CH2NHCNC3H2CSCSC2H4C3H3CHNH3C2HCHNHCHC2HCFeHC2SHSH2C2H2SH3CHCH2C2FeCH2CHCHNH2CNCFeS2FeSFeCFeS2HFeS2FeS2FeSFeS4H2S2FeS2FeCHFeCFeS4FeHFeS2FeSFeS3HSC2H2CH3CHSC6H2SHC3H3FeHC6H4C2H3CSC3H2SC6H4C6HNH2C4HCH2C9H2C3SHCHCH2CHCHC2SH3CHCH2CHC3HNC6H5SH3NC2HSHCNH2CNHCHCHC2H2CHCNCHCH4C4FeNC6H8NC6H9C2H2SC3NHNCHC4HC2H4CHC3H2CH2S2HCH3CH3CH2CH4CH3CH4C3H5C2HSCH2CNCSHCHCHSFeSHFe2SFeS3HSCHFeHFeCSFeHSFeSCSHCHCFeCHSHCHCH2CHFeSCNHCHCH2CHCH2SFeHCHS2CSC7H4CHCSCHC5H3CFeH2SHC6H4C3H3C4HCH2C3H2SH3C2H2NHSH3NHCHC2H2C2HCHS2H3NCH3C3H2C4SHCHSHFeCFeHCHSC3NH2CS2HC4SHSH2CHC2H6NHSCNC4HCHC2H2FeH4NC2HSFe2H6SHCHC7FeC4HNSCH3CHFeS2HCFeHSH4C3HCSHSHCH2SCH2FeSC2FeS2FeSFe2SFeS3FeH5CFeS2FeS2FeSFeS3FeSCNFeSHSCHSCNH3NC6H4CHCHSHC3HC6H4C7H3C3SHFeC6H4CHC5H3SHSC6H4CHC2H3C6H2CH3C2SCHC6H3C2H3FeCH2SH4SHCH2C6SCHCH2C2S2NC4HNHSCHSCH3C5H3NC6H8CH3SHC5H2CNH3CHC6HCHCN2C3H3CHCH2CNC4H4CH2C2HNC6H8C2H2CFeCHS2HCNFeC3H4CH3CHSCH2CH2NHCSH2SHC3HFeS2FeS3FeCS2FeHCFeSCSHFeSCSCHCFe2CNH2CSNHFeS2FeSHFeS2Fe2S3FeS2FeS2FeSFeS3C4HNH2CH3C6H6C3H2CH2C5H4C2NC2H3C6H4C3SCFeH2CFeC3SCH3C4SHFeHC7H6CH3S3C2H2C2HCHC5H3CFeH2C2NC2HCHC3SHC2HC2HSCH2CNC6H9CSCHCHC3SCH2C3HCH7C2H4CSHCHC2H2SH2NC6H9SH3C4FeCH3CHFeC2H2CFeCSH2CH2CSC2FeHCH2NCHC3HNSCSCS2CNSFeHFeCHC2H2NSC2H3FeC2H3C2HC3HCHFeH2C2SFeHCFeSC2SCSFeHCS2H2SFeSHSFeS2FeS2Fe2S3HCHFeS2CHFeSFeHS2FeS2CFeSFeS3FeS2FeS2FeSFeS3NHC3HC9H5C2H2C7H4C2HCH2C6NH3C2SFeC2H2SC6H5SCHC3HSC7H3FeH3C2SC6H4C6H3C7H4C2H3C2HCNFeHC3H2CSH2FeHC3H4NCSC2HCH3CNHNC2H4NH2CHSHCSCHSHCHCHCHFeH4C2H5C3HC2HCSCFeHFeH2C2H2NC6H11CHCHNHSHC2H3C2HCHFeN2HCH4NC4H4CH2FeSH4SCSHSH3NCSNHSCNH2SHCH2SCH2CH2SHCSHC2HSC2HC2H2CHCH2FeS2FeSHFeSFeS2H2CFeS2FeS2FeSFeHS2CSC6H4CHC6H3FeCNC3H2C6H5CH2C4H2CHC2SFeHSC6HCH2C2HCFeHC3HC6HCNHSHCHSC2H3C2SCHFeSHCFeCNFeC2H3C2FeCSHCS2HSCHCNSNCHCFeH2CHSH4C2SCSCHNC5H5C3HSCSC2H5FeC2FeH2FeSHCHC2SCHCHCH5CH3SHFeCH3CH3C2H2CH4CH3CSC2HC4HSCH2NCSC3H2C3H4Fe2S2FeS2FeSFeS3H2C3H3SHSCHSHFeS2FeS2H2Fe2S2CS2FeS2H3S2FeS3FeSFeHC5NC3H2CHNCHC6H4CH2CH2CFeHC4NHCHC5SC2SC2NFeC6H4C6H3C6H4FeH2C2H2CSHC2FeH3CSC2H5S2C5SHCH5CSCHC2FeCHCH2CSH2NSC2FeNHCHSCSC3H2SH3C2HC2NFeNC6H7NC2H4C3HSHCSNC6H8SFeH2CSHCH3CHCH2CHCS2C2FeCH3SCNC2FeH4CNC2H7CHC2H2C3SH7CHC2H6C3HCHFeCH4CSHSCSH2C3HSFeSFeSFe2SHFe2SCSHSFe2S2FeSFeS3FeS2FeS2FeSFeS3C2H3FeSCHCSHCHCHSCHCHCH2SCH2CHCH2CHCSCHCHC7H4C3H2CH2CH4C2H4C8H4C6H5C3H2C2SC7H3S2C2H3CH2CHC2H2C5NC6H4CHC2SCFeHFeH2CH2C3FeC3H2C4H2NHSNH2C6NC6H8NHCHCH2SCH2CHC2SHCHCSHC3HCSH4C3H2C4SHC2H2FeHC2HS2HSNH3NSHCFeC5HSHNCHCH2NH3NCH4CFeC3H2CH2CHCNH3CH2C2FeS2FeS2FeSFeS4HSNHSCFeSFeHSFeSHSFeS2FeS2FeSFeS3C3HCHNCH2CHCHFe2SHFeHFeSCHS2CS2FeHC3H3C5H2CSH2CHC4HC2HC4HSH3C6H6CH3NH5C6H4C6H2C2HC6HNH2C6H4C4SH2CHC6H5NC6H8NC5H6CHCHFeHC2H2FeHSHFeHCHC2HSH6SHNC6H4CHCHS2CH2SFeHNC2FeCHC2SHSH2NCSNSHCH3C3HSC3HCFeC2HCH2CHCHCHSFeCHC2HCSHCH3FeHCH2CHC4SC2S2CHSH2C2SH5CSC2H2FeH2SCH2CNH3SNFeSCFeSFeSHSC2HCHC2HSCHC2H2C3SFeS2FeSFeS3FeS2FeS2FeSFeS3CNC2HFeS4C2HC2S2C2HCH2C6H4C6H4C6H2C3HC4H4NHCFeCH2CSH2CNC3NHCHCH2C6H9CHCH2C4H3CH2CHCH2C3HCH2CH4S2CHNHC4HCHNH3CH3C2H2CH2NCHSH2NC6H4CHCSCH2C2FeCHFeHFeHCSCHCHC2H2C2NHCHFe2H3C2HSH2C3HCFeSCHCSCHCHCHCHCH4FeHFeCHC2HFeHCH3CHCSHCH2CH3C2HCSHC2HSFeH2C
_chemical_formula_sum              "Fe544 S1088 C3264 H3264 N272"
_cell_length_a       76.3277
_cell_length_b       76.7116
_cell_length_c       76.6802
_cell_angle_alpha    75.6026
_cell_angle_beta     75.4644
_cell_angle_gamma    75.6927

_space_group_name_H-M_alt    "P 1"
_space_group_IT_number       1

loop_
  _space_group_symop_operation_xyz
  'x, y, z'

loop_
  _atom_site_type_symbol
  _atom_site_label
  _atom_site_symmetry_multiplicity
  _atom_site_fract_x
  _atom_site_fract_y
  _atom_site_fract_z
  _atom_site_occupancy
  Fe  Fe1       1.0  0.08982  0.41405  0.01570  1.0000
  S   S1        1.0  0.06826  0.43481  0.02965  1.0000
  S   S2        1.0  0.08406  0.39363  0.00204  1.0000
  Fe  Fe2       1.0  0.12114  0.42214  0.02882  1.0000
  S   S3        1.0  0.10220  0.44317  0.04412  1.0000
  S   S4        1.0  0.15218  0.41507  0.02612  1.0000
  Fe  Fe3       1.0  0.08273  0.42356  0.05339  1.0000
  S   S5        1.0  0.06949  0.41800  0.08348  1.0000
  Fe  Fe4       1.0  0.08948  0.45279  0.01921  1.0000
  S   S6        1.0  0.10291  0.40144  0.04035  1.0000
  S   S7        1.0  0.10975  0.43308  0.00300  1.0000
  C   C1        1.0  0.20723  0.26557  0.26982  1.0000
  H   H1        1.0  0.18266  0.36512  0.08632  1.0000
  H   H2        1.0  0.02270  0.40061  0.24961  1.0000
  C   C2        1.0  0.00717  0.43663  0.10171  1.0000
  Fe  Fe5       1.0  0.20088  0.03157  0.06384  1.0000
  S   S8        1.0  0.19364  0.04923  0.03728  1.0000
  S   S9        1.0  0.18821  0.04244  0.08963  1.0000
  H   H3        1.0  0.99420  0.40154  0.97873  1.0000
  H   H4        1.0  0.21504  0.38574  0.15581  1.0000
  H   H5        1.0  0.21461  0.35361  0.07085  1.0000
  C   C3        1.0  0.07326  0.98689  0.20312  1.0000
  C   C4        1.0  0.00839  0.39532  0.97242  1.0000
  H   H6        1.0  0.13469  0.40484  0.22122  1.0000
  C   C5        1.0  0.13439  0.01801  0.04808  1.0000
  S   S10       1.0  0.15395  0.01984  0.99051  1.0000
  H   H7        1.0  0.01187  0.42505  0.12916  1.0000
  H   H8        1.0  0.03850  0.99521  0.19398  1.0000
  C   C6        1.0  0.22118  0.35352  0.20257  1.0000
  H   H9        1.0  0.14383  0.38464  0.06197  1.0000
  S   S11       1.0  0.03163  0.03945  0.26192  1.0000
  H   H10       1.0  0.14626  0.36387  0.07932  1.0000
  H   H11       1.0  0.21296  0.22780  0.21555  1.0000
  H   H12       1.0  0.22333  0.34454  0.21548  1.0000
  H   H13       1.0  0.20529  0.29448  0.26785  1.0000
  H   H14       1.0  0.03519  0.47375  0.06096  1.0000
  C   C7        1.0  0.16535  0.12088  0.97217  1.0000
  H   H15       1.0  0.15400  0.04765  0.06952  1.0000
  C   C8        1.0  0.11357  0.35013  0.28804  1.0000
  C   C9        1.0  0.14797  0.45737  0.99152  1.0000
  H   H16       1.0  0.08540  0.45753  0.09060  1.0000
  C   C10       1.0  0.00493  0.36069  0.23908  1.0000
  C   C11       1.0  0.14756  0.02119  0.07181  1.0000
  C   C12       1.0  0.01536  0.43972  0.08297  1.0000
  C   C13       1.0  0.99871  0.40872  0.21546  1.0000
  H   H17       1.0  0.07995  0.07821  0.27968  1.0000
  C   C14       1.0  0.21825  0.24799  0.27274  1.0000
  C   C15       1.0  0.02639  0.02588  0.20784  1.0000
  C   C16       1.0  0.20354  0.35791  0.06327  1.0000
  S   S12       1.0  0.98958  0.41260  0.27569  1.0000
  C   C17       1.0  0.00910  0.35444  0.27037  1.0000
  C   C18       1.0  0.02414  0.40208  0.99333  1.0000
  H   H18       1.0  0.12122  0.00047  0.13330  1.0000
  C   C19       1.0  0.15979  0.46200  0.00017  1.0000
  H   H19       1.0  0.18151  0.36072  0.22464  1.0000
  C   C20       1.0  0.17507  0.36882  0.04410  1.0000
  C   C21       1.0  0.18544  0.36432  0.07192  1.0000
  C   C22       1.0  0.01366  0.40333  0.22442  1.0000
  Fe  Fe6       1.0  0.21333  0.39888  0.09584  1.0000
  S   S13       1.0  0.22900  0.35133  0.26591  1.0000
  S   S14       1.0  0.18499  0.41603  0.09388  1.0000
  C   C23       1.0  0.01610  0.35294  0.25204  1.0000
  S   S15       1.0  0.21192  0.00565  0.11188  1.0000
  C   C24       1.0  0.99041  0.99688  0.22567  1.0000
  H   H20       1.0  0.13175  0.00073  0.16251  1.0000
  C   C25       1.0  0.21195  0.38386  0.18487  1.0000
  C   C26       1.0  0.22363  0.39658  0.29166  1.0000
  Fe  Fe7       1.0  0.17890  0.34269  0.27646  1.0000
  S   S16       1.0  0.22744  0.39962  0.11811  1.0000
  S   S17       1.0  0.21721  0.36819  0.10150  1.0000
  H   H21       1.0  0.12857  0.46771  0.97344  1.0000
  H   H22       1.0  0.02597  0.02957  0.22112  1.0000
  S   S18       1.0  0.06561  0.00792  0.22936  1.0000
  N   N1        1.0  0.02013  0.38924  0.98613  1.0000
  C   C27       1.0  0.02508  0.99570  0.20305  1.0000
  S   S19       1.0  0.08121  0.40063  0.27887  1.0000
  C   C28       1.0  0.13835  0.47102  0.97964  1.0000
  Fe  Fe8       1.0  0.18462  0.01373  0.10298  1.0000
  H   H23       1.0  0.05127  0.37391  0.02213  1.0000
  S   S20       1.0  0.03753  0.37870  0.28123  1.0000
  H   H24       1.0  0.98722  0.44711  0.19771  1.0000
  C   C29       1.0  0.08113  0.46856  0.07960  1.0000
  C   C30       1.0  0.00759  0.98138  0.98493  1.0000
  Fe  Fe9       1.0  0.20733  0.36198  0.24860  1.0000
  S   S21       1.0  0.21011  0.38193  0.22133  1.0000
  S   S22       1.0  0.19992  0.33461  0.25204  1.0000
  Fe  Fe10      1.0  0.20578  0.35761  0.28945  1.0000
  C   C31       1.0  0.15255  0.37591  0.07180  1.0000
  H   H25       1.0  0.04531  0.15098  0.27840  1.0000
  H   H26       1.0  0.16870  0.39380  0.21580  1.0000
  H   H27       1.0  0.05104  0.47327  0.03904  1.0000
  C   C32       1.0  0.10025  0.38264  0.28158  1.0000
  H   H28       1.0  0.16404  0.37326  0.03642  1.0000
  C   C33       1.0  0.22596  0.34638  0.18645  1.0000
  C   C34       1.0  0.13138  0.35404  0.28306  1.0000
  C   C35       1.0  0.13353  0.37232  0.27759  1.0000
  C   C36       1.0  0.11800  0.38658  0.27681  1.0000
  H   H29       1.0  0.07983  0.99771  0.19399  1.0000
  H   H30       1.0  0.14713  0.37548  0.27350  1.0000
  H   H31       1.0  0.11980  0.40067  0.27221  1.0000
  S   S23       1.0  0.04949  0.99916  0.28458  1.0000
  S   S24       1.0  0.22499  0.05584  0.10555  1.0000
  C   C37       1.0  0.14105  0.99131  0.07275  1.0000
  C   C38       1.0  0.21442  0.37232  0.20174  1.0000
  Fe  Fe11      1.0  0.02165  0.99207  0.28954  1.0000
  N   N2        1.0  0.01692  0.01055  0.21110  1.0000
  H   H32       1.0  0.07780  0.37249  0.97919  1.0000
  C   C39       1.0  0.14805  0.03955  0.06362  1.0000
  C   C40       1.0  0.21681  0.37673  0.16876  1.0000
  H   H33       1.0  0.19589  0.36216  0.02052  1.0000
  H   H34       1.0  0.04124  0.02226  0.20141  1.0000
  S   S25       1.0  0.15701  0.00989  0.12122  1.0000
  Fe  Fe12      1.0  0.00525  0.02904  0.26806  1.0000
  C   C41       1.0  0.06840  0.41888  0.97476  1.0000
  H   H35       1.0  0.22234  0.20383  0.22254  1.0000
  H   H36       1.0  0.13929  0.99230  0.18423  1.0000
  Fe  Fe13      1.0  0.05363  0.39286  0.29227  1.0000
  S   S26       1.0  0.02974  0.41562  0.29904  1.0000
  H   H37       1.0  0.08434  0.36125  0.29096  1.0000
  S   S27       1.0  0.15062  0.33582  0.28238  1.0000
  H   H38       1.0  0.99342  0.98788  0.98400  1.0000
  C   C42       1.0  0.21400  0.28099  0.26981  1.0000
  C   C43       1.0  0.03795  0.36511  0.00499  1.0000
  C   C44       1.0  0.06537  0.98833  0.22146  1.0000
  H   H39       1.0  0.16683  0.45131  0.00974  1.0000
  C   C45       1.0  0.14144  0.04718  0.04744  1.0000
  C   C46       1.0  0.15485  0.35332  0.23536  1.0000
  Fe  Fe14      1.0  0.04503  0.01137  0.25579  1.0000
  H   H40       1.0  0.13206  0.99030  0.08669  1.0000
  H   H41       1.0  0.15282  0.01534  0.08432  1.0000
  C   C47       1.0  0.01808  0.42746  0.11467  1.0000
  C   C48       1.0  0.14027  0.39033  0.22519  1.0000
  H   H42       1.0  0.05857  0.45724  0.07840  1.0000
  C   C49       1.0  0.07282  0.07239  0.29315  1.0000
  S   S28       1.0  0.01845  0.00191  0.26023  1.0000
  C   C50       1.0  0.15944  0.38422  0.22203  1.0000
  H   H43       1.0  0.12669  0.35023  0.24506  1.0000
  C   C51       1.0  0.13576  0.35987  0.23828  1.0000
  C   C52       1.0  0.23194  0.27890  0.27241  1.0000
  Fe  Fe15      1.0  0.21967  0.32453  0.27131  1.0000
  N   N3        1.0  0.17150  0.36978  0.06229  1.0000
  C   C53       1.0  0.10867  0.38484  0.23575  1.0000
  H   H44       1.0  0.01294  0.46037  0.17672  1.0000
  C   C54       1.0  0.07275  0.38680  0.97373  1.0000
  C   C55       1.0  0.99361  0.41185  0.25227  1.0000
  H   H45       1.0  0.05472  0.12207  0.29981  1.0000
  H   H46       1.0  0.16040  0.33887  0.23991  1.0000
  H   H47       1.0  0.12954  0.00961  0.04152  1.0000
  H   H48       1.0  0.15237  0.38442  0.08169  1.0000
  C   C56       1.0  0.01112  0.40486  0.24280  1.0000
  C   C57       1.0  0.16138  0.97607  0.11290  1.0000
  S   S29       1.0  0.18485  0.37087  0.27174  1.0000
  C   C58       1.0  0.14921  0.99053  0.12028  1.0000
  S   S30       1.0  0.00572  0.01837  0.29788  1.0000
  H   H49       1.0  0.22239  0.39168  0.28004  1.0000
  C   C59       1.0  0.98683  0.36981  0.24470  1.0000
  C   C60       1.0  0.99894  0.98138  0.21807  1.0000
  H   H50       1.0  0.19334  0.26729  0.26775  1.0000
  H   H51       1.0  0.03019  0.34590  0.24789  1.0000
  C   C61       1.0  0.07490  0.40042  0.98189  1.0000
  N   N4        1.0  0.14093  0.01063  0.06397  1.0000
  N   N5        1.0  0.12871  0.37819  0.23327  1.0000
  H   H52       1.0  0.14233  0.06122  0.04063  1.0000
  Fe  Fe16      1.0  0.22282  0.16109  0.29143  1.0000
  H   H53       1.0  0.11183  0.33600  0.29220  1.0000
  Fe  Fe17      1.0  0.21656  0.03376  0.09624  1.0000
  C   C62       1.0  0.02185  0.98354  0.96950  1.0000
  H   H54       1.0  0.12988  0.04199  0.02669  1.0000
  Fe  Fe18      1.0  0.03347  0.02636  0.29132  1.0000
  S   S31       1.0  0.20929  0.22904  0.27264  1.0000
  H   H55       1.0  0.22247  0.24975  0.23084  1.0000
  Fe  Fe19      1.0  0.22661  0.20089  0.27940  1.0000
  C   C63       1.0  0.03503  0.39671  0.00668  1.0000
  C   C64       1.0  0.02682  0.37094  0.99182  1.0000
  H   H56       1.0  0.23413  0.07895  0.12443  1.0000
  S   S32       1.0  0.22711  0.17958  0.26370  1.0000
  C   C65       1.0  0.99966  0.01144  0.22196  1.0000
  C   C66       1.0  0.21945  0.21751  0.22627  1.0000
  C   C67       1.0  0.18413  0.04023  0.02359  1.0000
  C   C68       1.0  0.17724  0.05214  0.00868  1.0000
  C   C69       1.0  0.16854  0.04576  0.99806  1.0000
  C   C70       1.0  0.16661  0.02745  0.00240  1.0000
  C   C71       1.0  0.17372  0.01544  0.01716  1.0000
  C   C72       1.0  0.18254  0.02180  0.02771  1.0000
  H   H57       1.0  0.17823  0.06643  0.00568  1.0000
  H   H58       1.0  0.16274  0.05511  0.98693  1.0000
  C   C73       1.0  0.18298  0.09001  0.96926  1.0000
  H   H59       1.0  0.18791  0.01250  0.03911  1.0000
  C   C74       1.0  0.14159  0.99011  0.16998  1.0000
  C   C75       1.0  0.01637  0.98078  0.20661  1.0000
  Fe  Fe20      1.0  0.01311  0.39988  0.29062  1.0000
  S   S33       1.0  0.19499  0.00350  0.07660  1.0000
  C   C76       1.0  0.04206  0.37811  0.01244  1.0000
  H   H60       1.0  0.00694  0.44680  0.07291  1.0000
  H   H61       1.0  0.06994  0.42946  0.98100  1.0000
  H   H62       1.0  0.10105  0.37508  0.24639  1.0000
  H   H63       1.0  0.02722  0.39778  0.21719  1.0000
  H   H64       1.0  0.22147  0.35234  0.03791  1.0000
  H   H65       1.0  0.15533  0.98404  0.07408  1.0000
  C   C77       1.0  0.16670  0.36559  0.22707  1.0000
  C   C78       1.0  0.13445  0.03641  0.03964  1.0000
  H   H66       1.0  0.20941  0.21704  0.23963  1.0000
  H   H67       1.0  0.01764  0.34842  0.28058  1.0000
  H   H68       1.0  0.04367  0.35065  0.00913  1.0000
  C   C79       1.0  0.09801  0.36441  0.28740  1.0000
  S   S34       1.0  0.00214  0.40563  0.19282  1.0000
  C   C80       1.0  0.20738  0.35714  0.04470  1.0000
  H   H69       1.0  0.01934  0.41660  0.98838  1.0000
  H   H70       1.0  0.01030  0.35998  0.22470  1.0000
  C   C81       1.0  0.13072  0.98922  0.12774  1.0000
  H   H71       1.0  0.17226  0.00124  0.02054  1.0000
  H   H72       1.0  0.20651  0.39838  0.18418  1.0000
  S   S35       1.0  0.19803  0.32997  0.29611  1.0000
  C   C82       1.0  0.23250  0.41138  0.28883  1.0000
  C   C83       1.0  0.19307  0.36262  0.03500  1.0000
  H   H73       1.0  0.11196  0.97577  0.18684  1.0000
  H   H74       1.0  0.03885  0.40691  0.01186  1.0000
  H   H75       1.0  0.01968  0.03802  0.19881  1.0000
  C   C84       1.0  0.22413  0.35802  0.16945  1.0000
  H   H76       1.0  0.10461  0.39807  0.24060  1.0000
  C   C85       1.0  0.16130  0.41662  0.04449  1.0000
  C   C86       1.0  0.14985  0.42303  0.05987  1.0000
  C   C87       1.0  0.15734  0.42311  0.07481  1.0000
  C   C88       1.0  0.17623  0.41649  0.07460  1.0000
  C   C89       1.0  0.18771  0.41022  0.05915  1.0000
  C   C90       1.0  0.18029  0.41053  0.04403  1.0000
  H   H77       1.0  0.13520  0.42766  0.06042  1.0000
  H   H78       1.0  0.14843  0.42798  0.08674  1.0000
  H   H79       1.0  0.20231  0.40517  0.05885  1.0000
  H   H80       1.0  0.18924  0.40561  0.03215  1.0000
  H   H81       1.0  0.10418  0.38679  0.22260  1.0000
  C   C91       1.0  0.03442  0.43370  0.07719  1.0000
  C   C92       1.0  0.04538  0.42465  0.09015  1.0000
  C   C93       1.0  0.03716  0.42153  0.10888  1.0000
  H   H82       1.0  0.05991  0.05611  0.28267  1.0000
  H   H83       1.0  0.04061  0.43614  0.06275  1.0000
  H   H84       1.0  0.04558  0.41459  0.11898  1.0000
  H   H85       1.0  0.05089  0.97528  0.24739  1.0000
  H   H86       1.0  0.99311  0.02338  0.22803  1.0000
  C   C94       1.0  0.06595  0.46840  0.07258  1.0000
  H   H87       1.0  0.15570  0.99231  0.16276  1.0000
  S   S36       1.0  0.23243  0.34902  0.14927  1.0000
  H   H88       1.0  0.02378  0.36076  0.98598  1.0000
  H   H89       1.0  0.17571  0.97691  0.10725  1.0000
  H   H90       1.0  0.23160  0.33189  0.18706  1.0000
  Fe  Fe21      1.0  0.22273  0.99758  0.08423  1.0000
  C   C95       1.0  0.98747  0.46136  0.19688  1.0000
  C   C96       1.0  0.99106  0.36397  0.27542  1.0000
  C   C97       1.0  0.06148  0.05988  0.29480  1.0000
  C   C98       1.0  0.00213  0.46881  0.18499  1.0000
  H   H91       1.0  0.23067  0.41102  0.19207  1.0000
  N   N6        1.0  0.18296  0.10793  0.96892  1.0000
  H   H92       1.0  0.13599  0.98402  0.06474  1.0000
  H   H93       1.0  0.14611  0.44331  0.99427  1.0000
  S   S37       1.0  0.22961  0.02499  0.06923  1.0000
  H   H94       1.0  0.23022  0.17853  0.13073  1.0000
  H   H95       1.0  0.17010  0.08553  0.97110  1.0000
  H   H96       1.0  0.16025  0.12024  0.98716  1.0000
  Fe  Fe22      1.0  0.23335  0.36892  0.12201  1.0000
  S   S38       1.0  0.20545  0.13956  0.29826  1.0000
  C   C99       1.0  0.03702  0.14804  0.29212  1.0000
  N   N7        1.0  0.03958  0.97461  0.97038  1.0000
  H   H97       1.0  0.01695  0.17335  0.28865  1.0000
  C   C100      1.0  0.02109  0.16051  0.29782  1.0000
  H   H98       1.0  0.98582  0.36552  0.28957  1.0000
  C   C101      1.0  0.05671  0.97446  0.23316  1.0000
  H   H99       1.0  0.99836  0.16625  0.32021  1.0000
  C   C102      1.0  0.14276  0.15750  0.31237  1.0000
  H   H100      1.0  0.08175  0.18138  0.34286  1.0000
  C   C103      1.0  0.07396  0.40564  0.35849  1.0000
  Fe  Fe23      1.0  0.10076  0.10772  0.36428  1.0000
  S   S39       1.0  0.11608  0.09255  0.38697  1.0000
  Fe  Fe24      1.0  0.12931  0.07957  0.50201  1.0000
  S   S40       1.0  0.14141  0.09711  0.47586  1.0000
  S   S41       1.0  0.13529  0.04904  0.50290  1.0000
  Fe  Fe25      1.0  0.11184  0.11233  0.52039  1.0000
  S   S42       1.0  0.12186  0.13271  0.49562  1.0000
  S   S43       1.0  0.09746  0.12003  0.54762  1.0000
  Fe  Fe26      1.0  0.11381  0.11599  0.47960  1.0000
  S   S44       1.0  0.09732  0.12835  0.45724  1.0000
  Fe  Fe27      1.0  0.14847  0.11209  0.49407  1.0000
  S   S45       1.0  0.17618  0.11999  0.48855  1.0000
  S   S46       1.0  0.10111  0.09751  0.50476  1.0000
  S   S47       1.0  0.13910  0.09269  0.51994  1.0000
  N   N8        1.0  0.09041  0.42545  0.33387  1.0000
  C   C104      1.0  0.11214  0.99087  0.55016  1.0000
  C   C105      1.0  0.08190  0.39978  0.32771  1.0000
  N   N9        1.0  0.00006  0.25089  0.51361  1.0000
  N   N10       1.0  0.03217  0.12819  0.32181  1.0000
  C   C106      1.0  0.02480  0.44515  0.55002  1.0000
  C   C107      1.0  0.02141  0.47149  0.56332  1.0000
  S   S48       1.0  0.07558  0.10195  0.35830  1.0000
  Fe  Fe28      1.0  0.03270  0.20665  0.57068  1.0000
  S   S49       1.0  0.04676  0.19782  0.59469  1.0000
  S   S50       1.0  0.04095  0.19584  0.54448  1.0000
  Fe  Fe29      1.0  0.00416  0.23651  0.58721  1.0000
  S   S51       1.0  0.01544  0.23020  0.61305  1.0000
  C   C108      1.0  0.99307  0.16053  0.59384  1.0000
  Fe  Fe30      1.0  0.04319  0.22777  0.59410  1.0000
  S   S52       1.0  0.06659  0.24020  0.59512  1.0000
  Fe  Fe31      1.0  0.01797  0.20067  0.61172  1.0000
  H   H101      1.0  0.17628  0.12066  0.30272  1.0000
  S   S53       1.0  0.03180  0.23645  0.56841  1.0000
  S   S54       1.0  0.00413  0.20712  0.58764  1.0000
  C   C109      1.0  0.00517  0.35781  0.36610  1.0000
  S   S55       1.0  0.21955  0.18308  0.30717  1.0000
  H   H102      1.0  0.10359  0.03426  0.55471  1.0000
  C   C110      1.0  0.06133  0.20555  0.33551  1.0000
  C   C111      1.0  0.03577  0.40437  0.60865  1.0000
  C   C112      1.0  0.19744  0.14777  0.51415  1.0000
  H   H103      1.0  0.04449  0.00175  0.36889  1.0000
  H   H104      1.0  0.04759  0.00361  0.34446  1.0000
  C   C113      1.0  0.03572  0.46204  0.57243  1.0000
  H   H105      1.0  0.05512  0.43680  0.57764  1.0000
  H   H106      1.0  0.21196  0.21526  0.58622  1.0000
  C   C114      1.0  0.05446  0.05724  0.32781  1.0000
  N   N11       1.0  0.16134  0.11840  0.35202  1.0000
  Fe  Fe32      1.0  0.03107  0.36320  0.31027  1.0000
  C   C115      1.0  0.21000  0.08932  0.51091  1.0000
  C   C116      1.0  0.19509  0.13835  0.50162  1.0000
  H   H107      1.0  0.15864  0.16881  0.35417  1.0000
  H   H108      1.0  0.13038  0.15528  0.36467  1.0000
  C   C117      1.0  0.22403  0.21903  0.33564  1.0000
  C   C118      1.0  0.21842  0.39437  0.32454  1.0000
  C   C119      1.0  0.15947  0.15455  0.35393  1.0000
  S   S56       1.0  0.98748  0.45666  0.52205  1.0000
  C   C120      1.0  0.06587  0.06967  0.32616  1.0000
  C   C121      1.0  0.04771  0.41712  0.55703  1.0000
  H   H109      1.0  0.06709  0.40244  0.37277  1.0000
  H   H110      1.0  0.02525  0.29670  0.32035  1.0000
  S   S57       1.0  0.01928  0.40525  0.35434  1.0000
  H   H111      1.0  0.09592  0.41903  0.30716  1.0000
  C   C122      1.0  0.02812  0.45241  0.46745  1.0000
  C   C123      1.0  0.99995  0.39920  0.47982  1.0000
  H   H112      1.0  0.04744  0.05135  0.34128  1.0000
  C   C124      1.0  0.99746  0.99204  0.34820  1.0000
  H   H113      1.0  0.99613  0.46174  0.44865  1.0000
  C   C125      1.0  0.99178  0.28384  0.50730  1.0000
  C   C126      1.0  0.01059  0.15650  0.31552  1.0000
  H   H114      1.0  0.22871  0.41379  0.33333  1.0000
  N   N12       1.0  0.20555  0.23771  0.60012  1.0000
  H   H115      1.0  0.99005  0.30271  0.38345  1.0000
  C   C127      1.0  0.99147  0.31299  0.37034  1.0000
  H   H116      1.0  0.05982  0.27957  0.60333  1.0000
  H   H117      1.0  0.99618  0.28566  0.32462  1.0000
  Fe  Fe33      1.0  0.06072  0.44437  0.63284  1.0000
  H   H118      1.0  0.10226  0.01711  0.57583  1.0000
  S   S58       1.0  0.05778  0.46947  0.35479  1.0000
  Fe  Fe34      1.0  0.21449  0.16083  0.54886  1.0000
  Fe  Fe35      1.0  0.09019  0.10688  0.32869  1.0000
  C   C128      1.0  0.23347  0.27358  0.32070  1.0000
  H   H119      1.0  0.04217  0.97592  0.31916  1.0000
  S   S59       1.0  0.08912  0.09337  0.30600  1.0000
  C   C129      1.0  0.98542  0.41006  0.48977  1.0000
  H   H120      1.0  0.15140  0.09329  0.36039  1.0000
  C   C130      1.0  0.12573  0.97814  0.54144  1.0000
  C   C131      1.0  0.13366  0.01012  0.54536  1.0000
  H   H121      1.0  0.06983  0.20976  0.32217  1.0000
  H   H122      1.0  0.01214  0.42569  0.50802  1.0000
  H   H123      1.0  0.06669  0.38351  0.35090  1.0000
  H   H124      1.0  0.01072  0.23068  0.49714  1.0000
  H   H125      1.0  0.00255  0.22169  0.52118  1.0000
  C   C132      1.0  0.04231  0.13176  0.30432  1.0000
  C   C133      1.0  0.08087  0.14047  0.54670  1.0000
  C   C134      1.0  0.07535  0.14992  0.53024  1.0000
  C   C135      1.0  0.06267  0.16671  0.52975  1.0000
  C   C136      1.0  0.05555  0.17409  0.54567  1.0000
  C   C137      1.0  0.06094  0.16449  0.56213  1.0000
  C   C138      1.0  0.07353  0.14772  0.56266  1.0000
  H   H126      1.0  0.08090  0.14434  0.51789  1.0000
  H   H127      1.0  0.05855  0.17407  0.51696  1.0000
  H   H128      1.0  0.05563  0.17005  0.57443  1.0000
  H   H129      1.0  0.07783  0.14045  0.57539  1.0000
  C   C139      1.0  0.08743  0.01855  0.51945  1.0000
  C   C140      1.0  0.08442  0.03657  0.52211  1.0000
  C   C141      1.0  0.09889  0.04630  0.51651  1.0000
  C   C142      1.0  0.11640  0.03806  0.50814  1.0000
  C   C143      1.0  0.11919  0.02037  0.50468  1.0000
  C   C144      1.0  0.10471  0.01065  0.51025  1.0000
  H   H130      1.0  0.07105  0.04275  0.52918  1.0000
  H   H131      1.0  0.09663  0.05984  0.51941  1.0000
  H   H132      1.0  0.13272  0.01396  0.49813  1.0000
  H   H133      1.0  0.10712  0.99681  0.50805  1.0000
  C   C145      1.0  0.17842  0.13266  0.50384  1.0000
  C   C146      1.0  0.16641  0.14596  0.53114  1.0000
  C   C147      1.0  0.18307  0.15167  0.52891  1.0000
  H   H134      1.0  0.01941  0.21782  0.36138  1.0000
  H   H135      1.0  0.03542  0.19480  0.30975  1.0000
  C   C148      1.0  0.03731  0.00626  0.35713  1.0000
  C   C149      1.0  0.11152  0.10366  0.40563  1.0000
  C   C150      1.0  0.12395  0.09889  0.41753  1.0000
  C   C151      1.0  0.11991  0.10660  0.43325  1.0000
  C   C152      1.0  0.10346  0.11923  0.43708  1.0000
  C   C153      1.0  0.09120  0.12425  0.42497  1.0000
  C   C154      1.0  0.09516  0.11644  0.40934  1.0000
  H   H136      1.0  0.13663  0.08901  0.41475  1.0000
  H   H137      1.0  0.12953  0.10273  0.44236  1.0000
  H   H138      1.0  0.07843  0.13398  0.42788  1.0000
  H   H139      1.0  0.08528  0.11992  0.40049  1.0000
  C   C155      1.0  0.00815  0.42541  0.60109  1.0000
  C   C156      1.0  0.99995  0.23326  0.50947  1.0000
  C   C157      1.0  0.06817  0.18949  0.34718  1.0000
  C   C158      1.0  0.16410  0.13642  0.51868  1.0000
  H   H140      1.0  0.15539  0.14871  0.54266  1.0000
  H   H141      1.0  0.15130  0.13184  0.52061  1.0000
  C   C159      1.0  0.03996  0.41766  0.61582  1.0000
  C   C160      1.0  0.02626  0.43672  0.48119  1.0000
  C   C161      1.0  0.22426  0.09558  0.51432  1.0000
  H   H142      1.0  0.16151  0.00025  0.53171  1.0000
  C   C162      1.0  0.01216  0.43859  0.60853  1.0000
  C   C163      1.0  0.09814  0.44216  0.32721  1.0000
  S   S60       1.0  0.08804  0.43757  0.61401  1.0000
  C   C164      1.0  0.03645  0.17298  0.33365  1.0000
  C   C165      1.0  0.03717  0.23214  0.32796  1.0000
  C   C166      1.0  0.22745  0.40899  0.32171  1.0000
  H   H143      1.0  0.04519  0.24291  0.32633  1.0000
  S   S61       1.0  0.07921  0.13726  0.32322  1.0000
  S   S62       1.0  0.00060  0.21907  0.31727  1.0000
  C   C167      1.0  0.07059  0.23725  0.61734  1.0000
  C   C168      1.0  0.00617  0.47091  0.48793  1.0000
  H   H144      1.0  0.08171  0.39173  0.31800  1.0000
  H   H145      1.0  0.02957  0.14708  0.61379  1.0000
  C   C169      1.0  0.14366  0.98133  0.53501  1.0000
  C   C170      1.0  0.05721  0.18377  0.36423  1.0000
  H   H146      1.0  0.99963  0.29747  0.52475  1.0000
  H   H147      1.0  0.01565  0.36545  0.35776  1.0000
  H   H148      1.0  0.03977  0.27036  0.61531  1.0000
  H   H149      1.0  0.00889  0.12548  0.62577  1.0000
  C   C171      1.0  0.04427  0.44415  0.57018  1.0000
  H   H150      1.0  0.06176  0.30834  0.61694  1.0000
  C   C172      1.0  0.23503  0.22447  0.34453  1.0000
  C   C173      1.0  0.09007  0.41523  0.32169  1.0000
  S   S63       1.0  0.18554  0.16355  0.54480  1.0000
  H   H151      1.0  0.20620  0.13547  0.49015  1.0000
  H   H152      1.0  0.18401  0.27690  0.61543  1.0000
  C   C174      1.0  0.14362  0.14698  0.35981  1.0000
  S   S64       1.0  0.01590  0.39191  0.59087  1.0000
  S   S65       1.0  0.11647  0.10977  0.33508  1.0000
  H   H153      1.0  0.10963  0.44084  0.31510  1.0000
  C   C175      1.0  0.17693  0.12576  0.34611  1.0000
  H   H154      1.0  0.00191  0.16910  0.37143  1.0000
  H   H155      1.0  0.22257  0.20479  0.33872  1.0000
  S   S66       1.0  0.22863  0.44984  0.38938  1.0000
  S   S67       1.0  0.11881  0.16357  0.32064  1.0000
  H   H156      1.0  0.17569  0.09085  0.35124  1.0000
  S   S68       1.0  0.07083  0.47105  0.40172  1.0000
  C   C176      1.0  0.06004  0.22751  0.63251  1.0000
  C   C177      1.0  0.22782  0.25439  0.60163  1.0000
  C   C178      1.0  0.01180  0.32505  0.31931  1.0000
  H   H157      1.0  0.21297  0.38781  0.33839  1.0000
  H   H158      1.0  0.01416  0.01222  0.33477  1.0000
  C   C179      1.0  0.08395  0.24547  0.61998  1.0000
  C   C180      1.0  0.16206  0.09979  0.34979  1.0000
  H   H159      1.0  0.02050  0.43876  0.54108  1.0000
  C   C181      1.0  0.05225  0.05228  0.31215  1.0000
  H   H160      1.0  0.00303  0.45187  0.60839  1.0000
  S   S69       1.0  0.99086  0.36726  0.52597  1.0000
  H   H161      1.0  0.99759  0.17167  0.58315  1.0000
  H   H162      1.0  0.17719  0.24957  0.60905  1.0000
  N   N13       1.0  0.10825  0.17734  0.54261  1.0000
  C   C182      1.0  0.11564  0.17614  0.55749  1.0000
  C   C183      1.0  0.09314  0.19062  0.53921  1.0000
  C   C184      1.0  0.10767  0.18823  0.56961  1.0000
  C   C185      1.0  0.08475  0.20283  0.55112  1.0000
  C   C186      1.0  0.09211  0.20162  0.56640  1.0000
  C   C187      1.0  0.11705  0.16463  0.53003  1.0000
  H   H163      1.0  0.12777  0.16579  0.56005  1.0000
  H   H164      1.0  0.08725  0.19165  0.52742  1.0000
  H   H165      1.0  0.11350  0.18723  0.58145  1.0000
  H   H166      1.0  0.07250  0.21304  0.54861  1.0000
  H   H167      1.0  0.08574  0.21102  0.57575  1.0000
  H   H168      1.0  0.11957  0.15025  0.53787  1.0000
  H   H169      1.0  0.10819  0.16501  0.52038  1.0000
  H   H170      1.0  0.13038  0.16816  0.52182  1.0000
  H   H171      1.0  0.03571  0.44692  0.38425  1.0000
  S   S70       1.0  0.04960  0.37526  0.32046  1.0000
  C   C188      1.0  0.01638  0.14017  0.32742  1.0000
  C   C189      1.0  0.15834  0.46384  0.63270  1.0000
  C   C190      1.0  0.21686  0.38788  0.30956  1.0000
  S   S71       1.0  0.00574  0.38350  0.31916  1.0000
  C   C191      1.0  0.21537  0.23189  0.32247  1.0000
  H   H172      1.0  0.01567  0.33483  0.35272  1.0000
  C   C192      1.0  0.00931  0.40715  0.46272  1.0000
  H   H173      1.0  0.09222  0.25293  0.60826  1.0000
  N   N14       1.0  0.20453  0.10413  0.54190  1.0000
  C   C193      1.0  0.04544  0.45282  0.35490  1.0000
  H   H174      1.0  0.21310  0.46595  0.42106  1.0000
  H   H175      1.0  0.00845  0.13740  0.34135  1.0000
  C   C194      1.0  0.10176  0.01995  0.56103  1.0000
  N   N15       1.0  0.09051  0.07816  0.45864  1.0000
  C   C195      1.0  0.08991  0.07512  0.44197  1.0000
  C   C196      1.0  0.10509  0.06929  0.46694  1.0000
  C   C197      1.0  0.10439  0.06326  0.43297  1.0000
  C   C198      1.0  0.11982  0.05738  0.45831  1.0000
  C   C199      1.0  0.11946  0.05442  0.44119  1.0000
  C   C200      1.0  0.07504  0.09037  0.46800  1.0000
  H   H176      1.0  0.07846  0.08228  0.43528  1.0000
  H   H177      1.0  0.10552  0.07152  0.48021  1.0000
  H   H178      1.0  0.10419  0.06147  0.41941  1.0000
  H   H179      1.0  0.13147  0.05064  0.46488  1.0000
  H   H180      1.0  0.21175  0.08438  0.49837  1.0000
  H   H181      1.0  0.09820  0.98829  0.55503  1.0000
  H   H182      1.0  0.02774  0.97870  0.38471  1.0000
  H   H183      1.0  0.06898  0.10197  0.45792  1.0000
  H   H184      1.0  0.00492  0.47028  0.54466  1.0000
  H   H185      1.0  0.06204  0.17107  0.37323  1.0000
  C   C201      1.0  0.00006  0.28443  0.52137  1.0000
  H   H186      1.0  0.03300  0.14371  0.59044  1.0000
  C   C202      1.0  0.14482  0.12878  0.35875  1.0000
  H   H187      1.0  0.22242  0.28355  0.31430  1.0000
  S   S72       1.0  0.03394  0.45232  0.62290  1.0000
  C   C203      1.0  0.17329  0.16531  0.30401  1.0000
  H   H188      1.0  0.17725  0.09877  0.54815  1.0000
  C   C204      1.0  0.05770  0.29917  0.62983  1.0000
  C   C205      1.0  0.03783  0.11103  0.33436  1.0000
  H   H189      1.0  0.98795  0.33812  0.51005  1.0000
  N   N16       1.0  0.04404  0.21555  0.34064  1.0000
  H   H190      1.0  0.13445  0.46063  0.42193  1.0000
  C   C206      1.0  0.20168  0.11229  0.55799  1.0000
  H   H191      1.0  0.13238  0.12311  0.36304  1.0000
  S   S73       1.0  0.20820  0.36772  0.31379  1.0000
  H   H192      1.0  0.01503  0.23869  0.53513  1.0000
  C   C207      1.0  0.02701  0.16560  0.35101  1.0000
  H   H193      1.0  0.02232  0.23779  0.33284  1.0000
  H   H194      1.0  0.01154  0.43208  0.44270  1.0000
  H   H195      1.0  0.03986  0.46828  0.58164  1.0000
  S   S74       1.0  0.06995  0.00575  0.52944  1.0000
  H   H196      1.0  0.05014  0.16622  0.32819  1.0000
  S   S75       1.0  0.04139  0.44952  0.44569  1.0000
  C   C208      1.0  0.14205  0.46321  0.62778  1.0000
  H   H197      1.0  0.99591  0.42851  0.59543  1.0000
  C   C209      1.0  0.02811  0.18924  0.32323  1.0000
  C   C210      1.0  0.22132  0.10282  0.53009  1.0000
  C   C211      1.0  0.99160  0.36532  0.37962  1.0000
  H   H198      1.0  0.02073  0.42177  0.38373  1.0000
  S   S76       1.0  0.00528  0.40491  0.54252  1.0000
  N   N17       1.0  0.03853  0.43583  0.55935  1.0000
  C   C212      1.0  0.99575  0.30005  0.32358  1.0000
  H   H199      1.0  0.18986  0.11790  0.33987  1.0000
  C   C213      1.0  0.02406  0.15156  0.60091  1.0000
  C   C214      1.0  0.03969  0.19417  0.36944  1.0000
  H   H200      1.0  0.13095  0.04550  0.43418  1.0000
  C   C215      1.0  0.01895  0.98293  0.37465  1.0000
  C   C216      1.0  0.03612  0.44344  0.37130  1.0000
  S   S77       1.0  0.09003  0.13792  0.36173  1.0000
  H   H201      1.0  0.14233  0.12984  0.31141  1.0000
  H   H202      1.0  0.13680  0.02283  0.54639  1.0000
  H   H203      1.0  0.00431  0.30757  0.36104  1.0000
  C   C217      1.0  0.19062  0.09761  0.53890  1.0000
  H   H204      1.0  0.07969  0.09675  0.47711  1.0000
  C   C218      1.0  0.99189  0.26685  0.50358  1.0000
  C   C219      1.0  0.00396  0.42593  0.45585  1.0000
  H   H205      1.0  0.18679  0.11677  0.56372  1.0000
  H   H206      1.0  0.20186  0.21025  0.61030  1.0000
  C   C220      1.0  0.20153  0.22091  0.59749  1.0000
  H   H207      1.0  0.21022  0.15236  0.51213  1.0000
  C   C221      1.0  0.01148  0.00145  0.34669  1.0000
  H   H208      1.0  0.03893  0.42979  0.32512  1.0000
  H   H209      1.0  0.15956  0.10036  0.33597  1.0000
  H   H210      1.0  0.05319  0.45522  0.32550  1.0000
  H   H211      1.0  0.03739  0.29471  0.60671  1.0000
  H   H212      1.0  0.03202  0.02133  0.35542  1.0000
  C   C222      1.0  0.00112  0.19118  0.34774  1.0000
  C   C223      1.0  0.19317  0.09006  0.52340  1.0000
  H   H213      1.0  0.98963  0.99529  0.33739  1.0000
  C   C224      1.0  0.03328  0.21013  0.35742  1.0000
  H   H214      1.0  0.05303  0.10632  0.33114  1.0000
  H   H215      1.0  0.03826  0.22889  0.31432  1.0000
  H   H216      1.0  0.08203  0.42943  0.36157  1.0000
  C   C225      1.0  0.15086  0.13969  0.30965  1.0000
  N   N18       1.0  0.11614  0.00676  0.55177  1.0000
  H   H217      1.0  0.02481  0.16631  0.59602  1.0000
  C   C226      1.0  0.02877  0.42404  0.35435  1.0000
  C   C227      1.0  0.07366  0.39507  0.34619  1.0000
  S   S78       1.0  0.03689  0.14507  0.36425  1.0000
  C   C228      1.0  0.01396  0.43800  0.49798  1.0000
  C   C229      1.0  0.02820  0.43485  0.61564  1.0000
  Fe  Fe36      1.0  0.06623  0.13262  0.35310  1.0000
  C   C230      1.0  0.14769  0.99745  0.53693  1.0000
  Fe  Fe37      1.0  0.02481  0.39716  0.32675  1.0000
  C   C231      1.0  0.21801  0.25001  0.31828  1.0000
  N   N19       1.0  0.99186  0.33086  0.37377  1.0000
  C   C232      1.0  0.00929  0.17470  0.35799  1.0000
  N   N20       1.0  0.02209  0.99675  0.35974  1.0000
  H   H218      1.0  0.05362  0.40923  0.56922  1.0000
  H   H219      1.0  0.20696  0.22781  0.31524  1.0000
  C   C233      1.0  0.17627  0.14387  0.34711  1.0000
  H   H220      1.0  0.18856  0.14979  0.34180  1.0000
  H   H221      1.0  0.04495  0.39111  0.60873  1.0000
  H   H222      1.0  0.06427  0.08257  0.47634  1.0000
  C   C234      1.0  0.19524  0.26662  0.60998  1.0000
  H   H223      1.0  0.04980  0.22100  0.63058  1.0000
  C   C235      1.0  0.00376  0.45505  0.50139  1.0000
  C   C236      1.0  0.04644  0.28232  0.61309  1.0000
  H   H224      1.0  0.08779  0.01913  0.55971  1.0000
  C   C237      1.0  0.00508  0.34049  0.36330  1.0000
  C   C238      1.0  0.01219  0.30634  0.32108  1.0000
  C   C239      1.0  0.00861  0.25135  0.52714  1.0000
  H   H225      1.0  0.23370  0.19065  0.63225  1.0000
  C   C240      1.0  0.08246  0.42087  0.35206  1.0000
  C   C241      1.0  0.07501  0.07737  0.30880  1.0000
  H   H226      1.0  0.03409  0.11291  0.34885  1.0000
  H   H227      1.0  0.06774  0.07312  0.33833  1.0000
  C   C242      1.0  0.01046  0.19842  0.33031  1.0000
  H   H228      1.0  0.18185  0.08572  0.52054  1.0000
  C   C243      1.0  0.22351  0.23930  0.59764  1.0000
  C   C244      1.0  0.04608  0.44801  0.33825  1.0000
  C   C245      1.0  0.02775  0.42912  0.37101  1.0000
  H   H229      1.0  0.03391  0.42340  0.47861  1.0000
  C   C246      1.0  0.03792  0.43360  0.33800  1.0000
  C   C247      1.0  0.02000  0.40830  0.60105  1.0000
  Fe  Fe38      1.0  0.10409  0.13980  0.33217  1.0000
  H   H230      1.0  0.05887  0.41754  0.54456  1.0000
  C   C248      1.0  0.01826  0.46960  0.47090  1.0000
  S   S79       1.0  0.03253  0.33263  0.31620  1.0000
  C   C249      1.0  0.19146  0.25109  0.60630  1.0000
  S   S80       1.0  0.21969  0.14392  0.57603  1.0000
  H   H231      1.0  0.01457  0.26842  0.54265  1.0000
  N   N21       1.0  0.98994  0.43656  0.46592  1.0000
  H   H232      1.0  0.05237  0.41468  0.62130  1.0000
  H   H233      1.0  0.20777  0.12478  0.55405  1.0000
  Fe  Fe39      1.0  0.07575  0.97589  0.52755  1.0000
  H   H234      1.0  0.20842  0.10233  0.56876  1.0000
  H   H235      1.0  0.03768  0.40938  0.55583  1.0000
  Fe  Fe40      1.0  0.99473  0.40144  0.57290  1.0000
  H   H236      1.0  0.02081  0.39891  0.45495  1.0000
  C   C250      1.0  0.00856  0.26811  0.53135  1.0000
  H   H237      1.0  0.21129  0.25989  0.30799  1.0000
  H   H238      1.0  0.03124  0.10017  0.33301  1.0000
  H   H239      1.0  0.21665  0.27972  0.61143  1.0000
  H   H240      1.0  0.03088  0.18953  0.38244  1.0000
  H   H241      1.0  0.00398  0.38468  0.48549  1.0000
  S   S81       1.0  0.23175  0.17397  0.60334  1.0000
  Fe  Fe41      1.0  0.09730  0.45604  0.62695  1.0000
  N   N22       1.0  0.22937  0.25506  0.32659  1.0000
  N   N23       1.0  0.00500  0.14898  0.60431  1.0000
  H   H242      1.0  0.18777  0.22346  0.59389  1.0000
  C   C251      1.0  0.17010  0.13457  0.30451  1.0000
  S   S82       1.0  0.22794  0.18309  0.55086  1.0000
  C   C252      1.0  0.01597  0.46306  0.55193  1.0000
  N   N24       1.0  0.04959  0.28498  0.63027  1.0000
  C   C253      1.0  0.99490  0.33741  0.32029  1.0000
  H   H243      1.0  0.10371  0.44509  0.33803  1.0000
  S   S83       1.0  0.03783  0.03658  0.31499  1.0000
  H   H244      1.0  0.98620  0.23329  0.50691  1.0000
  H   H245      1.0  0.18190  0.17519  0.30201  1.0000
  C   C254      1.0  0.21957  0.47279  0.39149  1.0000
  C   C255      1.0  0.99944  0.13464  0.61747  1.0000
  H   H246      1.0  0.99151  0.37885  0.38172  1.0000
  H   H247      1.0  0.01844  0.98243  0.59232  1.0000
  C   C256      1.0  0.23480  0.41732  0.30387  1.0000
  H   H248      1.0  0.23484  0.27872  0.33252  1.0000
  H   H249      1.0  0.98754  0.19815  0.35335  1.0000
  H   H250      1.0  0.08714  0.45406  0.32337  1.0000
  H   H251      1.0  0.99438  0.35176  0.31929  1.0000
  H   H252      1.0  0.14778  0.18429  0.31107  1.0000
  C   C257      1.0  0.99419  0.97790  0.36332  1.0000
  C   C258      1.0  0.18137  0.14724  0.30203  1.0000
  C   C259      1.0  0.21355  0.26813  0.60786  1.0000
  H   H253      1.0  0.23242  0.10774  0.53267  1.0000
  C   C260      1.0  0.15398  0.17042  0.30917  1.0000
  H   H254      1.0  0.23465  0.22872  0.59279  1.0000
  H   H255      1.0  0.13527  0.45183  0.63423  1.0000
  S   S84       1.0  0.03806  0.02475  0.92960  1.0000
  Fe  Fe42      1.0  0.05024  0.99787  0.87379  1.0000
  S   S85       1.0  0.06299  0.01269  0.84592  1.0000
  S   S86       1.0  0.02501  0.01703  0.88483  1.0000
  S   S87       1.0  0.07726  0.23469  0.67552  1.0000
  H   H256      1.0  0.02707  0.43383  0.89843  1.0000
  H   H257      1.0  0.06196  0.35619  0.66713  1.0000
  S   S88       1.0  0.20512  0.16771  0.94623  1.0000
  S   S89       1.0  0.06685  0.42085  0.65605  1.0000
  Fe  Fe43      1.0  0.19592  0.19232  0.92526  1.0000
  S   S90       1.0  0.16515  0.20208  0.92789  1.0000
  H   H258      1.0  0.03996  0.04778  0.89042  1.0000
  S   S91       1.0  0.21382  0.18099  0.90103  1.0000
  H   H259      1.0  0.09682  0.40454  0.68546  1.0000
  H   H260      1.0  0.07510  0.38361  0.65041  1.0000
  Fe  Fe44      1.0  0.09500  0.41557  0.63812  1.0000
  H   H261      1.0  0.22896  0.10606  0.96107  1.0000
  H   H262      1.0  0.07520  0.45539  0.82878  1.0000
  Fe  Fe45      1.0  0.01178  0.99246  0.89186  1.0000
  Fe  Fe46      1.0  0.13252  0.26421  0.66767  1.0000
  Fe  Fe47      1.0  0.03468  0.00732  0.91135  1.0000
  C   C261      1.0  0.09706  0.03559  0.91605  1.0000
  Fe  Fe48      1.0  0.17872  0.03660  0.92322  1.0000
  C   C262      1.0  0.08320  0.35703  0.70080  1.0000
  C   C263      1.0  0.99386  0.99443  0.67345  1.0000
  Fe  Fe49      1.0  0.03611  0.39445  0.92481  1.0000
  S   S92       1.0  0.00595  0.40010  0.92470  1.0000
  S   S93       1.0  0.04525  0.41632  0.93348  1.0000
  Fe  Fe50      1.0  0.04339  0.36065  0.90821  1.0000
  S   S94       1.0  0.01375  0.36353  0.90682  1.0000
  S   S95       1.0  0.06621  0.33955  0.89580  1.0000
  Fe  Fe51      1.0  0.01419  0.39347  0.89671  1.0000
  C   C264      1.0  0.02669  0.45328  0.87272  1.0000
  Fe  Fe52      1.0  0.00776  0.36995  0.93497  1.0000
  S   S96       1.0  0.04439  0.39032  0.89571  1.0000
  S   S97       1.0  0.03745  0.36451  0.93753  1.0000
  Fe  Fe53      1.0  0.06955  0.21002  0.86333  1.0000
  S   S98       1.0  0.09138  0.21645  0.83839  1.0000
  S   S99       1.0  0.05835  0.18396  0.87161  1.0000
  Fe  Fe54      1.0  0.06551  0.24657  0.87466  1.0000
  S   S100      1.0  0.08691  0.25606  0.85055  1.0000
  S   S101      1.0  0.04866  0.26317  0.89584  1.0000
  Fe  Fe55      1.0  0.07346  0.24450  0.83433  1.0000
  S   S102      1.0  0.06427  0.26032  0.80820  1.0000
  Fe  Fe56      1.0  0.10282  0.22718  0.85705  1.0000
  S   S103      1.0  0.13355  0.22165  0.85515  1.0000
  S   S104      1.0  0.05064  0.23729  0.85796  1.0000
  S   S105      1.0  0.08238  0.21846  0.88248  1.0000
  Fe  Fe57      1.0  0.00232  0.11086  0.82185  1.0000
  S   S106      1.0  0.02411  0.11691  0.79685  1.0000
  H   H263      1.0  0.00522  0.47151  0.73088  1.0000
  S   S107      1.0  0.00369  0.16007  0.79425  1.0000
  Fe  Fe58      1.0  0.00062  0.13578  0.78482  1.0000
  C   C265      1.0  0.08405  0.37026  0.65209  1.0000
  Fe  Fe59      1.0  0.02498  0.14052  0.80885  1.0000
  S   S108      1.0  0.05147  0.14940  0.80725  1.0000
  H   H264      1.0  0.16348  0.27048  0.68077  1.0000
  C   C266      1.0  0.00364  0.43902  0.84607  1.0000
  C   C267      1.0  0.08814  0.33733  0.66397  1.0000
  C   C268      1.0  0.17457  0.10986  0.92670  1.0000
  Fe  Fe60      1.0  0.11332  0.25857  0.70774  1.0000
  S   S109      1.0  0.12493  0.28220  0.68861  1.0000
  S   S110      1.0  0.12191  0.24713  0.73509  1.0000
  C   C269      1.0  0.16490  0.22524  0.70632  1.0000
  S   S111      1.0  0.99965  0.13644  0.75539  1.0000
  S   S112      1.0  0.08509  0.26848  0.70125  1.0000
  C   C270      1.0  0.04120  0.42402  0.83671  1.0000
  H   H265      1.0  0.09846  0.02989  0.88956  1.0000
  C   C271      1.0  0.20941  0.25220  0.67594  1.0000
  C   C272      1.0  0.19189  0.26142  0.68329  1.0000
  C   C273      1.0  0.19531  0.22104  0.71116  1.0000
  H   H266      1.0  0.05453  0.43793  0.95424  1.0000
  N   N25       1.0  0.11026  0.26602  0.90041  1.0000
  Fe  Fe61      1.0  0.15448  0.03537  0.96126  1.0000
  S   S113      1.0  0.98757  0.99164  0.88047  1.0000
  H   H267      1.0  0.05792  0.30029  0.80829  1.0000
  C   C274      1.0  0.08591  0.03703  0.93339  1.0000
  C   C275      1.0  0.17139  0.21516  0.69230  1.0000
  S   S114      1.0  0.07872  0.31859  0.67780  1.0000
  C   C276      1.0  0.08032  0.25668  0.78790  1.0000
  C   C277      1.0  0.09800  0.24616  0.78862  1.0000
  C   C278      1.0  0.11062  0.24331  0.77230  1.0000
  C   C279      1.0  0.10563  0.25094  0.75520  1.0000
  C   C280      1.0  0.08793  0.26148  0.75447  1.0000
  C   C281      1.0  0.07530  0.26435  0.77082  1.0000
  H   H268      1.0  0.10205  0.24032  0.80171  1.0000
  H   H269      1.0  0.12430  0.23518  0.77293  1.0000
  H   H270      1.0  0.08401  0.26745  0.74134  1.0000
  H   H271      1.0  0.06162  0.27250  0.77020  1.0000
  C   C282      1.0  0.05686  0.17405  0.85378  1.0000
  C   C283      1.0  0.04408  0.16267  0.85708  1.0000
  C   C284      1.0  0.04241  0.15487  0.84296  1.0000
  C   C285      1.0  0.05373  0.15820  0.82554  1.0000
  C   C286      1.0  0.06685  0.16917  0.82240  1.0000
  C   C287      1.0  0.06828  0.17725  0.83641  1.0000
  H   H272      1.0  0.03530  0.16003  0.87054  1.0000
  H   H273      1.0  0.03241  0.14627  0.84562  1.0000
  H   H274      1.0  0.07574  0.17168  0.80898  1.0000
  H   H275      1.0  0.07836  0.18576  0.83376  1.0000
  C   C288      1.0  0.06061  0.31886  0.89524  1.0000
  C   C289      1.0  0.04502  0.31297  0.90694  1.0000
  C   C290      1.0  0.04149  0.29584  0.90699  1.0000
  C   C291      1.0  0.05333  0.28470  0.89511  1.0000
  C   C292      1.0  0.06871  0.29077  0.88315  1.0000
  C   C293      1.0  0.07240  0.30777  0.88330  1.0000
  H   H276      1.0  0.03594  0.32141  0.91627  1.0000
  H   H277      1.0  0.02958  0.29117  0.91630  1.0000
  H   H278      1.0  0.07797  0.28225  0.87407  1.0000
  H   H279      1.0  0.08450  0.31230  0.87426  1.0000
  S   S115      1.0  0.01367  0.17748  0.63599  1.0000
  S   S116      1.0  0.20490  0.02576  0.90433  1.0000
  H   H280      1.0  0.11834  0.29107  0.89937  1.0000
  C   C294      1.0  0.01124  0.42248  0.85668  1.0000
  C   C295      1.0  0.02999  0.41495  0.85187  1.0000
  H   H281      1.0  0.12228  0.25351  0.87712  1.0000
  H   H282      1.0  0.06214  0.38091  0.95270  1.0000
  H   H283      1.0  0.03585  0.40199  0.85968  1.0000
  H   H284      1.0  0.99509  0.17872  0.69863  1.0000
  H   H285      1.0  0.19925  0.12783  0.96604  1.0000
  H   H286      1.0  0.07060  0.31455  0.81351  1.0000
  C   C296      1.0  0.05416  0.97690  0.95388  1.0000
  C   C297      1.0  0.05655  0.08408  0.86170  1.0000
  S   S117      1.0  0.01740  0.98572  0.92040  1.0000
  H   H287      1.0  0.12875  0.44605  0.67753  1.0000
  H   H288      1.0  0.04809  0.22685  0.82334  1.0000
  C   C298      1.0  0.04458  0.27336  0.64654  1.0000
  S   S118      1.0  0.17777  0.04995  0.94651  1.0000
  C   C299      1.0  0.16650  0.02727  0.88315  1.0000
  H   H289      1.0  0.05573  0.41814  0.83310  1.0000
  H   H290      1.0  0.07943  0.34362  0.70459  1.0000
  H   H291      1.0  0.06959  0.44537  0.73239  1.0000
  C   C300      1.0  0.00631  0.06515  0.88515  1.0000
  Fe  Fe62      1.0  0.22444  0.15751  0.92208  1.0000
  H   H292      1.0  0.16602  0.02579  0.89800  1.0000
  C   C301      1.0  0.15662  0.20711  0.90760  1.0000
  C   C302      1.0  0.13772  0.20849  0.90875  1.0000
  C   C303      1.0  0.13055  0.21263  0.89273  1.0000
  C   C304      1.0  0.14219  0.21575  0.87548  1.0000
  C   C305      1.0  0.16109  0.21428  0.87432  1.0000
  C   C306      1.0  0.16831  0.20995  0.89035  1.0000
  H   H293      1.0  0.12866  0.20623  0.92210  1.0000
  H   H294      1.0  0.11605  0.21341  0.89377  1.0000
  H   H295      1.0  0.17016  0.21672  0.86100  1.0000
  H   H296      1.0  0.18284  0.20923  0.88934  1.0000
  C   C307      1.0  0.20809  0.10375  0.91934  1.0000
  C   C308      1.0  0.07488  0.38987  0.69835  1.0000
  C   C309      1.0  0.01765  0.06324  0.83502  1.0000
  C   C310      1.0  0.01362  0.04563  0.84032  1.0000
  C   C311      1.0  0.02776  0.03012  0.84218  1.0000
  C   C312      1.0  0.04609  0.03201  0.83925  1.0000
  C   C313      1.0  0.05034  0.04961  0.83282  1.0000
  C   C314      1.0  0.03611  0.06524  0.83058  1.0000
  H   H297      1.0  0.13086  0.45824  0.69411  1.0000
  H   H298      1.0  0.02423  0.01669  0.84698  1.0000
  H   H299      1.0  0.06449  0.05121  0.83042  1.0000
  H   H300      1.0  0.03937  0.07880  0.82627  1.0000
  C   C315      1.0  0.06075  0.02901  0.92446  1.0000
  C   C316      1.0  0.07200  0.02761  0.90721  1.0000
  C   C317      1.0  0.03375  0.44075  0.82638  1.0000
  H   H301      1.0  0.06678  0.02431  0.89684  1.0000
  C   C318      1.0  0.06772  0.03386  0.93753  1.0000
  H   H302      1.0  0.13334  0.37575  0.68789  1.0000
  C   C319      1.0  0.10131  0.35880  0.69213  1.0000
  H   H303      1.0  0.06942  0.08878  0.85548  1.0000
  H   H304      1.0  0.09673  0.25076  0.63969  1.0000
  H   H305      1.0  0.18527  0.99548  0.92039  1.0000
  C   C320      1.0  0.19606  0.99179  0.90906  1.0000
  C   C321      1.0  0.11444  0.35100  0.64694  1.0000
  H   H306      1.0  0.05909  0.03508  0.95089  1.0000
  H   H307      1.0  0.07181  0.25204  0.92746  1.0000
  S   S119      1.0  0.99900  0.08211  0.83602  1.0000
  C   C322      1.0  0.00255  0.97860  0.66638  1.0000
  C   C323      1.0  0.20805  0.12188  0.91992  1.0000
  C   C324      1.0  0.06390  0.97588  0.82313  1.0000
  H   H308      1.0  0.98910  0.44487  0.84971  1.0000
  N   N26       1.0  0.02412  0.19778  0.81740  1.0000
  C   C325      1.0  0.21625  0.08302  0.96401  1.0000
  C   C326      1.0  0.07993  0.27724  0.92684  1.0000
  C   C327      1.0  0.12218  0.45770  0.68466  1.0000
  S   S120      1.0  0.16054  0.25748  0.64939  1.0000
  H   H309      1.0  0.99213  0.00775  0.66431  1.0000
  C   C328      1.0  0.16732  0.97497  0.87345  1.0000
  H   H310      1.0  0.16689  0.13518  0.96532  1.0000
  H   H311      1.0  0.06944  0.05834  0.87654  1.0000
  C   C329      1.0  0.17685  0.26313  0.67517  1.0000
  C   C330      1.0  0.07568  0.23490  0.65299  1.0000
  H   H312      1.0  0.00813  0.08038  0.79719  1.0000
  H   H313      1.0  0.11146  0.34658  0.68948  1.0000
  H   H314      1.0  0.03848  0.26188  0.64691  1.0000
  C   C331      1.0  0.20782  0.00390  0.89928  1.0000
  C   C332      1.0  0.21188  0.24461  0.66049  1.0000
  Fe  Fe63      1.0  0.07776  0.44073  0.66558  1.0000
  Fe  Fe64      1.0  0.13695  0.04425  0.92757  1.0000
  S   S121      1.0  0.00501  0.13291  0.83503  1.0000
  C   C333      1.0  0.09304  0.28826  0.91880  1.0000
  H   H315      1.0  0.10861  0.45518  0.69331  1.0000
  H   H316      1.0  0.05571  0.37157  0.71010  1.0000
  C   C334      1.0  0.15266  0.00043  0.88865  1.0000
  H   H317      1.0  0.07778  0.47229  0.84037  1.0000
  H   H318      1.0  0.15484  0.11760  0.96637  1.0000
  C   C335      1.0  0.98945  0.97570  0.70395  1.0000
  C   C336      1.0  0.17922  0.25542  0.65982  1.0000
  H   H319      1.0  0.99522  0.12426  0.72449  1.0000
  H   H320      1.0  0.99588  0.19583  0.82262  1.0000
  C   C337      1.0  0.19022  0.20796  0.68773  1.0000
  S   S122      1.0  0.15726  0.02014  0.93885  1.0000
  C   C338      1.0  0.21610  0.10132  0.96369  1.0000
  C   C339      1.0  0.08998  0.03092  0.90303  1.0000
  C   C340      1.0  0.03990  0.09502  0.85782  1.0000
  C   C341      1.0  0.19922  0.11362  0.96639  1.0000
  C   C342      1.0  0.01493  0.44827  0.83099  1.0000
  S   S123      1.0  0.15874  0.06004  0.91062  1.0000
  C   C343      1.0  0.05449  0.43633  0.88321  1.0000
  H   H321      1.0  0.19107  0.14822  0.92359  1.0000
  H   H322      1.0  0.03074  0.47123  0.84630  1.0000
  H   H323      1.0  0.05775  0.99063  0.95132  1.0000
  C   C344      1.0  0.03243  0.19618  0.79969  1.0000
  N   N27       1.0  0.13441  0.16051  0.89101  1.0000
  C   C345      1.0  0.12431  0.17251  0.87899  1.0000
  C   C346      1.0  0.12789  0.14557  0.90217  1.0000
  C   C347      1.0  0.10725  0.16964  0.87786  1.0000
  C   C348      1.0  0.11087  0.14229  0.90139  1.0000
  C   C349      1.0  0.10048  0.15447  0.88918  1.0000
  C   C350      1.0  0.15203  0.16387  0.89251  1.0000
  H   H324      1.0  0.12940  0.18438  0.87014  1.0000
  H   H325      1.0  0.13586  0.13605  0.91174  1.0000
  H   H326      1.0  0.09926  0.17913  0.86831  1.0000
  H   H327      1.0  0.10580  0.13038  0.91024  1.0000
  H   H328      1.0  0.08717  0.15225  0.88845  1.0000
  H   H329      1.0  0.15029  0.16887  0.90539  1.0000
  H   H330      1.0  0.16274  0.15105  0.89267  1.0000
  H   H331      1.0  0.15728  0.17437  0.88077  1.0000
  S   S124      1.0  0.06928  0.46482  0.64390  1.0000
  H   H332      1.0  0.09906  0.24213  0.90427  1.0000
  C   C351      1.0  0.22425  0.98171  0.87992  1.0000
  H   H333      1.0  0.01198  0.17417  0.82407  1.0000
  C   C352      1.0  0.04673  0.20545  0.79008  1.0000
  C   C353      1.0  0.05234  0.21663  0.79861  1.0000
  H   H334      1.0  0.99323  0.07798  0.75587  1.0000
  H   H335      1.0  0.01475  0.30609  0.88150  1.0000
  C   C354      1.0  0.12503  0.37732  0.67743  1.0000
  C   C355      1.0  0.06490  0.44484  0.86700  1.0000
  H   H336      1.0  0.05355  0.20378  0.77620  1.0000
  H   H337      1.0  0.06345  0.22389  0.79137  1.0000
  H   H338      1.0  0.09111  0.30156  0.92236  1.0000
  H   H339      1.0  0.19308  0.97796  0.85458  1.0000
  N   N28       1.0  0.98655  0.08047  0.78400  1.0000
  N   N29       1.0  0.16671  0.00943  0.87938  1.0000
  H   H340      1.0  0.99941  0.04391  0.84374  1.0000
  C   C356      1.0  0.18095  0.00169  0.86704  1.0000
  H   H341      1.0  0.99477  0.33520  0.93520  1.0000
  N   N30       1.0  0.10596  0.37574  0.68640  1.0000
  H   H342      1.0  0.13139  0.36676  0.66883  1.0000
  H   H343      1.0  0.19549  0.20057  0.67654  1.0000
  S   S125      1.0  0.99741  0.41164  0.87628  1.0000
  Fe  Fe65      1.0  0.09739  0.29068  0.68025  1.0000
  H   H344      1.0  0.16161  0.13758  0.92971  1.0000
  C   C357      1.0  0.17455  0.12816  0.92658  1.0000
  C   C358      1.0  0.09756  0.25504  0.90839  1.0000
  H   H345      1.0  0.18996  0.26729  0.69525  1.0000
  C   C359      1.0  0.00895  0.18818  0.82704  1.0000
  Fe  Fe66      1.0  0.09549  0.25218  0.67887  1.0000
  H   H346      1.0  0.99432  0.07665  0.88703  1.0000
  H   H347      1.0  0.19151  0.08364  0.92259  1.0000
  S   S126      1.0  0.15350  0.10227  0.93315  1.0000
  C   C360      1.0  0.06989  0.37271  0.70376  1.0000
  C   C361      1.0  0.19137  0.09774  0.92272  1.0000
  H   H348      1.0  0.05862  0.29209  0.67518  1.0000
  C   C362      1.0  0.04369  0.21831  0.81659  1.0000
  H   H349      1.0  0.04439  0.26609  0.67568  1.0000
  S   S127      1.0  0.12263  0.24005  0.68731  1.0000
  H   H350      1.0  0.02835  0.18728  0.79307  1.0000
  C   C363      1.0  0.06770  0.46592  0.83716  1.0000
  C   C364      1.0  0.02345  0.08864  0.86583  1.0000
  H   H351      1.0  0.13679  0.24955  0.89366  1.0000
  C   C365      1.0  0.10829  0.28235  0.90561  1.0000
  H   H352      1.0  0.19857  0.23922  0.64137  1.0000
  H   H353      1.0  0.01864  0.99228  0.95676  1.0000
  C   C366      1.0  0.08222  0.26047  0.92169  1.0000
  H   H354      1.0  0.15412  0.03739  0.87949  1.0000
  H   H355      1.0  0.01059  0.09697  0.86243  1.0000
  C   C367      1.0  0.05714  0.40996  0.95177  1.0000
  N   N31       1.0  0.17685  0.22832  0.71533  1.0000
  C   C368      1.0  0.16963  0.23962  0.72939  1.0000
  H   H356      1.0  0.20491  0.22386  0.71792  1.0000
  H   H357      1.0  0.15031  0.23096  0.70969  1.0000
  H   H358      1.0  0.16077  0.23238  0.74144  1.0000
  H   H359      1.0  0.18083  0.24300  0.73405  1.0000
  H   H360      1.0  0.16103  0.25282  0.72376  1.0000
  N   N32       1.0  0.05064  0.30351  0.83611  1.0000
  C   C369      1.0  0.04054  0.29002  0.84361  1.0000
  C   C370      1.0  0.04817  0.31790  0.84463  1.0000
  C   C371      1.0  0.02742  0.29081  0.85996  1.0000
  C   C372      1.0  0.03502  0.31922  0.86091  1.0000
  C   C373      1.0  0.02456  0.30559  0.86855  1.0000
  C   C374      1.0  0.06439  0.30213  0.81903  1.0000
  H   H361      1.0  0.04271  0.27846  0.83703  1.0000
  H   H362      1.0  0.05647  0.32838  0.83902  1.0000
  H   H363      1.0  0.01988  0.27977  0.86622  1.0000
  H   H364      1.0  0.03337  0.33043  0.86786  1.0000
  H   H365      1.0  0.09477  0.47076  0.66658  1.0000
  C   C375      1.0  0.06676  0.45945  0.70486  1.0000
  H   H366      1.0  0.22105  0.09420  0.91673  1.0000
  H   H367      1.0  0.07566  0.29003  0.82144  1.0000
  H   H368      1.0  0.06975  0.98814  0.81992  1.0000
  H   H369      1.0  0.06470  0.40222  0.70061  1.0000
  H   H370      1.0  0.03794  0.98831  0.83819  1.0000
  H   H371      1.0  0.99952  0.15887  0.71663  1.0000
  H   H372      1.0  0.01570  0.07707  0.77402  1.0000
  C   C376      1.0  0.05657  0.06700  0.87351  1.0000
  C   C377      1.0  0.07662  0.35469  0.66145  1.0000
  H   H373      1.0  0.19234  0.00859  0.86005  1.0000
  C   C378      1.0  0.19674  0.24594  0.65268  1.0000
  H   H374      1.0  0.06775  0.28190  0.93667  1.0000
  C   C379      1.0  0.00447  0.08457  0.78338  1.0000
  H   H375      1.0  0.00402  0.09953  0.77847  1.0000
  H   H376      1.0  0.17909  0.03277  0.87561  1.0000
  C   C380      1.0  0.22201  0.99872  0.88480  1.0000
  H   H377      1.0  0.98958  0.18116  0.72218  1.0000
  N   N33       1.0  0.02358  0.07193  0.87751  1.0000
  C   C381      1.0  0.03986  0.06109  0.88130  1.0000
  S   S128      1.0  0.21631  0.20812  0.92735  1.0000
  C   C382      1.0  0.09311  0.39113  0.68970  1.0000
  C   C383      1.0  0.20227  0.21079  0.69729  1.0000
  S   S129      1.0  0.13194  0.05816  0.95153  1.0000
  C   C384      1.0  0.15275  0.98306  0.88586  1.0000
  C   C385      1.0  0.05961  0.42363  0.95967  1.0000
  C   C386      1.0  0.04776  0.27573  0.66291  1.0000
  C   C387      1.0  0.02953  0.20874  0.82586  1.0000
  S   S130      1.0  0.06067  0.98914  0.90025  1.0000
  C   C388      1.0  0.19124  0.13417  0.92322  1.0000
  Fe  Fe67      1.0  0.15561  0.07188  0.93529  1.0000
  S   S131      1.0  0.11973  0.03987  0.90948  1.0000
  H   H378      1.0  0.13292  0.27143  0.87813  1.0000
  H   H379      1.0  0.00116  0.14636  0.66058  1.0000
  C   C389      1.0  0.98977  0.17196  0.71295  1.0000
  H   H380      1.0  0.03980  0.10822  0.84845  1.0000
  H   H381      1.0  0.16188  0.21338  0.68475  1.0000
  S   S132      1.0  0.07504  0.43922  0.69588  1.0000
  H   H382      1.0  0.12552  0.39080  0.66784  1.0000
  H   H383      1.0  0.14142  0.00659  0.89849  1.0000
  S   S133      1.0  0.10595  0.27503  0.65734  1.0000
  H   H384      1.0  0.12911  0.34956  0.64137  1.0000
  C   C390      1.0  0.12635  0.25986  0.88669  1.0000
  C   C391      1.0  0.06264  0.22628  0.65030  1.0000
  C   C392      1.0  0.06096  0.30202  0.64598  1.0000
  H   H385      1.0  0.02313  0.20988  0.83997  1.0000
  H   H386      1.0  0.06124  0.42637  0.89349  1.0000
  S   S134      1.0  0.22767  0.24863  0.68724  1.0000
  H   H387      1.0  0.00738  0.38378  0.96660  1.0000
  C   C393      1.0  0.06575  0.45849  0.72359  1.0000
  C   C394      1.0  0.10703  0.33542  0.65644  1.0000
  S   S135      1.0  0.10650  0.43349  0.64961  1.0000
  H   H388      1.0  0.09123  0.04073  0.94350  1.0000
  H   H389      1.0  0.07984  0.44123  0.86475  1.0000
  H   H390      1.0  0.11597  0.32202  0.65826  1.0000
  H   H391      1.0  0.01416  0.40562  0.96082  1.0000
  C   C395      1.0  0.10301  0.36849  0.64508  1.0000
  S   S136      1.0  0.04867  0.45230  0.80852  1.0000
  H   H392      1.0  0.21702  0.20583  0.69345  1.0000
  C   C396      1.0  0.05596  0.29018  0.66259  1.0000
  C   C397      1.0  0.03527  0.44057  0.88603  1.0000
  H   H393      1.0  0.05432  0.21889  0.66203  1.0000
  H   H394      1.0  0.00913  0.46118  0.82298  1.0000
  H   H395      1.0  0.22533  0.23714  0.65500  1.0000
  H   H396      1.0  0.00685  0.18643  0.84221  1.0000
  H   H397      1.0  0.01176  0.45625  0.87454  1.0000
  H   H398      1.0  0.00673  0.05586  0.89880  1.0000
  S   S137      1.0  0.11299  0.38791  0.63509  1.0000
  H   H399      1.0  0.00402  0.05751  0.87563  1.0000
  C   C398      1.0  0.99222  0.17090  0.64151  1.0000
  H   H400      1.0  0.06748  0.31322  0.64565  1.0000
  C   C399      1.0  0.03752  0.46168  0.85676  1.0000
  H   H401      1.0  0.00738  0.97988  0.65162  1.0000
  S   S138      1.0  0.22901  0.12870  0.91765  1.0000
  C   C400      1.0  0.06380  0.39153  0.95880  1.0000
  C   C401      1.0  0.98985  0.15458  0.65419  1.0000
  N   N34       1.0  0.05638  0.45742  0.85409  1.0000
  C   C402      1.0  0.98703  0.99292  0.69233  1.0000
  C   C403      1.0  0.18143  0.98438  0.86385  1.0000
  C   C404      1.0  0.19960  0.07727  0.96689  1.0000
  C   C405      1.0  0.08647  0.24432  0.63777  1.0000
  H   H402      1.0  0.23118  0.00800  0.87720  1.0000
  C   C406      1.0  0.04601  0.97601  0.83340  1.0000
  H   H403      1.0  0.16389  0.45299  0.64307  1.0000
  H   H404      1.0  0.23353  0.21899  0.95482  1.0000
  C   C407      1.0  0.19832  0.97474  0.90422  1.0000
  Fe  Fe68      1.0  0.22707  0.18252  0.94638  1.0000
  H   H405      1.0  0.04941  0.97573  0.94173  1.0000
  H   H406      1.0  0.14171  0.97588  0.89344  1.0000
  H   H407      1.0  0.05923  0.47362  0.74546  1.0000
  H   H408      1.0  0.22923  0.07332  0.96190  1.0000
  H   H409      1.0  0.19955  0.06306  0.96720  1.0000
  H   H410      1.0  0.23506  0.97803  0.86853  1.0000
  Fe  Fe69      1.0  0.06109  0.94317  0.13336  1.0000
  S   S139      1.0  0.08567  0.92283  0.12305  1.0000
  S   S140      1.0  0.03843  0.95722  0.11752  1.0000
  Fe  Fe70      1.0  0.07076  0.93528  0.17121  1.0000
  S   S141      1.0  0.09590  0.91383  0.16390  1.0000
  H   H411      1.0  0.19265  0.76406  0.12136  1.0000
  Fe  Fe71      1.0  0.10101  0.93441  0.13746  1.0000
  S   S142      1.0  0.13022  0.93761  0.12380  1.0000
  Fe  Fe72      1.0  0.07826  0.90427  0.15018  1.0000
  S   S143      1.0  0.07438  0.87635  0.14905  1.0000
  C   C408      1.0  0.02985  0.96170  0.00236  1.0000
  S   S144      1.0  0.05267  0.92396  0.15971  1.0000
  Fe  Fe73      1.0  0.00942  0.91339  0.05215  1.0000
  S   S145      1.0  0.01032  0.90457  0.02614  1.0000
  S   S146      1.0  0.03676  0.91415  0.05772  1.0000
  H   H412      1.0  0.23426  0.75417  0.09327  1.0000
  H   H413      1.0  0.01412  0.75672  0.02640  1.0000
  H   H414      1.0  0.02978  0.87375  0.97781  1.0000
  C   C409      1.0  0.98567  0.66248  0.15182  1.0000
  C   C410      1.0  0.98856  0.49774  0.19449  1.0000
  S   S147      1.0  0.21963  0.67553  0.04399  1.0000
  Fe  Fe74      1.0  0.10905  0.59744  0.98648  1.0000
  C   C411      1.0  0.01189  0.89927  0.11039  1.0000
  N   N35       1.0  0.13900  0.97174  0.17016  1.0000
  S   S148      1.0  0.18733  0.64077  0.04648  1.0000
  H   H415      1.0  0.13251  0.64685  0.02310  1.0000
  C   C412      1.0  0.00710  0.64244  0.10101  1.0000
  H   H416      1.0  0.08773  0.81847  0.21849  1.0000
  Fe  Fe75      1.0  0.09593  0.75662  0.17011  1.0000
  S   S149      1.0  0.11048  0.72915  0.18309  1.0000
  S   S150      1.0  0.07343  0.76006  0.15464  1.0000
  Fe  Fe76      1.0  0.11479  0.77762  0.18610  1.0000
  S   S151      1.0  0.13098  0.75194  0.20040  1.0000
  S   S152      1.0  0.11886  0.80391  0.19102  1.0000
  Fe  Fe77      1.0  0.13550  0.74206  0.17423  1.0000
  S   S153      1.0  0.16330  0.72601  0.16314  1.0000
  Fe  Fe78      1.0  0.10471  0.74142  0.20810  1.0000
  S   S154      1.0  0.09502  0.72494  0.23606  1.0000
  S   S155      1.0  0.12152  0.76871  0.15900  1.0000
  S   S156      1.0  0.08795  0.76792  0.19602  1.0000
  C   C413      1.0  0.03029  0.89109  0.10444  1.0000
  Fe  Fe79      1.0  0.11273  0.59342  0.02590  1.0000
  S   S157      1.0  0.10251  0.60096  0.05375  1.0000
  S   S158      1.0  0.14085  0.57555  0.02143  1.0000
  Fe  Fe80      1.0  0.05105  0.70086  0.10224  1.0000
  S   S159      1.0  0.04359  0.67324  0.10783  1.0000
  S   S160      1.0  0.07863  0.70127  0.10756  1.0000
  Fe  Fe81      1.0  0.01500  0.72075  0.09026  1.0000
  C   C414      1.0  0.01539  0.62998  0.13129  1.0000
  C   C415      1.0  0.20458  0.59361  0.06174  1.0000
  Fe  Fe82      1.0  0.01580  0.68708  0.12115  1.0000
  N   N36       1.0  0.00491  0.63018  0.11911  1.0000
  Fe  Fe83      1.0  0.03288  0.68332  0.08176  1.0000
  S   S161      1.0  0.03555  0.66817  0.05941  1.0000
  S   S162      1.0  0.02391  0.71414  0.11738  1.0000
  S   S163      1.0  0.04300  0.70972  0.07472  1.0000
  H   H417      1.0  0.02322  0.96877  0.20065  1.0000
  C   C416      1.0  0.10132  0.66408  0.05618  1.0000
  C   C417      1.0  0.18406  0.74252  0.21113  1.0000
  H   H418      1.0  0.13060  0.92457  0.16844  1.0000
  H   H419      1.0  0.22646  0.71991  0.09665  1.0000
  H   H420      1.0  0.07764  0.97099  0.18213  1.0000
  H   H421      1.0  0.99566  0.65463  0.10098  1.0000
  C   C418      1.0  0.14397  0.72240  0.24072  1.0000
  C   C419      1.0  0.08543  0.49653  0.05764  1.0000
  C   C420      1.0  0.15640  0.70710  0.21504  1.0000
  C   C421      1.0  0.15337  0.49308  0.98462  1.0000
  H   H422      1.0  0.15571  0.69749  0.20708  1.0000
  H   H423      1.0  0.99206  0.96986  0.22105  1.0000
  S   S164      1.0  0.13710  0.53067  0.01126  1.0000
  C   C422      1.0  0.19420  0.63400  0.01135  1.0000
  H   H424      1.0  0.98857  0.51213  0.19340  1.0000
  C   C423      1.0  0.07207  0.97179  0.19641  1.0000
  H   H425      1.0  0.03812  0.49479  0.04495  1.0000
  C   C424      1.0  0.13310  0.93762  0.16935  1.0000
  N   N37       1.0  0.21120  0.74259  0.10898  1.0000
  H   H426      1.0  0.16803  0.72259  0.11397  1.0000
  S   S165      1.0  0.00426  0.69483  0.09547  1.0000
  C   C425      1.0  0.01312  0.61861  0.14873  1.0000
  H   H427      1.0  0.15767  0.74350  0.24127  1.0000
  N   N38       1.0  0.00397  0.89250  0.98023  1.0000
  H   H428      1.0  0.02113  0.61882  0.15851  1.0000
  H   H429      1.0  0.16475  0.94877  0.10816  1.0000
  H   H430      1.0  0.16490  0.75159  0.12433  1.0000
  H   H431      1.0  0.13231  0.70166  0.23573  1.0000
  H   H432      1.0  0.00708  0.63524  0.09010  1.0000
  N   N39       1.0  0.17052  0.73053  0.21837  1.0000
  Fe  Fe84      1.0  0.12889  0.56161  0.00600  1.0000
  S   S166      1.0  0.10006  0.57786  0.01269  1.0000
  C   C426      1.0  0.98906  0.60812  0.14137  1.0000
  H   H433      1.0  0.18845  0.48338  0.99783  1.0000
  H   H434      1.0  0.06654  0.50618  0.03916  1.0000
  C   C427      1.0  0.08354  0.61923  0.05532  1.0000
  C   C428      1.0  0.07490  0.62742  0.04041  1.0000
  C   C429      1.0  0.05999  0.64232  0.04186  1.0000
  C   C430      1.0  0.05385  0.64918  0.05812  1.0000
  C   C431      1.0  0.06248  0.64095  0.07304  1.0000
  C   C432      1.0  0.07729  0.62598  0.07164  1.0000
  H   H435      1.0  0.07962  0.62219  0.02780  1.0000
  H   H436      1.0  0.05330  0.64858  0.03030  1.0000
  H   H437      1.0  0.05777  0.64601  0.08567  1.0000
  H   H438      1.0  0.08397  0.61962  0.08320  1.0000
  C   C433      1.0  0.07613  0.74466  0.14013  1.0000
  C   C434      1.0  0.06176  0.74588  0.13129  1.0000
  C   C435      1.0  0.06268  0.73285  0.12095  1.0000
  C   C436      1.0  0.07796  0.71846  0.11939  1.0000
  C   C437      1.0  0.09260  0.71747  0.12783  1.0000
  C   C438      1.0  0.09168  0.73054  0.13822  1.0000
  H   H439      1.0  0.04978  0.75686  0.13262  1.0000
  H   H440      1.0  0.05162  0.73411  0.11402  1.0000
  H   H441      1.0  0.10453  0.70644  0.12656  1.0000
  H   H442      1.0  0.10287  0.72956  0.14494  1.0000
  S   S167      1.0  0.11906  0.61451  0.00047  1.0000
  H   H443      1.0  0.20286  0.71506  0.15413  1.0000
  C   C439      1.0  0.00764  0.91003  0.12370  1.0000
  H   H444      1.0  0.00137  0.68684  0.04446  1.0000
  C   C440      1.0  0.17427  0.48448  0.00632  1.0000
  C   C441      1.0  0.09684  0.49650  0.00899  1.0000
  C   C442      1.0  0.11167  0.48863  0.01783  1.0000
  C   C443      1.0  0.12323  0.49953  0.01941  1.0000
  C   C444      1.0  0.12050  0.51827  0.01152  1.0000
  C   C445      1.0  0.10554  0.52629  0.00284  1.0000
  C   C446      1.0  0.09366  0.51541  0.00167  1.0000
  H   H445      1.0  0.13462  0.49330  0.02636  1.0000
  S   S168      1.0  0.00097  0.74895  0.07773  1.0000
  H   H446      1.0  0.08147  0.71451  0.27479  1.0000
  H   H447      1.0  0.01367  0.49325  0.17431  1.0000
  C   C447      1.0  0.19754  0.71945  0.10436  1.0000
  C   C448      1.0  0.13187  0.67208  0.06359  1.0000
  H   H448      1.0  0.01725  0.87360  0.00096  1.0000
  C   C449      1.0  0.19413  0.75171  0.11621  1.0000
  C   C450      1.0  0.20952  0.75532  0.16015  1.0000
  H   H449      1.0  0.13362  0.72455  0.25301  1.0000
  H   H450      1.0  0.99352  0.75109  0.01026  1.0000
  C   C451      1.0  0.09869  0.75998  0.26611  1.0000
  C   C452      1.0  0.09985  0.75183  0.25128  1.0000
  C   C453      1.0  0.09363  0.73542  0.25440  1.0000
  C   C454      1.0  0.08632  0.72718  0.27236  1.0000
  H   H451      1.0  0.07865  0.80603  0.20729  1.0000
  H   H452      1.0  0.10339  0.77275  0.26365  1.0000
  H   H453      1.0  0.10548  0.75828  0.23745  1.0000
  H   H454      1.0  0.03357  0.88322  0.09368  1.0000
  C   C455      1.0  0.18104  0.73745  0.16163  1.0000
  H   H455      1.0  0.01874  0.92105  0.14099  1.0000
  H   H456      1.0  0.19561  0.73708  0.20052  1.0000
  C   C456      1.0  0.00135  0.94142  0.97704  1.0000
  C   C457      1.0  0.18318  0.63203  0.02903  1.0000
  C   C458      1.0  0.16482  0.61555  0.01955  1.0000
  C   C459      1.0  0.16848  0.62280  0.03306  1.0000
  H   H457      1.0  0.15350  0.60839  0.02287  1.0000
  H   H458      1.0  0.16001  0.62103  0.04676  1.0000
  S   S169      1.0  0.13705  0.58003  0.97873  1.0000
  C   C460      1.0  0.12114  0.64435  0.03516  1.0000
  H   H459      1.0  0.16525  0.96442  0.15290  1.0000
  H   H460      1.0  0.08215  0.52163  0.99485  1.0000
  C   C461      1.0  0.17596  0.61733  0.00193  1.0000
  H   H461      1.0  0.06408  0.82598  0.21547  1.0000
  C   C462      1.0  0.19059  0.62666  0.99783  1.0000
  H   H462      1.0  0.16016  0.93405  0.15203  1.0000
  C   C463      1.0  0.17008  0.71771  0.20894  1.0000
  C   C464      1.0  0.19955  0.72876  0.15700  1.0000
  Fe  Fe85      1.0  0.98602  0.92743  0.02329  1.0000
  S   S170      1.0  0.17217  0.60728  0.98525  1.0000
  C   C465      1.0  0.21380  0.73773  0.15616  1.0000
  H   H463      1.0  0.08929  0.66101  0.05338  1.0000
  H   H464      1.0  0.19916  0.70671  0.09981  1.0000
  H   H465      1.0  0.00111  0.89772  0.10434  1.0000
  H   H466      1.0  0.10336  0.54078  0.99669  1.0000
  C   C466      1.0  0.08492  0.73548  0.28718  1.0000
  H   H467      1.0  0.07672  0.81791  0.25156  1.0000
  C   C467      1.0  0.98719  0.89454  0.99202  1.0000
  C   C468      1.0  0.11946  0.94942  0.17912  1.0000
  C   C469      1.0  0.13385  0.66078  0.05116  1.0000
  S   S171      1.0  0.99122  0.89394  0.06941  1.0000
  H   H468      1.0  0.15507  0.50719  0.98215  1.0000
  H   H469      1.0  0.12445  0.62992  0.04265  1.0000
  S   S172      1.0  0.99314  0.85944  0.03697  1.0000
  S   S173      1.0  0.00466  0.67256  0.14959  1.0000
  H   H470      1.0  0.02525  0.63895  0.12778  1.0000
  S   S174      1.0  0.06036  0.93934  0.20047  1.0000
  C   C470      1.0  0.14328  0.70948  0.23105  1.0000
  C   C471      1.0  0.17834  0.74475  0.11788  1.0000
  H   H471      1.0  0.14764  0.65512  0.04443  1.0000
  C   C472      1.0  0.99545  0.73694  0.01765  1.0000
  C   C473      1.0  0.08718  0.85644  0.16057  1.0000
  C   C474      1.0  0.08529  0.83924  0.15889  1.0000
  C   C475      1.0  0.09521  0.82305  0.16797  1.0000
  C   C476      1.0  0.10702  0.82402  0.17883  1.0000
  C   C477      1.0  0.10884  0.84121  0.18062  1.0000
  C   C478      1.0  0.09897  0.85743  0.17146  1.0000
  H   H472      1.0  0.07617  0.83842  0.15049  1.0000
  H   H473      1.0  0.09369  0.80984  0.16656  1.0000
  H   H474      1.0  0.11794  0.84200  0.18906  1.0000
  H   H475      1.0  0.10047  0.87065  0.17282  1.0000
  C   C479      1.0  0.03820  0.94704  0.09936  1.0000
  C   C480      1.0  0.02142  0.94803  0.09441  1.0000
  C   C481      1.0  0.02081  0.93841  0.08122  1.0000
  C   C482      1.0  0.03705  0.92802  0.07275  1.0000
  C   C483      1.0  0.05389  0.92779  0.07704  1.0000
  C   C484      1.0  0.05446  0.93721  0.09033  1.0000
  H   H476      1.0  0.98859  0.83338  0.01800  1.0000
  H   H477      1.0  0.00775  0.93871  0.07794  1.0000
  H   H478      1.0  0.06653  0.92002  0.07032  1.0000
  H   H479      1.0  0.06752  0.93696  0.09349  1.0000
  H   H480      1.0  0.18767  0.77763  0.16769  1.0000
  N   N40       1.0  0.04404  0.89366  0.11148  1.0000
  S   S175      1.0  0.08185  0.48303  0.00748  1.0000
  C   C485      1.0  0.03992  0.90386  0.12481  1.0000
  H   H481      1.0  0.08505  0.68106  0.07559  1.0000
  C   C486      1.0  0.02172  0.91231  0.13102  1.0000
  C   C487      1.0  0.17681  0.75512  0.16532  1.0000
  C   C488      1.0  0.06324  0.88498  0.10513  1.0000
  C   C489      1.0  0.09101  0.75196  0.28406  1.0000
  H   H482      1.0  0.05080  0.90596  0.13031  1.0000
  H   H483      1.0  0.10639  0.94542  0.18620  1.0000
  C   C490      1.0  0.00257  0.48717  0.18371  1.0000
  H   H484      1.0  0.04879  0.94875  0.23568  1.0000
  H   H485      1.0  0.06585  0.88409  0.09042  1.0000
  H   H486      1.0  0.07295  0.89311  0.10633  1.0000
  H   H487      1.0  0.06639  0.87105  0.11370  1.0000
  H   H488      1.0  0.18005  0.71589  0.19637  1.0000
  C   C491      1.0  0.99169  0.61965  0.12404  1.0000
  C   C492      1.0  0.04549  0.48087  0.05048  1.0000
  N   N41       1.0  0.00858  0.73026  0.02824  1.0000
  H   H489      1.0  0.02152  0.70700  0.04568  1.0000
  H   H490      1.0  0.98602  0.79188  0.09392  1.0000
  C   C493      1.0  0.11422  0.67945  0.07241  1.0000
  C   C494      1.0  0.09092  0.48274  0.07205  1.0000
  H   H491      1.0  0.00881  0.95576  0.10122  1.0000
  C   C495      1.0  0.18012  0.72840  0.11215  1.0000
  C   C496      1.0  0.20577  0.58746  0.03149  1.0000
  C   C497      1.0  0.15765  0.73301  0.23405  1.0000
  H   H492      1.0  0.14400  0.67500  0.06640  1.0000
  N   N42       1.0  0.04843  0.69627  0.16163  1.0000
  C   C498      1.0  0.03091  0.70661  0.16390  1.0000
  C   C499      1.0  0.06212  0.70101  0.16700  1.0000
  C   C500      1.0  0.02697  0.72264  0.17094  1.0000
  C   C501      1.0  0.05856  0.71673  0.17444  1.0000
  C   C502      1.0  0.04096  0.72777  0.17610  1.0000
  C   C503      1.0  0.05251  0.67960  0.15409  1.0000
  H   H493      1.0  0.01992  0.70259  0.16007  1.0000
  H   H494      1.0  0.07602  0.69287  0.16514  1.0000
  H   H495      1.0  0.01322  0.73109  0.17223  1.0000
  H   H496      1.0  0.06957  0.72080  0.17817  1.0000
  H   H497      1.0  0.03834  0.74042  0.18109  1.0000
  H   H498      1.0  0.05313  0.66731  0.16536  1.0000
  H   H499      1.0  0.04177  0.67952  0.14666  1.0000
  H   H500      1.0  0.06586  0.67874  0.14400  1.0000
  H   H501      1.0  0.10845  0.64592  0.02983  1.0000
  H   H502      1.0  0.22470  0.76109  0.11519  1.0000
  H   H503      1.0  0.99353  0.91692  0.12802  1.0000
  N   N43       1.0  0.11868  0.65695  0.04756  1.0000
  C   C504      1.0  0.21299  0.72689  0.10274  1.0000
  H   H504      1.0  0.11243  0.68821  0.08215  1.0000
  H   H505      1.0  0.10288  0.48292  0.07718  1.0000
  N   N44       1.0  0.16208  0.47975  0.99692  1.0000
  C   C505      1.0  0.02065  0.88264  0.98727  1.0000
  H   H506      1.0  0.02829  0.89265  0.98866  1.0000
  S   S176      1.0  0.07694  0.95658  0.14570  1.0000
  C   C506      1.0  0.01090  0.71242  0.03756  1.0000
  H   H507      1.0  0.20827  0.60469  0.06628  1.0000
  N   N45       1.0  0.06071  0.48191  0.05839  1.0000
  H   H508      1.0  0.20538  0.64133  0.00800  1.0000
  N   N46       1.0  0.06878  0.80231  0.23642  1.0000
  C   C507      1.0  0.06080  0.78791  0.23723  1.0000
  C   C508      1.0  0.07031  0.80656  0.25221  1.0000
  C   C509      1.0  0.05445  0.77709  0.25418  1.0000
  C   C510      1.0  0.06396  0.79613  0.26940  1.0000
  C   C511      1.0  0.05596  0.78132  0.27034  1.0000
  C   C512      1.0  0.07501  0.81377  0.21861  1.0000
  H   H509      1.0  0.05951  0.78457  0.22474  1.0000
  H   H510      1.0  0.22805  0.73090  0.15285  1.0000
  H   H511      1.0  0.04878  0.76525  0.25476  1.0000
  H   H512      1.0  0.03311  0.95300  0.01514  1.0000
  Fe  Fe86      1.0  0.98966  0.88762  0.04290  1.0000
  C   C513      1.0  0.06317  0.95804  0.20816  1.0000
  C   C514      1.0  0.09882  0.67544  0.06870  1.0000
  H   H513      1.0  0.18935  0.59720  0.06292  1.0000
  C   C515      1.0  0.19103  0.76399  0.16465  1.0000
  H   H514      1.0  0.19921  0.62816  0.98419  1.0000
  C   C516      1.0  0.22779  0.74951  0.10787  1.0000
  C   C517      1.0  0.02083  0.74196  0.02897  1.0000
  H   H515      1.0  0.17724  0.75634  0.20463  1.0000
  C   C518      1.0  0.15518  0.96013  0.11348  1.0000
  Fe  Fe87      1.0  0.14630  0.59551  0.99496  1.0000
  H   H516      1.0  0.99774  0.59901  0.16737  1.0000
  H   H517      1.0  0.16257  0.76200  0.16875  1.0000
  C   C519      1.0  0.14979  0.94290  0.16021  1.0000
  H   H518      1.0  0.19020  0.74394  0.22227  1.0000
  Fe  Fe88      1.0  0.21527  0.64807  0.04246  1.0000
  H   H519      1.0  0.02190  0.92902  0.99358  1.0000
  H   H520      1.0  0.05164  0.77274  0.28358  1.0000
  S   S177      1.0  0.98643  0.93780  0.04815  1.0000
  H   H521      1.0  0.20765  0.58321  0.00422  1.0000
  S   S178      1.0  0.22683  0.76657  0.16040  1.0000
  C   C520      1.0  0.01930  0.93351  0.97983  1.0000
  H   H522      1.0  0.20835  0.58032  0.07110  1.0000
  H   H523      1.0  0.02421  0.73888  0.04286  1.0000
  S   S179      1.0  0.23234  0.63294  0.06346  1.0000
  C   C521      1.0  0.05565  0.95937  0.22654  1.0000
  N   N47       1.0  0.21412  0.59253  0.04278  1.0000
  H   H524      1.0  0.03381  0.73974  0.01859  1.0000
  C   C522      1.0  0.99992  0.60756  0.15374  1.0000
  H   H525      1.0  0.98752  0.64708  0.17918  1.0000
  C   C523      1.0  0.07030  0.49579  0.05082  1.0000
  H   H526      1.0  0.06581  0.79902  0.28191  1.0000
  C   C524      1.0  0.13683  0.95857  0.12145  1.0000
  C   C525      1.0  0.21466  0.58650  0.01333  1.0000
  C   C526      1.0  0.98581  0.70776  0.02649  1.0000
  H   H527      1.0  0.16916  0.49872  0.00889  1.0000
  H   H528      1.0  0.02041  0.64725  0.09725  1.0000
  H   H529      1.0  0.19193  0.58464  0.03631  1.0000
  H   H530      1.0  0.09311  0.50748  0.05142  1.0000
  C   C527      1.0  0.12268  0.96655  0.17939  1.0000
  C   C528      1.0  0.99953  0.70093  0.03689  1.0000
  H   H531      1.0  0.98603  0.88871  0.00656  1.0000
  H   H532      1.0  0.00061  0.96822  0.01335  1.0000
  H   H533      1.0  0.98597  0.77695  0.04986  1.0000
  H   H534      1.0  0.05784  0.95711  0.98737  1.0000
  H   H535      1.0  0.11039  0.97215  0.13456  1.0000
  C   C529      1.0  0.04375  0.96402  0.98660  1.0000
  C   C530      1.0  0.14113  0.48898  0.97605  1.0000
  C   C531      1.0  0.01164  0.97034  0.00142  1.0000
  C   C532      1.0  0.15252  0.96014  0.16070  1.0000
  C   C533      1.0  0.23165  0.59589  0.03672  1.0000
  C   C534      1.0  0.12454  0.97324  0.12838  1.0000
  C   C535      1.0  0.23231  0.59050  0.00685  1.0000
  H   H536      1.0  0.11443  0.47411  0.02332  1.0000
  H   H537      1.0  0.17468  0.47526  0.02000  1.0000
  H   H538      1.0  0.07875  0.72936  0.30093  1.0000
  C   C536      1.0  0.17102  0.88063  0.57321  1.0000
  S   S180      1.0  0.09019  0.71642  0.33771  1.0000
  Fe  Fe89      1.0  0.06657  0.75055  0.37050  1.0000
  S   S181      1.0  0.07387  0.72010  0.38069  1.0000
  S   S182      1.0  0.05158  0.76785  0.39183  1.0000
  Fe  Fe90      1.0  0.10066  0.72132  0.36059  1.0000
  S   S183      1.0  0.12726  0.70281  0.36704  1.0000
  Fe  Fe91      1.0  0.06275  0.71754  0.35721  1.0000
  S   S184      1.0  0.04722  0.69444  0.36325  1.0000
  S   S185      1.0  0.09448  0.75203  0.35224  1.0000
  C   C537      1.0  0.02989  0.69556  0.35136  1.0000
  C   C538      1.0  0.19573  0.85554  0.56791  1.0000
  C   C539      1.0  0.00889  0.67997  0.34460  1.0000
  S   S186      1.0  0.17484  0.93388  0.58489  1.0000
  C   C540      1.0  0.05997  0.64154  0.35127  1.0000
  Fe  Fe92      1.0  0.04802  0.86752  0.39858  1.0000
  S   S187      1.0  0.02735  0.89011  0.38601  1.0000
  S   S188      1.0  0.06442  0.84891  0.37906  1.0000
  Fe  Fe93      1.0  0.04077  0.88360  0.43288  1.0000
  S   S189      1.0  0.01957  0.90751  0.42290  1.0000
  S   S190      1.0  0.04694  0.88000  0.46106  1.0000
  Fe  Fe94      1.0  0.00943  0.88661  0.41411  1.0000
  H   H539      1.0  0.05226  0.69327  0.30859  1.0000
  Fe  Fe95      1.0  0.03931  0.90891  0.39576  1.0000
  S   S191      1.0  0.04682  0.93545  0.37862  1.0000
  S   S192      1.0  0.02906  0.86230  0.42617  1.0000
  S   S193      1.0  0.06154  0.88664  0.40632  1.0000
  H   H540      1.0  0.08635  0.71494  0.43202  1.0000
  S   S194      1.0  0.22747  0.91886  0.55975  1.0000
  H   H541      1.0  0.07225  0.88494  0.36015  1.0000
  S   S195      1.0  0.00434  0.64627  0.30418  1.0000
  H   H542      1.0  0.22422  0.48393  0.36242  1.0000
  H   H543      1.0  0.13809  0.50292  0.59594  1.0000
  H   H544      1.0  0.18348  0.61975  0.48838  1.0000
  H   H545      1.0  0.00626  0.93700  0.33754  1.0000
  H   H546      1.0  0.05441  0.53758  0.32353  1.0000
  H   H547      1.0  0.01187  0.91625  0.57049  1.0000
  S   S196      1.0  0.01687  0.60519  0.34048  1.0000
  H   H548      1.0  0.01344  0.93819  0.55595  1.0000
  S   S197      1.0  0.20729  0.88714  0.58977  1.0000
  H   H549      1.0  0.04916  0.92600  0.30639  1.0000
  C   C541      1.0  0.22286  0.62602  0.45725  1.0000
  S   S198      1.0  0.21254  0.50153  0.58358  1.0000
  C   C542      1.0  0.02382  0.55656  0.37595  1.0000
  H   H550      1.0  0.12764  0.70202  0.43928  1.0000
  H   H551      1.0  0.01684  0.85933  0.47694  1.0000
  Fe  Fe96      1.0  0.07341  0.94860  0.50565  1.0000
  C   C543      1.0  0.00591  0.55321  0.38255  1.0000
  S   S199      1.0  0.06764  0.94837  0.47818  1.0000
  Fe  Fe97      1.0  0.10418  0.94035  0.52722  1.0000
  S   S200      1.0  0.08604  0.95380  0.55011  1.0000
  S   S201      1.0  0.13467  0.92806  0.52421  1.0000
  Fe  Fe98      1.0  0.06475  0.93963  0.54732  1.0000
  S   S202      1.0  0.04736  0.92440  0.57172  1.0000
  H   H552      1.0  0.14822  0.48981  0.43468  1.0000
  H   H553      1.0  0.12232  0.96600  0.53940  1.0000
  S   S203      1.0  0.08373  0.92421  0.52615  1.0000
  H   H554      1.0  0.16837  0.51156  0.41675  1.0000
  C   C544      1.0  0.18834  0.58685  0.48044  1.0000
  H   H555      1.0  0.08253  0.93124  0.34781  1.0000
  H   H556      1.0  0.00849  0.72224  0.31705  1.0000
  Fe  Fe99      1.0  0.06852  0.50097  0.40091  1.0000
  S   S204      1.0  0.09354  0.51350  0.39646  1.0000
  S   S205      1.0  0.04312  0.50344  0.42335  1.0000
  N   N48       1.0  0.11154  0.69791  0.42207  1.0000
  H   H557      1.0  0.11923  0.53017  0.52788  1.0000
  H   H558      1.0  0.19115  0.67769  0.36742  1.0000
  Fe  Fe100     1.0  0.19582  0.70675  0.42139  1.0000
  H   H559      1.0  0.01350  0.79515  0.38795  1.0000
  S   S206      1.0  0.16666  0.72216  0.42105  1.0000
  C   C545      1.0  0.13996  0.49328  0.39278  1.0000
  Fe  Fe101     1.0  0.22753  0.69294  0.44169  1.0000
  C   C546      1.0  0.08509  0.91606  0.34951  1.0000
  S   S207      1.0  0.20358  0.68074  0.44153  1.0000
  S   S208      1.0  0.09555  0.96361  0.50480  1.0000
  H   H560      1.0  0.14762  0.67120  0.44032  1.0000
  C   C547      1.0  0.21577  0.59651  0.45927  1.0000
  C   C548      1.0  0.00993  0.50500  0.35900  1.0000
  Fe  Fe102     1.0  0.20267  0.50083  0.61377  1.0000
  C   C549      1.0  0.14923  0.49392  0.41992  1.0000
  C   C550      1.0  0.06727  0.89398  0.34831  1.0000
  H   H561      1.0  0.13503  0.52382  0.55406  1.0000
  C   C551      1.0  0.00422  0.69504  0.33087  1.0000
  Fe  Fe103     1.0  0.20512  0.53209  0.58106  1.0000
  S   S209      1.0  0.18856  0.54953  0.56008  1.0000
  C   C552      1.0  0.00377  0.92867  0.56298  1.0000
  S   S210      1.0  0.19308  0.53123  0.61121  1.0000
  Fe  Fe104     1.0  0.14950  0.53644  0.45355  1.0000
  S   S211      1.0  0.15718  0.55708  0.42797  1.0000
  S   S212      1.0  0.12398  0.52399  0.46194  1.0000
  Fe  Fe105     1.0  0.18509  0.53352  0.46636  1.0000
  S   S213      1.0  0.19591  0.55347  0.44159  1.0000
  S   S214      1.0  0.20282  0.51917  0.48720  1.0000
  Fe  Fe106     1.0  0.16701  0.56992  0.44613  1.0000
  S   S215      1.0  0.16031  0.60011  0.44690  1.0000
  Fe  Fe107     1.0  0.18527  0.53869  0.42576  1.0000
  S   S216      1.0  0.20050  0.53262  0.39792  1.0000
  S   S217      1.0  0.15685  0.55084  0.47212  1.0000
  S   S218      1.0  0.17693  0.51722  0.45022  1.0000
  C   C553      1.0  0.20703  0.50949  0.39572  1.0000
  C   C554      1.0  0.20694  0.49524  0.41118  1.0000
  C   C555      1.0  0.01207  0.58594  0.35755  1.0000
  H   H562      1.0  0.02511  0.66861  0.36555  1.0000
  N   N49       1.0  0.98810  0.93692  0.57586  1.0000
  C   C556      1.0  0.21309  0.50532  0.37813  1.0000
  H   H563      1.0  0.20270  0.49826  0.42478  1.0000
  C   C557      1.0  0.03992  0.53773  0.32952  1.0000
  H   H564      1.0  0.17725  0.88745  0.53651  1.0000
  H   H565      1.0  0.22282  0.50999  0.51625  1.0000
  C   C558      1.0  0.19329  0.54181  0.53933  1.0000
  C   C559      1.0  0.20829  0.52767  0.53538  1.0000
  C   C560      1.0  0.21129  0.52106  0.51915  1.0000
  C   C561      1.0  0.19943  0.52866  0.50673  1.0000
  C   C562      1.0  0.18455  0.54296  0.51057  1.0000
  C   C563      1.0  0.18150  0.54952  0.52684  1.0000
  S   S219      1.0  0.22490  0.64338  0.40916  1.0000
  H   H566      1.0  0.98825  0.86107  0.38814  1.0000
  H   H567      1.0  0.17522  0.54877  0.50120  1.0000
  H   H568      1.0  0.16984  0.56042  0.52990  1.0000
  H   H569      1.0  0.09961  0.91093  0.34311  1.0000
  C   C564      1.0  0.20609  0.63224  0.41827  1.0000
  C   C565      1.0  0.19022  0.64013  0.42957  1.0000
  C   C566      1.0  0.17611  0.63023  0.43810  1.0000
  C   C567      1.0  0.17771  0.61253  0.43520  1.0000
  C   C568      1.0  0.19333  0.60486  0.42347  1.0000
  C   C569      1.0  0.20751  0.61471  0.41504  1.0000
  H   H570      1.0  0.18897  0.65369  0.43202  1.0000
  H   H571      1.0  0.16409  0.63613  0.44727  1.0000
  H   H572      1.0  0.19449  0.59137  0.42089  1.0000
  H   H573      1.0  0.03457  0.63590  0.32334  1.0000
  C   C570      1.0  0.09956  0.51850  0.41517  1.0000
  C   C571      1.0  0.11297  0.52925  0.41155  1.0000
  C   C572      1.0  0.12001  0.53153  0.42590  1.0000
  C   C573      1.0  0.11377  0.52301  0.44401  1.0000
  C   C574      1.0  0.09983  0.51282  0.44775  1.0000
  C   C575      1.0  0.09268  0.51060  0.43336  1.0000
  H   H574      1.0  0.11826  0.53549  0.39753  1.0000
  H   H575      1.0  0.13056  0.53956  0.42284  1.0000
  H   H576      1.0  0.09480  0.50632  0.46176  1.0000
  H   H577      1.0  0.08230  0.50231  0.43629  1.0000
  C   C576      1.0  0.00718  0.95968  0.61042  1.0000
  C   C577      1.0  0.00821  0.94071  0.61406  1.0000
  C   C578      1.0  0.02091  0.92991  0.60234  1.0000
  C   C579      1.0  0.03262  0.93803  0.58692  1.0000
  C   C580      1.0  0.03181  0.95697  0.58341  1.0000
  H   H578      1.0  0.19021  0.57690  0.47145  1.0000
  C   C581      1.0  0.22054  0.66846  0.36340  1.0000
  H   H579      1.0  0.02157  0.91525  0.60515  1.0000
  H   H580      1.0  0.99836  0.48418  0.49050  1.0000
  C   C582      1.0  0.99379  0.84664  0.38780  1.0000
  Fe  Fe108     1.0  0.22148  0.67086  0.41643  1.0000
  C   C583      1.0  0.09943  0.71605  0.42182  1.0000
  H   H581      1.0  0.18436  0.50141  0.55195  1.0000
  S   S220      1.0  0.02621  0.48097  0.40172  1.0000
  S   S221      1.0  0.22090  0.91786  0.60422  1.0000
  H   H582      1.0  0.21972  0.60859  0.40622  1.0000
  Fe  Fe109     1.0  0.05269  0.48013  0.38096  1.0000
  C   C584      1.0  0.00771  0.80963  0.38784  1.0000
  H   H583      1.0  0.17513  0.84992  0.61317  1.0000
  H   H584      1.0  0.16288  0.89384  0.56820  1.0000
  S   S222      1.0  0.05272  0.96283  0.52673  1.0000
  H   H585      1.0  0.13579  0.51880  0.49926  1.0000
  C   C585      1.0  0.16029  0.49246  0.61082  1.0000
  C   C586      1.0  0.14387  0.49188  0.60602  1.0000
  C   C587      1.0  0.06653  0.92174  0.32602  1.0000
  C   C588      1.0  0.20441  0.68171  0.36172  1.0000
  H   H586      1.0  0.16718  0.50389  0.60443  1.0000
  H   H587      1.0  0.01966  0.48179  0.46035  1.0000
  H   H588      1.0  0.07621  0.68160  0.30416  1.0000
  H   H589      1.0  0.00751  0.89205  0.46279  1.0000
  C   C589      1.0  0.16703  0.87274  0.59192  1.0000
  H   H590      1.0  0.99829  0.56682  0.33402  1.0000
  S   S223      1.0  0.99060  0.97370  0.62417  1.0000
  C   C590      1.0  0.15138  0.50547  0.38232  1.0000
  H   H591      1.0  0.11449  0.51843  0.63299  1.0000
  N   N50       1.0  0.05852  0.66678  0.32542  1.0000
  C   C591      1.0  0.04898  0.63350  0.34480  1.0000
  C   C592      1.0  0.10872  0.68612  0.41272  1.0000
  C   C593      1.0  0.03411  0.52157  0.33971  1.0000
  H   H592      1.0  0.03535  0.54664  0.38045  1.0000
  H   H593      1.0  0.17051  0.52168  0.38316  1.0000
  Fe  Fe110     1.0  0.23214  0.88808  0.56696  1.0000
  C   C594      1.0  0.11163  0.89084  0.49232  1.0000
  H   H594      1.0  0.21975  0.65440  0.37035  1.0000
  C   C595      1.0  0.13655  0.67516  0.43274  1.0000
  S   S224      1.0  0.23038  0.50092  0.61855  1.0000
  H   H595      1.0  0.05500  0.96377  0.34738  1.0000
  H   H596      1.0  0.21140  0.61006  0.62675  1.0000
  H   H597      1.0  0.07309  0.66452  0.34653  1.0000
  C   C596      1.0  0.01808  0.82264  0.37704  1.0000
  H   H598      1.0  0.21759  0.52181  0.54482  1.0000
  H   H599      1.0  0.07075  0.93485  0.32027  1.0000
  C   C597      1.0  0.16066  0.50623  0.40989  1.0000
  C   C598      1.0  0.02152  0.68034  0.35496  1.0000
  C   C599      1.0  0.00315  0.53781  0.34592  1.0000
  H   H600      1.0  0.99925  0.93431  0.62587  1.0000
  H   H601      1.0  0.19163  0.57920  0.49393  1.0000
  C   C600      1.0  0.00841  0.55410  0.33539  1.0000
  H   H602      1.0  0.00280  0.66801  0.34726  1.0000
  C   C601      1.0  0.21298  0.47693  0.40905  1.0000
  C   C602      1.0  0.01697  0.94278  0.33963  1.0000
  C   C603      1.0  0.05531  0.88846  0.34055  1.0000
  C   C604      1.0  0.05200  0.89926  0.46603  1.0000
  C   C605      1.0  0.05477  0.89858  0.48364  1.0000
  C   C606      1.0  0.05909  0.91372  0.48776  1.0000
  C   C607      1.0  0.06074  0.92960  0.47423  1.0000
  C   C608      1.0  0.05789  0.93029  0.45667  1.0000
  C   C609      1.0  0.05352  0.91519  0.45257  1.0000
  H   H603      1.0  0.05360  0.88629  0.49411  1.0000
  H   H604      1.0  0.06134  0.91304  0.50132  1.0000
  H   H605      1.0  0.05918  0.94251  0.44613  1.0000
  H   H606      1.0  0.05147  0.91585  0.43895  1.0000
  S   S225      1.0  0.21213  0.69604  0.39638  1.0000
  H   H607      1.0  0.16392  0.49418  0.56680  1.0000
  C   C610      1.0  0.12515  0.69259  0.43211  1.0000
  C   C611      1.0  0.02511  0.71072  0.33774  1.0000
  N   N51       1.0  0.01595  0.52184  0.34799  1.0000
  C   C612      1.0  0.16175  0.51201  0.39099  1.0000
  H   H608      1.0  0.22205  0.72768  0.45789  1.0000
  C   C613      1.0  0.03786  0.94349  0.35852  1.0000
  C   C614      1.0  0.02404  0.93606  0.35575  1.0000
  S   S226      1.0  0.00203  0.53197  0.39660  1.0000
  C   C615      1.0  0.04441  0.95786  0.34524  1.0000
  H   H609      1.0  0.01844  0.92545  0.36615  1.0000
  H   H610      1.0  0.22585  0.75551  0.46630  1.0000
  N   N52       1.0  0.20013  0.60045  0.47216  1.0000
  Fe  Fe111     1.0  0.22601  0.88722  0.60800  1.0000
  C   C616      1.0  0.16390  0.93185  0.56809  1.0000
  C   C617      1.0  0.14462  0.93421  0.57173  1.0000
  C   C618      1.0  0.13556  0.93257  0.55854  1.0000
  C   C619      1.0  0.14571  0.92916  0.54140  1.0000
  C   C620      1.0  0.16501  0.92676  0.53777  1.0000
  C   C621      1.0  0.17411  0.92796  0.55113  1.0000
  C   C622      1.0  0.17775  0.85597  0.59861  1.0000
  H   H611      1.0  0.12073  0.93405  0.56165  1.0000
  H   H612      1.0  0.17295  0.92418  0.52451  1.0000
  H   H613      1.0  0.18899  0.92625  0.54820  1.0000
  C   C623      1.0  0.05666  0.78970  0.38891  1.0000
  C   C624      1.0  0.04843  0.80016  0.40256  1.0000
  C   C625      1.0  0.05097  0.81827  0.39987  1.0000
  C   C626      1.0  0.06188  0.82591  0.38356  1.0000
  C   C627      1.0  0.07046  0.81529  0.37012  1.0000
  C   C628      1.0  0.06782  0.79725  0.37275  1.0000
  H   H614      1.0  0.03982  0.79435  0.41510  1.0000
  H   H615      1.0  0.04438  0.82631  0.41034  1.0000
  H   H616      1.0  0.07898  0.82111  0.35751  1.0000
  H   H617      1.0  0.07418  0.78933  0.36214  1.0000
  C   C629      1.0  0.13882  0.70905  0.38094  1.0000
  C   C630      1.0  0.15364  0.69636  0.38735  1.0000
  C   C631      1.0  0.16262  0.70052  0.39923  1.0000
  C   C632      1.0  0.15666  0.71735  0.40493  1.0000
  C   C633      1.0  0.14193  0.73011  0.39842  1.0000
  C   C634      1.0  0.13312  0.72604  0.38630  1.0000
  H   H618      1.0  0.15782  0.68307  0.38349  1.0000
  H   H619      1.0  0.17365  0.69042  0.40456  1.0000
  H   H620      1.0  0.13730  0.74316  0.40280  1.0000
  H   H621      1.0  0.12176  0.73595  0.38132  1.0000
  Fe  Fe112     1.0  0.08177  0.74707  0.33083  1.0000
  H   H622      1.0  0.03149  0.72253  0.33491  1.0000
  H   H623      1.0  0.04493  0.62066  0.35245  1.0000
  H   H624      1.0  0.09612  0.72202  0.40796  1.0000
  C   C635      1.0  0.04871  0.90003  0.32542  1.0000
  H   H625      1.0  0.04428  0.50890  0.34127  1.0000
  C   C636      1.0  0.02688  0.57285  0.36348  1.0000
  H   H626      1.0  0.98885  0.53811  0.35285  1.0000
  H   H627      1.0  0.21918  0.58364  0.45455  1.0000
  N   N53       1.0  0.18524  0.87204  0.56148  1.0000
  H   H628      1.0  0.05116  0.87532  0.34640  1.0000
  H   H629      1.0  0.18426  0.71925  0.36587  1.0000
  H   H630      1.0  0.15433  0.97137  0.52844  1.0000
  H   H631      1.0  0.19760  0.89210  0.54121  1.0000
  C   C637      1.0  0.19218  0.84726  0.58653  1.0000
  N   N54       1.0  0.16010  0.50922  0.54031  1.0000
  C   C638      1.0  0.16918  0.50260  0.52474  1.0000
  C   C639      1.0  0.14231  0.51884  0.54160  1.0000
  C   C640      1.0  0.16061  0.50603  0.50975  1.0000
  C   C641      1.0  0.13329  0.52243  0.52689  1.0000
  C   C642      1.0  0.14255  0.51600  0.51085  1.0000
  S   S227      1.0  0.08764  0.76368  0.30200  1.0000
  S   S228      1.0  0.23315  0.53514  0.58294  1.0000
  C   C643      1.0  0.05441  0.91675  0.31802  1.0000
  S   S229      1.0  0.21821  0.71989  0.42371  1.0000
  H   H632      1.0  0.99413  0.83871  0.48536  1.0000
  C   C644      1.0  0.18992  0.88120  0.54221  1.0000
  C   C645      1.0  0.06372  0.68420  0.31502  1.0000
  H   H633      1.0  0.03916  0.89610  0.31944  1.0000
  C   C646      1.0  0.02695  0.55409  0.32740  1.0000
  H   H634      1.0  0.04084  0.57515  0.35822  1.0000
  H   H635      1.0  0.11097  0.87763  0.50149  1.0000
  C   C647      1.0  0.01216  0.71051  0.32761  1.0000
  H   H636      1.0  0.10617  0.72592  0.42492  1.0000
  H   H637      1.0  0.08284  0.91055  0.36460  1.0000
  C   C648      1.0  0.16911  0.50544  0.55603  1.0000
  H   H638      1.0  0.13668  0.93711  0.58488  1.0000
  H   H639      1.0  0.99293  0.85295  0.43486  1.0000
  H   H640      1.0  0.02177  0.49339  0.36084  1.0000
  C   C649      1.0  0.98642  0.95453  0.57787  1.0000
  H   H641      1.0  0.15604  0.87988  0.60121  1.0000
  H   H642      1.0  0.15193  0.51005  0.36767  1.0000
  S   S230      1.0  0.05321  0.74796  0.34845  1.0000
  H   H643      1.0  0.14270  0.64961  0.42331  1.0000
  C   C650      1.0  0.22212  0.70477  0.34717  1.0000
  N   N55       1.0  0.11229  0.92513  0.46941  1.0000
  C   C651      1.0  0.12000  0.92058  0.48463  1.0000
  C   C652      1.0  0.10472  0.91271  0.46511  1.0000
  C   C653      1.0  0.11979  0.90339  0.49631  1.0000
  C   C654      1.0  0.10412  0.89546  0.47657  1.0000
  H   H644      1.0  0.01963  0.85128  0.36980  1.0000
  C   C655      1.0  0.11271  0.94324  0.45740  1.0000
  H   H645      1.0  0.12612  0.93036  0.48801  1.0000
  H   H646      1.0  0.09850  0.91632  0.45311  1.0000
  H   H647      1.0  0.20344  0.64285  0.47502  1.0000
  H   H648      1.0  0.09746  0.88595  0.47343  1.0000
  H   H649      1.0  0.16639  0.51792  0.56199  1.0000
  H   H650      1.0  0.12660  0.94346  0.44849  1.0000
  H   H651      1.0  0.10218  0.94692  0.44866  1.0000
  H   H652      1.0  0.10915  0.95404  0.46575  1.0000
  C   C656      1.0  0.20704  0.62980  0.47061  1.0000
  Fe  Fe113     1.0  0.22185  0.53158  0.61336  1.0000
  Fe  Fe114     1.0  0.02763  0.51023  0.40027  1.0000
  C   C657      1.0  0.13386  0.66312  0.42312  1.0000
  H   H653      1.0  0.17350  0.59362  0.48236  1.0000
  H   H654      1.0  0.19892  0.87149  0.53351  1.0000
  C   C658      1.0  0.16736  0.47855  0.62440  1.0000
  N   N56       1.0  0.07246  0.91059  0.34123  1.0000
  C   C659      1.0  0.04791  0.65888  0.31887  1.0000
  H   H655      1.0  0.09812  0.69040  0.40454  1.0000
  Fe  Fe115     1.0  0.04418  0.47403  0.42256  1.0000
  H   H656      1.0  0.12556  0.90006  0.50860  1.0000
  H   H657      1.0  0.20085  0.83438  0.59159  1.0000
  C   C660      1.0  0.19579  0.61674  0.47803  1.0000
  Fe  Fe116     1.0  0.20393  0.91771  0.58408  1.0000
  H   H658      1.0  0.11789  0.65954  0.40517  1.0000
  C   C661      1.0  0.04305  0.64213  0.32844  1.0000
  C   C662      1.0  0.02350  0.95715  0.32636  1.0000
  H   H659      1.0  0.99886  0.92484  0.55226  1.0000
  H   H660      1.0  0.20713  0.84882  0.55868  1.0000
  N   N57       1.0  0.13884  0.48783  0.41137  1.0000
  H   H661      1.0  0.21312  0.51628  0.36611  1.0000
  C   C663      1.0  0.06480  0.65820  0.34124  1.0000
  C   C664      1.0  0.21943  0.48701  0.37601  1.0000
  S   S231      1.0  0.05292  0.50984  0.37795  1.0000
  H   H662      1.0  0.03157  0.81826  0.36885  1.0000
  H   H663      1.0  0.06451  0.63507  0.36410  1.0000
  C   C665      1.0  0.03718  0.96474  0.32923  1.0000
  H   H664      1.0  0.18332  0.49505  0.52359  1.0000
  C   C666      1.0  0.11989  0.66863  0.41300  1.0000
  H   H665      1.0  0.03125  0.56686  0.31993  1.0000
  C   C667      1.0  0.18832  0.71353  0.35313  1.0000
  H   H666      1.0  0.06658  0.69192  0.32418  1.0000
  H   H667      1.0  0.16810  0.50124  0.49723  1.0000
  H   H668      1.0  0.04081  0.96333  0.57152  1.0000
  C   C668      1.0  0.99404  0.58296  0.36462  1.0000
  H   H669      1.0  0.01451  0.48527  0.56515  1.0000
  H   H670      1.0  0.99687  0.96248  0.57028  1.0000
  H   H671      1.0  0.00237  0.50725  0.37293  1.0000
  H   H672      1.0  0.12197  0.47691  0.43650  1.0000
  H   H673      1.0  0.13152  0.48866  0.38605  1.0000
  H   H674      1.0  0.04285  0.66566  0.30636  1.0000
  Fe  Fe117     1.0  0.99385  0.62587  0.32892  1.0000
  C   C669      1.0  0.13460  0.47736  0.61467  1.0000
  H   H675      1.0  0.19013  0.72494  0.34107  1.0000
  C   C670      1.0  0.01129  0.84119  0.37745  1.0000
  C   C671      1.0  0.99098  0.56660  0.37712  1.0000
  N   N58       1.0  0.20536  0.69959  0.35363  1.0000
  H   H676      1.0  0.17678  0.70762  0.35208  1.0000
  H   H677      1.0  0.00076  0.50091  0.35221  1.0000
  C   C672      1.0  0.23193  0.72654  0.46623  1.0000
  C   C673      1.0  0.22733  0.60925  0.45159  1.0000
  S   S232      1.0  0.01431  0.96539  0.30641  1.0000
  C   C674      1.0  0.23398  0.74228  0.47115  1.0000
  C   C675      1.0  0.00489  0.97338  0.37672  1.0000
  H   H678      1.0  0.00295  0.96196  0.38819  1.0000
  S   S233      1.0  0.18670  0.47981  0.63211  1.0000
  H   H679      1.0  0.11426  0.47735  0.41628  1.0000
  H   H680      1.0  0.23420  0.57095  0.59990  1.0000
  C   C676      1.0  0.00291  0.86460  0.47444  1.0000
  N   N59       1.0  0.99077  0.81505  0.39836  1.0000
  C   C677      1.0  0.01916  0.96775  0.59520  1.0000
  H   H681      1.0  0.23145  0.63621  0.45099  1.0000
  C   C678      1.0  0.99017  0.85307  0.47917  1.0000
  H   H682      1.0  0.98912  0.78810  0.41418  1.0000
  C   C679      1.0  0.99771  0.88299  0.46637  1.0000
  S   S234      1.0  0.98846  0.69483  0.31770  1.0000
  S   S235      1.0  0.11321  0.47782  0.60965  1.0000
  C   C680      1.0  0.12687  0.47495  0.42205  1.0000
  H   H683      1.0  0.22294  0.71903  0.34136  1.0000
  S   S236      1.0  0.22905  0.54387  0.63402  1.0000
  Fe  Fe118     1.0  0.08940  0.61206  0.86817  1.0000
  S   S237      1.0  0.09465  0.60577  0.83994  1.0000
  S   S238      1.0  0.10347  0.59122  0.88935  1.0000
  Fe  Fe119     1.0  0.06390  0.64869  0.85801  1.0000
  S   S239      1.0  0.06712  0.64535  0.82919  1.0000
  Fe  Fe120     1.0  0.06417  0.61625  0.84174  1.0000
  S   S240      1.0  0.04262  0.60459  0.83524  1.0000
  Fe  Fe121     1.0  0.09716  0.63540  0.83018  1.0000
  S   S241      1.0  0.11788  0.64691  0.80626  1.0000
  S   S242      1.0  0.05872  0.62030  0.87080  1.0000
  S   S243      1.0  0.09416  0.64088  0.85827  1.0000
  H   H684      1.0  0.19193  0.82660  0.81898  1.0000
  C   C681      1.0  0.07133  0.56906  0.87188  1.0000
  C   C682      1.0  0.05229  0.57075  0.87394  1.0000
  C   C683      1.0  0.03418  0.93246  0.96470  1.0000
  C   C684      1.0  0.07423  0.95991  0.81721  1.0000
  C   C685      1.0  0.19612  0.83790  0.82265  1.0000
  H   H685      1.0  0.22384  0.93359  0.92047  1.0000
  H   H686      1.0  0.02492  0.96019  0.84613  1.0000
  C   C686      1.0  0.10306  0.90838  0.73675  1.0000
  H   H687      1.0  0.22586  0.75144  0.78443  1.0000
  Fe  Fe122     1.0  0.01178  0.88387  0.80306  1.0000
  H   H688      1.0  0.06192  0.47735  0.67929  1.0000
  Fe  Fe123     1.0  0.20614  0.67812  0.80700  1.0000
  S   S244      1.0  0.19805  0.69994  0.78321  1.0000
  S   S245      1.0  0.18904  0.65841  0.82652  1.0000
  H   H689      1.0  0.18906  0.96553  0.91174  1.0000
  C   C687      1.0  0.21860  0.91370  0.81344  1.0000
  Fe  Fe124     1.0  0.20709  0.71871  0.79596  1.0000
  S   S246      1.0  0.18806  0.74599  0.79815  1.0000
  S   S247      1.0  0.09057  0.61321  0.96658  1.0000
  S   S248      1.0  0.21286  0.69749  0.82088  1.0000
  S   S249      1.0  0.02013  0.49179  0.77567  1.0000
  C   C688      1.0  0.03246  0.69010  0.85577  1.0000
  S   S250      1.0  0.02315  0.90212  0.77696  1.0000
  C   C689      1.0  0.01914  0.70350  0.86393  1.0000
  H   H690      1.0  0.01813  0.70383  0.87818  1.0000
  H   H691      1.0  0.12540  0.62142  0.89432  1.0000
  S   S251      1.0  0.04979  0.94072  0.92792  1.0000
  C   C690      1.0  0.20265  0.89991  0.79817  1.0000
  S   S252      1.0  0.06462  0.91849  0.78906  1.0000
  Fe  Fe125     1.0  0.20002  0.84353  0.75724  1.0000
  S   S253      1.0  0.18183  0.85396  0.73655  1.0000
  C   C691      1.0  0.23184  0.64917  0.72817  1.0000
  Fe  Fe126     1.0  0.18546  0.87677  0.77503  1.0000
  Fe  Fe127     1.0  0.15968  0.86234  0.76008  1.0000
  S   S254      1.0  0.04659  0.67332  0.86929  1.0000
  Fe  Fe128     1.0  0.18952  0.88099  0.73381  1.0000
  Fe  Fe129     1.0  0.03619  0.91216  0.79478  1.0000
  S   S255      1.0  0.17722  0.84938  0.78117  1.0000
  S   S256      1.0  0.20979  0.86998  0.75261  1.0000
  Fe  Fe130     1.0  0.04154  0.50816  0.75941  1.0000
  S   S257      1.0  0.04829  0.51184  0.72848  1.0000
  Fe  Fe131     1.0  0.04651  0.51943  0.79350  1.0000
  S   S258      1.0  0.06557  0.53141  0.80374  1.0000
  H   H692      1.0  0.13343  0.49979  0.96715  1.0000
  C   C692      1.0  0.21347  0.60746  0.64074  1.0000
  S   S259      1.0  0.06095  0.49624  0.77878  1.0000
  N   N60       1.0  0.11978  0.47484  0.67102  1.0000
  S   S260      1.0  0.02902  0.53283  0.77236  1.0000
  N   N61       1.0  0.00429  0.96170  0.67781  1.0000
  H   H693      1.0  0.11390  0.63596  0.91943  1.0000
  H   H694      1.0  0.05321  0.53773  0.85110  1.0000
  H   H695      1.0  0.22675  0.78321  0.72987  1.0000
  C   C693      1.0  0.98999  0.67504  0.84404  1.0000
  H   H696      1.0  0.19364  0.79710  0.73687  1.0000
  S   S261      1.0  0.16597  0.89025  0.75584  1.0000
  C   C694      1.0  0.11590  0.89487  0.72841  1.0000
  H   H697      1.0  0.15375  0.91341  0.71758  1.0000
  H   H698      1.0  0.21435  0.72969  0.74951  1.0000
  C   C695      1.0  0.00666  0.71612  0.85393  1.0000
  H   H699      1.0  0.07634  0.57823  0.87735  1.0000
  C   C696      1.0  0.03372  0.68986  0.83731  1.0000
  S   S262      1.0  0.19303  0.90095  0.70672  1.0000
  C   C697      1.0  0.05532  0.49154  0.71965  1.0000
  C   C698      1.0  0.05614  0.49249  0.70097  1.0000
  H   H700      1.0  0.18471  0.85012  0.82145  1.0000
  C   C699      1.0  0.12711  0.92548  0.73155  1.0000
  H   H701      1.0  0.10821  0.56316  0.84556  1.0000
  Fe  Fe132     1.0  0.99808  0.92296  0.78548  1.0000
  H   H702      1.0  0.05239  0.50566  0.69218  1.0000
  H   H703      1.0  0.99997  0.94682  0.70553  1.0000
  S   S263      1.0  0.99475  0.91667  0.85534  1.0000
  H   H704      1.0  0.05920  0.47682  0.82844  1.0000
  H   H705      1.0  0.14542  0.48117  0.67137  1.0000
  C   C700      1.0  0.20946  0.59153  0.65307  1.0000
  S   S264      1.0  0.02520  0.50406  0.81247  1.0000
  H   H706      1.0  0.98847  0.80223  0.86022  1.0000
  C   C701      1.0  0.04108  0.92786  0.83727  1.0000
  C   C702      1.0  0.10251  0.49545  0.64932  1.0000
  H   H707      1.0  0.13179  0.93720  0.73301  1.0000
  C   C703      1.0  0.08282  0.90028  0.78381  1.0000
  C   C704      1.0  0.07960  0.88498  0.77919  1.0000
  C   C705      1.0  0.09456  0.87148  0.77323  1.0000
  C   C706      1.0  0.11273  0.87312  0.77209  1.0000
  C   C707      1.0  0.11585  0.88803  0.77749  1.0000
  C   C708      1.0  0.10094  0.90165  0.78320  1.0000
  H   H708      1.0  0.06563  0.88379  0.77973  1.0000
  H   H709      1.0  0.09206  0.85990  0.76919  1.0000
  H   H710      1.0  0.12975  0.88924  0.77701  1.0000
  H   H711      1.0  0.10349  0.91338  0.78690  1.0000
  H   H712      1.0  0.16140  0.88420  0.71030  1.0000
  H   H713      1.0  0.04405  0.67983  0.83078  1.0000
  H   H714      1.0  0.02725  0.64116  0.84943  1.0000
  H   H715      1.0  0.22382  0.66244  0.75160  1.0000
  H   H716      1.0  0.04813  0.92714  0.96691  1.0000
  H   H717      1.0  0.19238  0.91639  0.66879  1.0000
  C   C709      1.0  0.99556  0.48423  0.73283  1.0000
  H   H718      1.0  0.09906  0.93382  0.74565  1.0000
  C   C710      1.0  0.12623  0.62941  0.92492  1.0000
  C   C711      1.0  0.01618  0.64925  0.84196  1.0000
  H   H719      1.0  0.98651  0.84663  0.77610  1.0000
  C   C712      1.0  0.21234  0.96973  0.88957  1.0000
  C   C713      1.0  0.12733  0.63248  0.94182  1.0000
  C   C714      1.0  0.19756  0.76576  0.78852  1.0000
  C   C715      1.0  0.18571  0.78295  0.78625  1.0000
  C   C716      1.0  0.19278  0.79880  0.77718  1.0000
  C   C717      1.0  0.21177  0.79752  0.77052  1.0000
  H   H720      1.0  0.99612  0.72608  0.86050  1.0000
  C   C718      1.0  0.21660  0.76456  0.78233  1.0000
  H   H721      1.0  0.17096  0.78395  0.79106  1.0000
  H   H722      1.0  0.18344  0.81188  0.77489  1.0000
  H   H723      1.0  0.16656  0.60015  0.91588  1.0000
  H   H724      1.0  0.21981  0.91747  0.82571  1.0000
  H   H725      1.0  0.01149  0.82099  0.84931  1.0000
  C   C719      1.0  0.13120  0.50135  0.65210  1.0000
  H   H726      1.0  0.21714  0.60766  0.70161  1.0000
  C   C720      1.0  0.00186  0.83172  0.85569  1.0000
  S   S265      1.0  0.98586  0.90411  0.81070  1.0000
  H   H727      1.0  0.02725  0.93104  0.83375  1.0000
  H   H728      1.0  0.99667  0.87697  0.85618  1.0000
  C   C721      1.0  0.00765  0.71558  0.83561  1.0000
  S   S266      1.0  0.01208  0.93483  0.80113  1.0000
  H   H729      1.0  0.03099  0.56097  0.86746  1.0000
  H   H730      1.0  0.14605  0.86868  0.72165  1.0000
  C   C722      1.0  0.19898  0.90206  0.66986  1.0000
  C   C723      1.0  0.20072  0.89103  0.68713  1.0000
  C   C724      1.0  0.20921  0.87251  0.68842  1.0000
  N   N62       1.0  0.13387  0.89671  0.72170  1.0000
  C   C725      1.0  0.06648  0.94421  0.82180  1.0000
  H   H731      1.0  0.21076  0.86394  0.70168  1.0000
  H   H732      1.0  0.16919  0.60534  0.94578  1.0000
  C   C726      1.0  0.04926  0.58544  0.82448  1.0000
  C   C727      1.0  0.03556  0.57743  0.82209  1.0000
  C   C728      1.0  0.04037  0.56126  0.81497  1.0000
  C   C729      1.0  0.05894  0.55298  0.81027  1.0000
  C   C730      1.0  0.07264  0.56126  0.81223  1.0000
  C   C731      1.0  0.06784  0.57747  0.81925  1.0000
  H   H733      1.0  0.02115  0.58358  0.82603  1.0000
  H   H734      1.0  0.02972  0.55499  0.81351  1.0000
  H   H735      1.0  0.08703  0.55496  0.80849  1.0000
  H   H736      1.0  0.07849  0.58361  0.82087  1.0000
  C   C732      1.0  0.13846  0.64867  0.81151  1.0000
  C   C733      1.0  0.15132  0.65742  0.79786  1.0000
  C   C734      1.0  0.16712  0.66026  0.80218  1.0000
  C   C735      1.0  0.17017  0.65414  0.82014  1.0000
  C   C736      1.0  0.15762  0.64487  0.83361  1.0000
  C   C737      1.0  0.14179  0.64217  0.82932  1.0000
  H   H737      1.0  0.14889  0.66229  0.78400  1.0000
  H   H738      1.0  0.17688  0.66721  0.79167  1.0000
  H   H739      1.0  0.16007  0.63994  0.84745  1.0000
  H   H740      1.0  0.13224  0.63500  0.83979  1.0000
  C   C738      1.0  0.09901  0.59684  0.91116  1.0000
  C   C739      1.0  0.08650  0.61274  0.91509  1.0000
  C   C740      1.0  0.08363  0.61731  0.93236  1.0000
  C   C741      1.0  0.09347  0.60620  0.94568  1.0000
  C   C742      1.0  0.10599  0.59029  0.94174  1.0000
  C   C743      1.0  0.10867  0.58557  0.92456  1.0000
  H   H741      1.0  0.07899  0.62152  0.90484  1.0000
  H   H742      1.0  0.07392  0.62963  0.93536  1.0000
  C   C744      1.0  0.03873  0.96005  0.83785  1.0000
  H   H743      1.0  0.11834  0.57322  0.92159  1.0000
  C   C745      1.0  0.13951  0.91189  0.72293  1.0000
  C   C746      1.0  0.02138  0.70260  0.82725  1.0000
  Fe  Fe133     1.0  0.00875  0.51557  0.79005  1.0000
  S   S267      1.0  0.18537  0.88776  0.79973  1.0000
  H   H744      1.0  0.01886  0.89942  0.95274  1.0000
  H   H745      1.0  0.11107  0.54104  0.86106  1.0000
  S   S268      1.0  0.02734  0.89188  0.82004  1.0000
  C   C747      1.0  0.01302  0.94595  0.94404  1.0000
  C   C748      1.0  0.03109  0.93920  0.94676  1.0000
  C   C749      1.0  0.06166  0.47647  0.69362  1.0000
  H   H746      1.0  0.00814  0.81750  0.80711  1.0000
  C   C750      1.0  0.13304  0.48535  0.66563  1.0000
  H   H747      1.0  0.01039  0.95028  0.93024  1.0000
  C   C751      1.0  0.00609  0.84923  0.85160  1.0000
  C   C752      1.0  0.21675  0.77430  0.73516  1.0000
  C   C753      1.0  0.99362  0.93781  0.86135  1.0000
  C   C754      1.0  0.15552  0.60933  0.92306  1.0000
  N   N63       1.0  0.10419  0.68888  0.82537  1.0000
  C   C755      1.0  0.11651  0.69422  0.80972  1.0000
  C   C756      1.0  0.10876  0.68546  0.84223  1.0000
  C   C757      1.0  0.13394  0.69628  0.81070  1.0000
  C   C758      1.0  0.12620  0.68706  0.84367  1.0000
  C   C759      1.0  0.13884  0.69251  0.82778  1.0000
  C   C760      1.0  0.08589  0.68727  0.82388  1.0000
  H   H748      1.0  0.11305  0.69648  0.79634  1.0000
  H   H749      1.0  0.09898  0.68127  0.85465  1.0000
  H   H750      1.0  0.14387  0.70006  0.79825  1.0000
  H   H751      1.0  0.13001  0.68390  0.85697  1.0000
  H   H752      1.0  0.15261  0.69335  0.82863  1.0000
  H   H753      1.0  0.07802  0.68087  0.83723  1.0000
  H   H754      1.0  0.07767  0.70105  0.81929  1.0000
  H   H755      1.0  0.08731  0.67850  0.81383  1.0000
  H   H756      1.0  0.04973  0.91686  0.82995  1.0000
  C   C761      1.0  0.10878  0.92366  0.73852  1.0000
  H   H757      1.0  0.14996  0.62002  0.88698  1.0000
  C   C762      1.0  0.20436  0.90483  0.81402  1.0000
  C   C763      1.0  0.13898  0.61467  0.89810  1.0000
  C   C764      1.0  0.99059  0.85762  0.76430  1.0000
  N   N64       1.0  0.04895  0.94445  0.83201  1.0000
  C   C765      1.0  0.00545  0.90034  0.96196  1.0000
  H   H758      1.0  0.99753  0.52732  0.75583  1.0000
  C   C766      1.0  0.23087  0.66325  0.73737  1.0000
  H   H759      1.0  0.21040  0.57524  0.68005  1.0000
  Fe  Fe134     1.0  0.22800  0.69336  0.76967  1.0000
  H   H760      1.0  0.98589  0.80201  0.88440  1.0000
  H   H761      1.0  0.18117  0.74312  0.75747  1.0000
  C   C767      1.0  0.20594  0.89469  0.65389  1.0000
  C   C768      1.0  0.01264  0.94512  0.67015  1.0000
  N   N65       1.0  0.14019  0.61788  0.91581  1.0000
  C   C769      1.0  0.98882  0.91046  0.72659  1.0000
  C   C770      1.0  0.14292  0.62387  0.94928  1.0000
  C   C771      1.0  0.18508  0.77101  0.74703  1.0000
  N   N66       1.0  0.98973  0.51503  0.73787  1.0000
  H   H762      1.0  0.10687  0.56167  0.86969  1.0000
  C   C772      1.0  0.22421  0.61566  0.66409  1.0000
  C   C773      1.0  0.07712  0.54501  0.85553  1.0000
  H   H763      1.0  0.08815  0.95965  0.80920  1.0000
  C   C774      1.0  0.99828  0.94756  0.95910  1.0000
  H   H764      1.0  0.21391  0.90030  0.76941  1.0000
  H   H765      1.0  0.02225  0.70221  0.81304  1.0000
  C   C775      1.0  0.99364  0.86327  0.85935  1.0000
  C   C776      1.0  0.10339  0.55548  0.85961  1.0000
  H   H766      1.0  0.04273  0.58133  0.88058  1.0000
  N   N67       1.0  0.21326  0.84248  0.81056  1.0000
  S   S269      1.0  0.13125  0.85733  0.76236  1.0000
  H   H767      1.0  0.00910  0.63940  0.83935  1.0000
  S   S270      1.0  0.99127  0.73019  0.82323  1.0000
  C   C777      1.0  0.99028  0.97093  0.87294  1.0000
  H   H768      1.0  0.20427  0.58168  0.64870  1.0000
  H   H769      1.0  0.98712  0.54344  0.73806  1.0000
  H   H770      1.0  0.14050  0.59973  0.89876  1.0000
  H   H771      1.0  0.08893  0.90665  0.74249  1.0000
  C   C778      1.0  0.04570  0.55928  0.86665  1.0000
  N   N68       1.0  0.08347  0.55629  0.86277  1.0000
  H   H772      1.0  0.11354  0.58159  0.95196  1.0000
  S   S271      1.0  0.01309  0.85428  0.80248  1.0000
  H   H773      1.0  0.00459  0.92471  0.88574  1.0000
  H   H774      1.0  0.20452  0.90332  0.64068  1.0000
  H   H775      1.0  0.00116  0.90936  0.74935  1.0000
  C   C779      1.0  0.00177  0.49895  0.73533  1.0000
  H   H776      1.0  0.09088  0.49884  0.64252  1.0000
  S   S272      1.0  0.21433  0.94881  0.88300  1.0000
  H   H777      1.0  0.01397  0.65180  0.87678  1.0000
  H   H778      1.0  0.00213  0.95382  0.89561  1.0000
  N   N69       1.0  0.00292  0.66226  0.85238  1.0000
  H   H779      1.0  0.22003  0.58336  0.70319  1.0000
  S   S273      1.0  0.03676  0.97348  0.88023  1.0000
  H   H780      1.0  0.14203  0.50934  0.64747  1.0000
  H   H781      1.0  0.01133  0.94741  0.65556  1.0000
  C   C780      1.0  0.00340  0.66156  0.87028  1.0000
  Fe  Fe135     1.0  0.03847  0.48181  0.79630  1.0000
  H   H782      1.0  0.01876  0.85196  0.84212  1.0000
  H   H783      1.0  0.23155  0.90971  0.68362  1.0000
  C   C781      1.0  0.99924  0.93765  0.87747  1.0000
  H   H784      1.0  0.14390  0.62601  0.96244  1.0000
  C   C782      1.0  0.22440  0.59608  0.69450  1.0000
  H   H785      1.0  0.99106  0.91658  0.94054  1.0000
  N   N70       1.0  0.22243  0.75562  0.73865  1.0000
  N   N71       1.0  0.22034  0.59996  0.67606  1.0000
  C   C783      1.0  0.22933  0.91299  0.78107  1.0000
  C   C784      1.0  0.22198  0.83344  0.79649  1.0000
  H   H786      1.0  0.21307  0.86359  0.82422  1.0000
  C   C785      1.0  0.98978  0.91011  0.95498  1.0000
  C   C786      1.0  0.05990  0.47448  0.73101  1.0000
  C   C787      1.0  0.22370  0.78043  0.77337  1.0000
  C   C788      1.0  0.15713  0.61222  0.93987  1.0000
  C   C789      1.0  0.21312  0.58790  0.67075  1.0000
  C   C790      1.0  0.99834  0.96017  0.69642  1.0000
  C   C791      1.0  0.14689  0.88245  0.71276  1.0000
  C   C792      1.0  0.21517  0.90400  0.78169  1.0000
  C   C793      1.0  0.05816  0.54621  0.85750  1.0000
  H   H787      1.0  0.99391  0.85228  0.75141  1.0000
  H   H788      1.0  0.19468  0.90171  0.82680  1.0000
  H   H789      1.0  0.08670  0.53544  0.84759  1.0000
  Fe  Fe136     1.0  0.00236  0.91395  0.82553  1.0000
  N   N72       1.0  0.98557  0.82835  0.86704  1.0000
  H   H790      1.0  0.00345  0.86091  0.76589  1.0000
  H   H791      1.0  0.14367  0.88291  0.69930  1.0000
  C   C794      1.0  0.99399  0.84389  0.81348  1.0000
  C   C795      1.0  0.21495  0.87632  0.65509  1.0000
  C   C796      1.0  0.22093  0.61961  0.64623  1.0000
  C   C797      1.0  0.20984  0.74448  0.74635  1.0000
  H   H792      1.0  0.17059  0.77703  0.75095  1.0000
  S   S274      1.0  0.22075  0.81690  0.75776  1.0000
  H   H793      1.0  0.11155  0.88260  0.72788  1.0000
  H   H794      1.0  0.99161  0.67380  0.89421  1.0000
  C   C798      1.0  0.99786  0.95414  0.88308  1.0000
  H   H795      1.0  0.01625  0.49738  0.73537  1.0000
  C   C799      1.0  0.21636  0.86519  0.67241  1.0000
  H   H796      1.0  0.22337  0.85098  0.67342  1.0000
  H   H797      1.0  0.03954  0.92253  0.85233  1.0000
  H   H798      1.0  0.99782  0.89803  0.72295  1.0000
  H   H799      1.0  0.21650  0.82257  0.79427  1.0000
  H   H800      1.0  0.19786  0.83360  0.83715  1.0000
  C   C800      1.0  0.19100  0.75199  0.75068  1.0000
  C   C801      1.0  0.11580  0.50642  0.64394  1.0000
  H   H801      1.0  0.22555  0.63750  0.73539  1.0000
  H   H802      1.0  0.07458  0.93184  0.81712  1.0000
  C   C802      1.0  0.19800  0.78227  0.73911  1.0000
  C   C803      1.0  0.22024  0.85614  0.81332  1.0000
  H   H803      1.0  0.23005  0.62512  0.66831  1.0000
  H   H804      1.0  0.02747  0.94096  0.67090  1.0000
  C   C804      1.0  0.23109  0.91783  0.79694  1.0000
  H   H805      1.0  0.11589  0.64103  0.94936  1.0000
  C   C805      1.0  0.99543  0.82523  0.81380  1.0000
  H   H806      1.0  0.16788  0.96130  0.87147  1.0000
  C   C806      1.0  0.99077  0.67397  0.88025  1.0000
  H   H807      1.0  0.01034  0.53114  0.73246  1.0000
  H   H808      1.0  0.22715  0.71179  0.86431  1.0000
  H   H809      1.0  0.00544  0.93364  0.67783  1.0000
  H   H810      1.0  0.02302  0.65667  0.82859  1.0000
  C   C807      1.0  0.99074  0.91686  0.74154  1.0000
  H   H811      1.0  0.06677  0.96611  0.95506  1.0000
  Fe  Fe137     1.0  0.04317  0.96766  0.90840  1.0000
  C   C808      1.0  0.10482  0.47954  0.66286  1.0000
  C   C809      1.0  0.98666  0.95464  0.85079  1.0000
  H   H812      1.0  0.22461  0.63175  0.63655  1.0000
  H   H813      1.0  0.98984  0.67587  0.82975  1.0000
  C   C810      1.0  0.99647  0.52998  0.74120  1.0000
  H   H814      1.0  0.23487  0.68233  0.85344  1.0000
  S   S275      1.0  0.22593  0.86739  0.63519  1.0000
  H   H815      1.0  0.28074  0.02108  0.12895  1.0000
  H   H816      1.0  0.38187  0.24656  0.97283  1.0000
  H   H817      1.0  0.24626  0.11645  0.06886  1.0000
  Fe  Fe138     1.0  0.25719  0.17139  0.26465  1.0000
  C   C811      1.0  0.37054  0.98491  0.17233  1.0000
  S   S276      1.0  0.44593  0.43097  0.03859  1.0000
  S   S277      1.0  0.43906  0.38301  0.06453  1.0000
  H   H818      1.0  0.31432  0.09876  0.22742  1.0000
  S   S278      1.0  0.44220  0.15381  0.19536  1.0000
  Fe  Fe139     1.0  0.45315  0.44485  0.05755  1.0000
  C   C812      1.0  0.25651  0.16592  0.13857  1.0000
  C   C813      1.0  0.30567  0.08132  0.09694  1.0000
  H   H819      1.0  0.24918  0.40123  0.20424  1.0000
  Fe  Fe140     1.0  0.28770  0.10328  0.17087  1.0000
  S   S279      1.0  0.31568  0.11050  0.16013  1.0000
  H   H820      1.0  0.25614  0.10135  0.24695  1.0000
  Fe  Fe141     1.0  0.29733  0.07096  0.15137  1.0000
  S   S280      1.0  0.32606  0.07585  0.13914  1.0000
  S   S281      1.0  0.29176  0.04596  0.14471  1.0000
  Fe  Fe142     1.0  0.32628  0.08011  0.16689  1.0000
  S   S282      1.0  0.35127  0.06607  0.17933  1.0000
  Fe  Fe143     1.0  0.31277  0.10559  0.13350  1.0000
  S   S283      1.0  0.32309  0.12410  0.10714  1.0000
  S   S284      1.0  0.29845  0.07305  0.17981  1.0000
  S   S285      1.0  0.28392  0.10054  0.14350  1.0000
  C   C814      1.0  0.33710  0.47142  0.29004  1.0000
  S   S286      1.0  0.29368  0.21462  0.02391  1.0000
  S   S287      1.0  0.28903  0.22821  0.06247  1.0000
  Fe  Fe144     1.0  0.30562  0.23368  0.03373  1.0000
  S   S288      1.0  0.33660  0.23021  0.02999  1.0000
  Fe  Fe145     1.0  0.27522  0.21160  0.05187  1.0000
  S   S289      1.0  0.26532  0.18605  0.06894  1.0000
  S   S290      1.0  0.28572  0.25920  0.02421  1.0000
  Fe  Fe146     1.0  0.44250  0.30297  0.01537  1.0000
  S   S291      1.0  0.46057  0.27994  0.00228  1.0000
  S   S292      1.0  0.46141  0.32023  0.01812  1.0000
  Fe  Fe147     1.0  0.40760  0.28994  0.01537  1.0000
  S   S293      1.0  0.42344  0.26593  0.00245  1.0000
  S   S294      1.0  0.37637  0.29651  0.01991  1.0000
  Fe  Fe148     1.0  0.44206  0.26243  0.02220  1.0000
  S   S295      1.0  0.45551  0.23522  0.03714  1.0000
  S   S296      1.0  0.47390  0.97528  0.12562  1.0000
  S   S297      1.0  0.42495  0.28495  0.03669  1.0000
  H   H821      1.0  0.26559  0.32814  0.03370  1.0000
  Fe  Fe149     1.0  0.43333  0.09849  0.24361  1.0000
  S   S298      1.0  0.45419  0.10154  0.21731  1.0000
  S   S299      1.0  0.44274  0.09108  0.27051  1.0000
  Fe  Fe150     1.0  0.40127  0.10768  0.22405  1.0000
  S   S300      1.0  0.41946  0.11185  0.19598  1.0000
  S   S301      1.0  0.37051  0.11274  0.22663  1.0000
  Fe  Fe151     1.0  0.43798  0.08632  0.20772  1.0000
  S   S302      1.0  0.45342  0.06494  0.19091  1.0000
  Fe  Fe152     1.0  0.43384  0.12662  0.20819  1.0000
  H   H822      1.0  0.36595  0.44541  0.11479  1.0000
  S   S303      1.0  0.41872  0.08092  0.23501  1.0000
  S   S304      1.0  0.41402  0.12476  0.23533  1.0000
  C   C815      1.0  0.25106  0.24492  0.23224  1.0000
  C   C816      1.0  0.26426  0.36458  0.17155  1.0000
  H   H823      1.0  0.38647  0.98704  0.19085  1.0000
  C   C817      1.0  0.28821  0.10894  0.08020  1.0000
  C   C818      1.0  0.25630  0.40222  0.15893  1.0000
  C   C819      1.0  0.46790  0.23720  0.05275  1.0000
  H   H824      1.0  0.24469  0.23238  0.27794  1.0000
  H   H825      1.0  0.38074  0.02673  0.19213  1.0000
  C   C820      1.0  0.27263  0.11843  0.07290  1.0000
  C   C821      1.0  0.25360  0.21109  0.99861  1.0000
  H   H826      1.0  0.31216  0.09105  0.10062  1.0000
  H   H827      1.0  0.25642  0.11962  0.26948  1.0000
  C   C822      1.0  0.26668  0.37160  0.15269  1.0000
  C   C823      1.0  0.29058  0.44777  0.11556  1.0000
  H   H828      1.0  0.30479  0.42756  0.09904  1.0000
  C   C824      1.0  0.44530  0.01518  0.18970  1.0000
  C   C825      1.0  0.34989  0.01864  0.17911  1.0000
  H   H829      1.0  0.44692  0.19309  0.08061  1.0000
  C   C826      1.0  0.27550  0.42821  0.10603  1.0000
  C   C827      1.0  0.25439  0.14034  0.21507  1.0000
  C   C828      1.0  0.28578  0.11899  0.26096  1.0000
  C   C829      1.0  0.25851  0.10925  0.07429  1.0000
  C   C830      1.0  0.24266  0.05196  0.11792  1.0000
  C   C831      1.0  0.38472  0.46398  0.06515  1.0000
  C   C832      1.0  0.41201  0.14346  0.29602  1.0000
  H   H830      1.0  0.32000  0.13185  0.23900  1.0000
  C   C833      1.0  0.42695  0.01558  0.19890  1.0000
  H   H831      1.0  0.26678  0.98028  0.04004  1.0000
  S   S305      1.0  0.48320  0.43029  0.99335  1.0000
  C   C834      1.0  0.45346  0.19539  0.09065  1.0000
  H   H832      1.0  0.33122  0.10824  0.24560  1.0000
  C   C835      1.0  0.41379  0.03515  0.15586  1.0000
  H   H833      1.0  0.37436  0.00920  0.21163  1.0000
  H   H834      1.0  0.45572  0.26559  0.05338  1.0000
  H   H835      1.0  0.45288  0.22771  0.11355  1.0000
  S   S306      1.0  0.46150  0.41870  0.07719  1.0000
  H   H836      1.0  0.39216  0.05577  0.16685  1.0000
  C   C836      1.0  0.45362  0.03010  0.18796  1.0000
  C   C837      1.0  0.44360  0.04544  0.19539  1.0000
  C   C838      1.0  0.42543  0.04558  0.20503  1.0000
  H   H837      1.0  0.46769  0.02994  0.18049  1.0000
  H   H838      1.0  0.41766  0.05730  0.21085  1.0000
  C   C839      1.0  0.36571  0.27812  0.02142  1.0000
  C   C840      1.0  0.34741  0.28167  0.01905  1.0000
  C   C841      1.0  0.33829  0.26711  0.02144  1.0000
  C   C842      1.0  0.34752  0.24894  0.02606  1.0000
  C   C843      1.0  0.36596  0.24545  0.02791  1.0000
  C   C844      1.0  0.37500  0.25996  0.02570  1.0000
  H   H839      1.0  0.34015  0.29570  0.01569  1.0000
  H   H840      1.0  0.32410  0.26993  0.01988  1.0000
  H   H841      1.0  0.37317  0.23142  0.03147  1.0000
  H   H842      1.0  0.38900  0.25706  0.02781  1.0000
  H   H843      1.0  0.25931  0.20875  0.01075  1.0000
  C   C845      1.0  0.28675  0.13585  0.20056  1.0000
  C   C846      1.0  0.28985  0.14596  0.21211  1.0000
  C   C847      1.0  0.26899  0.13296  0.20207  1.0000
  N   N73       1.0  0.41830  0.06381  0.15971  1.0000
  Fe  Fe153     1.0  0.44043  0.28591  0.98395  1.0000
  H   H844      1.0  0.29811  0.13024  0.19061  1.0000
  H   H845      1.0  0.30363  0.14811  0.21091  1.0000
  C   C848      1.0  0.47409  0.37316  0.97562  1.0000
  C   C849      1.0  0.43682  0.05903  0.15295  1.0000
  C   C850      1.0  0.35615  0.07882  0.19301  1.0000
  C   C851      1.0  0.37206  0.07248  0.20052  1.0000
  C   C852      1.0  0.37658  0.08299  0.21071  1.0000
  C   C853      1.0  0.36503  0.09965  0.21376  1.0000
  C   C854      1.0  0.34892  0.10579  0.20662  1.0000
  C   C855      1.0  0.34448  0.09537  0.19627  1.0000
  H   H846      1.0  0.38094  0.05950  0.19847  1.0000
  H   H847      1.0  0.38885  0.07810  0.21649  1.0000
  H   H848      1.0  0.34005  0.11877  0.20880  1.0000
  H   H849      1.0  0.33204  0.10019  0.19085  1.0000
  C   C856      1.0  0.30686  0.14159  0.09705  1.0000
  C   C857      1.0  0.28803  0.14117  0.10217  1.0000
  C   C858      1.0  0.27543  0.15467  0.09312  1.0000
  C   C859      1.0  0.28154  0.16897  0.07936  1.0000
  C   C860      1.0  0.30030  0.16966  0.07452  1.0000
  C   C861      1.0  0.31297  0.15583  0.08322  1.0000
  H   H850      1.0  0.28319  0.13022  0.11272  1.0000
  H   H851      1.0  0.30506  0.18069  0.06391  1.0000
  H   H852      1.0  0.32755  0.15617  0.07918  1.0000
  C   C862      1.0  0.45207  0.10802  0.27472  1.0000
  H   H853      1.0  0.44542  0.41580  0.00160  1.0000
  H   H854      1.0  0.24625  0.15536  0.23708  1.0000
  H   H855      1.0  0.32691  0.43427  0.04883  1.0000
  H   H856      1.0  0.43767  0.35184  0.99450  1.0000
  H   H857      1.0  0.44608  0.06787  0.15261  1.0000
  H   H858      1.0  0.28588  0.39997  0.29204  1.0000
  C   C863      1.0  0.40966  0.46120  0.11632  1.0000
  C   C864      1.0  0.24562  0.32219  0.07916  1.0000
  H   H859      1.0  0.29922  0.11611  0.07893  1.0000
  S   S307      1.0  0.26445  0.12009  0.18815  1.0000
  C   C865      1.0  0.44541  0.36525  0.05198  1.0000
  C   C866      1.0  0.43260  0.35449  0.05293  1.0000
  C   C867      1.0  0.43729  0.34047  0.04274  1.0000
  C   C868      1.0  0.45491  0.33704  0.03176  1.0000
  C   C869      1.0  0.46773  0.34768  0.03095  1.0000
  C   C870      1.0  0.46298  0.36178  0.04095  1.0000
  H   H860      1.0  0.41899  0.35708  0.06151  1.0000
  H   H861      1.0  0.42732  0.33233  0.04343  1.0000
  H   H862      1.0  0.24937  0.08336  0.08381  1.0000
  H   H863      1.0  0.39330  0.25131  0.98850  1.0000
  Fe  Fe154     1.0  0.25324  0.39816  0.09626  1.0000
  C   C871      1.0  0.41134  0.47302  0.06971  1.0000
  H   H864      1.0  0.26659  0.34985  0.17664  1.0000
  C   C872      1.0  0.40680  0.05211  0.16126  1.0000
  C   C873      1.0  0.28208  0.17948  0.12151  1.0000
  C   C874      1.0  0.31609  0.44433  0.05506  1.0000
  C   C875      1.0  0.27067  0.19289  0.11105  1.0000
  Fe  Fe155     1.0  0.24371  0.36949  0.08076  1.0000
  C   C876      1.0  0.27234  0.04820  0.13519  1.0000
  C   C877      1.0  0.27054  0.03371  0.12801  1.0000
  S   S308      1.0  0.42348  0.31034  0.99544  1.0000
  C   C878      1.0  0.25232  0.29351  0.06828  1.0000
  H   H865      1.0  0.28008  0.98724  0.06308  1.0000
  H   H866      1.0  0.28727  0.17760  0.97293  1.0000
  C   C879      1.0  0.27531  0.15294  0.22543  1.0000
  C   C880      1.0  0.24475  0.17901  0.12821  1.0000
  H   H867      1.0  0.31895  0.12118  0.26290  1.0000
  H   H868      1.0  0.28566  0.12766  0.27024  1.0000
  H   H869      1.0  0.29919  0.97608  0.08553  1.0000
  C   C881      1.0  0.26822  0.21432  0.23011  1.0000
  S   S309      1.0  0.26032  0.36740  0.10173  1.0000
  C   C882      1.0  0.30175  0.10302  0.23695  1.0000
  H   H870      1.0  0.37031  0.26377  0.98620  1.0000
  H   H871      1.0  0.28145  0.13951  0.15154  1.0000
  H   H872      1.0  0.25460  0.02447  0.11362  1.0000
  H   H873      1.0  0.47756  0.12100  0.22877  1.0000
  N   N74       1.0  0.25388  0.39521  0.17743  1.0000
  C   C883      1.0  0.41097  0.08103  0.16642  1.0000
  C   C884      1.0  0.31880  0.11886  0.24921  1.0000
  H   H874      1.0  0.47747  0.20370  0.12567  1.0000
  H   H875      1.0  0.25303  0.19591  0.22641  1.0000
  C   C885      1.0  0.45991  0.10428  0.29024  1.0000
  S   S310      1.0  0.43519  0.46916  0.06915  1.0000
  N   N75       1.0  0.28946  0.09096  0.08900  1.0000
  H   H876      1.0  0.44470  0.12852  0.25147  1.0000
  C   C886      1.0  0.44422  0.04231  0.14714  1.0000
  C   C887      1.0  0.28715  0.15222  0.14574  1.0000
  C   C888      1.0  0.46479  0.13555  0.28352  1.0000
  C   C889      1.0  0.24427  0.06628  0.12544  1.0000
  C   C890      1.0  0.45720  0.13924  0.26782  1.0000
  H   H877      1.0  0.40294  0.03101  0.21402  1.0000
  H   H878      1.0  0.46499  0.12400  0.17799  1.0000
  H   H879      1.0  0.30300  0.45222  0.11540  1.0000
  C   C891      1.0  0.25905  0.06443  0.13403  1.0000
  N   N76       1.0  0.23623  0.22250  0.22793  1.0000
  C   C892      1.0  0.39399  0.28708  0.96915  1.0000
  H   H880      1.0  0.32111  0.97618  0.06945  1.0000
  C   C893      1.0  0.45088  0.12549  0.26338  1.0000
  H   H881      1.0  0.28087  0.20404  0.23043  1.0000
  H   H882      1.0  0.25502  0.37102  0.19848  1.0000
  H   H883      1.0  0.29395  0.43195  0.05406  1.0000
  H   H884      1.0  0.25086  0.15541  0.14936  1.0000
  C   C894      1.0  0.40390  0.46131  0.06350  1.0000
  Fe  Fe156     1.0  0.26809  0.25235  0.05234  1.0000
  H   H885      1.0  0.39699  0.42813  0.10251  1.0000
  H   H886      1.0  0.30094  0.14822  0.13701  1.0000
  H   H887      1.0  0.26959  0.45454  0.06885  1.0000
  C   C895      1.0  0.26751  0.23200  0.23237  1.0000
  N   N77       1.0  0.31271  0.30083  0.06397  1.0000
  C   C896      1.0  0.33056  0.29139  0.06068  1.0000
  C   C897      1.0  0.29847  0.29157  0.07065  1.0000
  C   C898      1.0  0.33438  0.27220  0.06339  1.0000
  C   C899      1.0  0.30176  0.27244  0.07297  1.0000
  C   C900      1.0  0.31984  0.26274  0.06909  1.0000
  C   C901      1.0  0.30881  0.32093  0.06117  1.0000
  H   H888      1.0  0.34195  0.29865  0.05550  1.0000
  H   H889      1.0  0.28445  0.29900  0.07401  1.0000
  H   H890      1.0  0.34850  0.26477  0.06035  1.0000
  H   H891      1.0  0.29032  0.26524  0.07761  1.0000
  H   H892      1.0  0.32259  0.24794  0.07030  1.0000
  H   H893      1.0  0.29520  0.32690  0.05710  1.0000
  H   H894      1.0  0.30853  0.32522  0.07406  1.0000
  H   H895      1.0  0.31936  0.32688  0.04994  1.0000
  N   N78       1.0  0.44849  0.21179  0.09637  1.0000
  C   C902      1.0  0.45671  0.21469  0.10907  1.0000
  H   H896      1.0  0.45897  0.03839  0.14218  1.0000
  H   H897      1.0  0.29683  0.20395  0.97896  1.0000
  H   H898      1.0  0.35756  0.02943  0.20558  1.0000
  H   H899      1.0  0.42020  0.22445  0.09853  1.0000
  C   C903      1.0  0.43375  0.22607  0.08941  1.0000
  C   C904      1.0  0.25252  0.22820  0.98665  1.0000
  H   H900      1.0  0.34481  0.45902  0.28531  1.0000
  H   H901      1.0  0.24426  0.45657  0.13204  1.0000
  C   C905      1.0  0.26025  0.09071  0.08266  1.0000
  N   N79       1.0  0.27497  0.16610  0.13490  1.0000
  H   H902      1.0  0.42508  0.43849  0.10338  1.0000
  S   S311      1.0  0.25306  0.15124  0.29131  1.0000
  N   N80       1.0  0.45312  0.38781  0.99924  1.0000
  C   C906      1.0  0.46901  0.38684  0.98610  1.0000
  C   C907      1.0  0.44171  0.37571  0.00202  1.0000
  H   H903      1.0  0.40475  0.02569  0.15755  1.0000
  H   H904      1.0  0.43330  0.22536  0.07520  1.0000
  H   H905      1.0  0.34522  0.47252  0.24647  1.0000
  C   C908      1.0  0.44852  0.40194  0.01033  1.0000
  H   H906      1.0  0.48122  0.15912  0.23032  1.0000
  H   H907      1.0  0.42928  0.37625  0.01267  1.0000
  H   H908      1.0  0.25690  0.25964  0.27734  1.0000
  C   C909      1.0  0.28708  0.97551  0.05675  1.0000
  H   H909      1.0  0.43831  0.01699  0.14485  1.0000
  C   C910      1.0  0.43262  0.03027  0.14872  1.0000
  H   H910      1.0  0.43655  0.40003  0.02190  1.0000
  H   H911      1.0  0.32369  0.47244  0.19971  1.0000
  C   C911      1.0  0.48023  0.22185  0.05979  1.0000
  C   C912      1.0  0.47602  0.18449  0.11004  1.0000
  C   C913      1.0  0.26281  0.39053  0.14630  1.0000
  N   N81       1.0  0.30180  0.11312  0.24934  1.0000
  H   H912      1.0  0.47300  0.36981  0.04026  1.0000
  H   H913      1.0  0.29675  0.17948  0.11844  1.0000
  H   H914      1.0  0.33357  0.01697  0.16047  1.0000
  C   C914      1.0  0.28539  0.09847  0.23602  1.0000
  S   S312      1.0  0.41567  0.99788  0.19998  1.0000
  C   C915      1.0  0.46510  0.25362  0.05882  1.0000
  C   C916      1.0  0.25845  0.43631  0.11546  1.0000
  H   H915      1.0  0.26017  0.07559  0.13970  1.0000
  H   H916      1.0  0.23803  0.41791  0.27499  1.0000
  C   C917      1.0  0.25962  0.30245  0.05068  1.0000
  C   C918      1.0  0.37834  0.44949  0.11552  1.0000
  C   C919      1.0  0.41709  0.03071  0.20673  1.0000
  H   H917      1.0  0.48245  0.20912  0.05514  1.0000
  C   C920      1.0  0.24519  0.30345  0.08245  1.0000
  C   C921      1.0  0.25755  0.15017  0.22682  1.0000
  H   H918      1.0  0.39614  0.08619  0.16577  1.0000
  S   S313      1.0  0.27717  0.41203  0.09268  1.0000
  C   C922      1.0  0.23614  0.24586  0.27553  1.0000
  C   C923      1.0  0.40966  0.12710  0.29280  1.0000
  C   C924      1.0  0.25574  0.03557  0.11937  1.0000
  C   C925      1.0  0.34521  0.01027  0.16711  1.0000
  S   S314      1.0  0.26235  0.24544  0.98986  1.0000
  H   H919      1.0  0.38975  0.28869  0.98336  1.0000
  H   H920      1.0  0.41285  0.45009  0.05759  1.0000
  C   C926      1.0  0.25750  0.45011  0.12497  1.0000
  C   C927      1.0  0.35561  0.99327  0.16375  1.0000
  H   H921      1.0  0.23961  0.29654  0.09612  1.0000
  H   H922      1.0  0.28878  0.15757  0.15732  1.0000
  H   H923      1.0  0.46042  0.40130  0.01648  1.0000
  C   C928      1.0  0.29156  0.43380  0.10631  1.0000
  S   S315      1.0  0.25296  0.23528  0.04381  1.0000
  H   H924      1.0  0.26089  0.15419  0.09692  1.0000
  H   H925      1.0  0.27149  0.13286  0.06634  1.0000
  Fe  Fe157     1.0  0.47544  0.42942  0.02389  1.0000
  Fe  Fe158     1.0  0.27235  0.23967  0.01654  1.0000
  Fe  Fe159     1.0  0.45651  0.40473  0.05681  1.0000
  H   H926      1.0  0.43614  0.24000  0.08860  1.0000
  C   C929      1.0  0.27353  0.45602  0.12485  1.0000
  C   C930      1.0  0.44634  0.36191  0.99175  1.0000
  N   N82       1.0  0.28841  0.46945  0.07208  1.0000
  C   C931      1.0  0.25989  0.32126  0.04734  1.0000
  C   C932      1.0  0.25236  0.20978  0.22789  1.0000
  C   C933      1.0  0.24490  0.23109  0.97104  1.0000
  H   H927      1.0  0.27728  0.06725  0.09626  1.0000
  H   H928      1.0  0.27101  0.36237  0.14305  1.0000
  H   H929      1.0  0.47794  0.39659  0.98385  1.0000
  C   C934      1.0  0.26918  0.11457  0.26053  1.0000
  C   C935      1.0  0.28386  0.45598  0.06625  1.0000
  C   C936      1.0  0.24785  0.19675  0.99455  1.0000
  H   H930      1.0  0.46667  0.34951  0.97097  1.0000
  C   C937      1.0  0.26902  0.10431  0.24790  1.0000
  C   C938      1.0  0.25770  0.37664  0.18382  1.0000
  H   H931      1.0  0.46095  0.09075  0.29896  1.0000
  H   H932      1.0  0.30171  0.07138  0.10983  1.0000
  H   H933      1.0  0.28528  0.09101  0.22574  1.0000
  N   N83       1.0  0.36441  0.01022  0.18767  1.0000
  C   C939      1.0  0.37481  0.99365  0.18427  1.0000
  H   H934      1.0  0.24916  0.97963  0.10971  1.0000
  H   H935      1.0  0.45583  0.15287  0.25935  1.0000
  H   H936      1.0  0.34178  0.03189  0.18156  1.0000
  H   H937      1.0  0.45297  0.00361  0.18358  1.0000
  C   C940      1.0  0.32057  0.45839  0.06061  1.0000
  H   H938      1.0  0.24037  0.32967  0.09025  1.0000
  H   H939      1.0  0.47192  0.26722  0.07697  1.0000
  C   C941      1.0  0.27601  0.08168  0.08981  1.0000
  H   H940      1.0  0.24596  0.43224  0.11513  1.0000
  C   C942      1.0  0.47058  0.13629  0.17188  1.0000
  S   S316      1.0  0.25719  0.19441  0.27801  1.0000
  H   H941      1.0  0.41241  0.07884  0.18091  1.0000
  C   C943      1.0  0.41151  0.44553  0.10926  1.0000
  H   H942      1.0  0.37908  0.45486  0.06032  1.0000
  H   H943      1.0  0.26452  0.39606  0.13165  1.0000
  H   H944      1.0  0.41861  0.09194  0.15812  1.0000
  C   C944      1.0  0.30647  0.47095  0.06910  1.0000
  C   C945      1.0  0.39573  0.43978  0.10869  1.0000
  S   S317      1.0  0.27985  0.16455  0.24049  1.0000
  C   C946      1.0  0.25301  0.33111  0.06159  1.0000
  H   H945      1.0  0.26515  0.29487  0.03969  1.0000
  H   H946      1.0  0.24061  0.13815  0.21631  1.0000
  H   H947      1.0  0.31603  0.07379  0.08700  1.0000
  S   S318      1.0  0.25404  0.35448  0.05710  1.0000
  H   H948      1.0  0.24319  0.20237  0.10566  1.0000
  H   H949      1.0  0.24919  0.18342  0.00364  1.0000
  S   S319      1.0  0.25313  0.26973  0.07348  1.0000
  C   C947      1.0  0.46272  0.36053  0.97861  1.0000
  C   C948      1.0  0.38398  0.25764  0.97860  1.0000
  H   H950      1.0  0.36351  0.47250  0.12789  1.0000
  C   C949      1.0  0.46896  0.16868  0.16952  1.0000
  C   C950      1.0  0.29762  0.44313  0.05782  1.0000
  H   H951      1.0  0.46214  0.15312  0.22453  1.0000
  C   C951      1.0  0.46173  0.15280  0.17758  1.0000
  H   H952      1.0  0.46208  0.18147  0.17390  1.0000
  C   C952      1.0  0.36946  0.01935  0.19985  1.0000
  H   H953      1.0  0.27642  0.20302  0.09989  1.0000
  H   H954      1.0  0.42201  0.46600  0.11593  1.0000
  H   H955      1.0  0.25143  0.42054  0.18551  1.0000
  H   H956      1.0  0.47335  0.17028  0.20901  1.0000
  C   C953      1.0  0.24095  0.19939  0.97856  1.0000
  C   C954      1.0  0.26936  0.37949  0.29684  1.0000
  H   H957      1.0  0.33490  0.45948  0.05856  1.0000
  C   C955      1.0  0.47585  0.15708  0.21893  1.0000
  C   C956      1.0  0.37702  0.46494  0.12271  1.0000
  C   C957      1.0  0.47067  0.20116  0.11598  1.0000
  H   H958      1.0  0.27960  0.23559  0.23450  1.0000
  H   H959      1.0  0.40609  0.12678  0.28004  1.0000
  S   S320      1.0  0.47207  0.15315  0.28908  1.0000
  H   H960      1.0  0.47146  0.16861  0.09264  1.0000
  C   C958      1.0  0.46632  0.11798  0.29459  1.0000
  C   C959      1.0  0.25194  0.19250  0.11430  1.0000
  C   C960      1.0  0.24303  0.26132  0.27520  1.0000
  S   S321      1.0  0.48196  0.44591  0.04108  1.0000
  C   C961      1.0  0.33501  0.47015  0.22350  1.0000
  S   S322      1.0  0.24055  0.29796  0.27278  1.0000
  C   C962      1.0  0.46735  0.18154  0.09734  1.0000
  H   H961      1.0  0.26921  0.38099  0.28244  1.0000
  S   S323      1.0  0.32565  0.47310  0.12640  1.0000
  H   H962      1.0  0.25297  0.41691  0.15385  1.0000
  N   N84       1.0  0.39253  0.47082  0.12270  1.0000
  C   C963      1.0  0.47429  0.25451  0.07222  1.0000
  S   S324      1.0  0.23648  0.18028  0.97269  1.0000
  H   H963      1.0  0.33976  0.45539  0.22532  1.0000
  H   H964      1.0  0.25019  0.25859  0.23442  1.0000
  H   H965      1.0  0.41006  0.15589  0.28566  1.0000
  C   C964      1.0  0.24595  0.40763  0.19042  1.0000
  H   H966      1.0  0.35214  0.98658  0.15450  1.0000
  H   H967      1.0  0.48136  0.34511  0.02241  1.0000
  S   S325      1.0  0.23867  0.40031  0.07353  1.0000
  S   S326      1.0  0.24786  0.43435  0.30003  1.0000
  C   C965      1.0  0.23543  0.23987  0.23011  1.0000
  Fe  Fe160     1.0  0.43261  0.97434  0.18671  1.0000
  S   S327      1.0  0.23984  0.14611  0.53236  1.0000
  S   S328      1.0  0.31262  0.00614  0.59431  1.0000
  H   H968      1.0  0.35462  0.25578  0.37261  1.0000
  C   C966      1.0  0.25933  0.36761  0.31026  1.0000
  Fe  Fe161     1.0  0.31818  0.02357  0.61088  1.0000
  S   S329      1.0  0.31775  0.05377  0.60031  1.0000
  C   C967      1.0  0.41971  0.16096  0.31481  1.0000
  C   C968      1.0  0.33529  0.41698  0.36153  1.0000
  C   C969      1.0  0.42380  0.36299  0.48644  1.0000
  C   C970      1.0  0.26190  0.22772  0.49337  1.0000
  N   N85       1.0  0.41703  0.14372  0.31187  1.0000
  S   S330      1.0  0.28069  0.22894  0.60545  1.0000
  Fe  Fe162     1.0  0.27924  0.46062  0.33445  1.0000
  H   H969      1.0  0.30901  0.42723  0.53256  1.0000
  S   S331      1.0  0.35929  0.97632  0.57737  1.0000
  S   S332      1.0  0.26244  0.14940  0.56276  1.0000
  H   H970      1.0  0.48225  0.45474  0.37335  1.0000
  H   H971      1.0  0.46482  0.00713  0.48760  1.0000
  C   C971      1.0  0.31717  0.33698  0.62451  1.0000
  S   S333      1.0  0.45375  0.16953  0.33486  1.0000
  C   C972      1.0  0.25094  0.12403  0.61127  1.0000
  C   C973      1.0  0.24734  0.35457  0.34247  1.0000
  H   H972      1.0  0.25859  0.22396  0.50827  1.0000
  S   S334      1.0  0.27422  0.18256  0.51625  1.0000
  H   H973      1.0  0.30809  0.40984  0.56907  1.0000
  N   N86       1.0  0.30832  0.00878  0.55282  1.0000
  Fe  Fe163     1.0  0.30089  0.22629  0.37490  1.0000
  S   S335      1.0  0.31972  0.19961  0.38367  1.0000
  S   S336      1.0  0.28890  0.23347  0.34929  1.0000
  Fe  Fe164     1.0  0.30397  0.24249  0.40641  1.0000
  S   S337      1.0  0.32248  0.21702  0.41792  1.0000
  S   S338      1.0  0.29638  0.26746  0.41929  1.0000
  Fe  Fe165     1.0  0.33684  0.21720  0.38860  1.0000
  S   S339      1.0  0.36747  0.21592  0.38212  1.0000
  Fe  Fe166     1.0  0.30356  0.20203  0.41218  1.0000
  S   S340      1.0  0.29356  0.17784  0.43218  1.0000
  S   S341      1.0  0.31946  0.24374  0.37741  1.0000
  S   S342      1.0  0.28348  0.22756  0.40309  1.0000
  H   H974      1.0  0.47910  0.06686  0.40524  1.0000
  N   N87       1.0  0.36125  0.16468  0.42407  1.0000
  S   S343      1.0  0.26189  0.17009  0.33017  1.0000
  H   H975      1.0  0.33350  0.17538  0.43631  1.0000
  S   S344      1.0  0.35197  0.41502  0.58378  1.0000
  H   H976      1.0  0.26324  0.21122  0.44102  1.0000
  S   S345      1.0  0.32793  0.38192  0.59575  1.0000
  Fe  Fe167     1.0  0.34913  0.39215  0.57193  1.0000
  S   S346      1.0  0.34254  0.39832  0.54377  1.0000
  Fe  Fe168     1.0  0.33243  0.40334  0.60850  1.0000
  H   H977      1.0  0.27988  0.23022  0.31615  1.0000
  S   S347      1.0  0.37310  0.37246  0.58223  1.0000
  Fe  Fe169     1.0  0.35988  0.31401  0.44743  1.0000
  S   S348      1.0  0.35997  0.33984  0.42589  1.0000
  S   S349      1.0  0.36395  0.28679  0.43928  1.0000
  Fe  Fe170     1.0  0.35618  0.33355  0.47847  1.0000
  S   S350      1.0  0.35549  0.36109  0.45961  1.0000
  S   S351      1.0  0.35672  0.32842  0.50870  1.0000
  Fe  Fe171     1.0  0.33689  0.35214  0.44650  1.0000
  S   S352      1.0  0.31169  0.37244  0.43912  1.0000
  Fe  Fe172     1.0  0.37857  0.34659  0.44062  1.0000
  S   S353      1.0  0.40099  0.36204  0.42434  1.0000
  S   S354      1.0  0.33536  0.32575  0.46718  1.0000
  S   S355      1.0  0.38080  0.31954  0.46036  1.0000
  H   H978      1.0  0.43371  0.16333  0.30747  1.0000
  S   S356      1.0  0.27868  0.44362  0.36289  1.0000
  C   C974      1.0  0.24619  0.18833  0.60418  1.0000
  Fe  Fe173     1.0  0.28396  0.41946  0.34956  1.0000
  S   S357      1.0  0.30416  0.39305  0.35591  1.0000
  S   S358      1.0  0.28741  0.43627  0.32091  1.0000
  C   C975      1.0  0.30869  0.37678  0.41631  1.0000
  C   C976      1.0  0.29467  0.39118  0.41066  1.0000
  C   C977      1.0  0.29290  0.39595  0.39219  1.0000
  C   C978      1.0  0.30515  0.38631  0.37931  1.0000
  C   C979      1.0  0.31889  0.37162  0.38501  1.0000
  C   C980      1.0  0.32062  0.36684  0.40348  1.0000
  H   H979      1.0  0.28527  0.39880  0.42055  1.0000
  H   H980      1.0  0.28204  0.40709  0.38798  1.0000
  H   H981      1.0  0.32833  0.36408  0.37510  1.0000
  H   H982      1.0  0.33119  0.35553  0.40774  1.0000
  H   H983      1.0  0.42775  0.17634  0.36901  1.0000
  H   H984      1.0  0.47642  0.30125  0.41002  1.0000
  C   C981      1.0  0.38688  0.17927  0.42001  1.0000
  S   S359      1.0  0.35472  0.38440  0.62242  1.0000
  H   H985      1.0  0.46121  0.37199  0.42661  1.0000
  C   C982      1.0  0.41303  0.17743  0.37092  1.0000
  C   C983      1.0  0.34669  0.37890  0.53400  1.0000
  C   C984      1.0  0.35504  0.36171  0.54275  1.0000
  C   C985      1.0  0.35812  0.34630  0.53484  1.0000
  C   C986      1.0  0.35272  0.34798  0.51822  1.0000
  C   C987      1.0  0.34434  0.36516  0.50949  1.0000
  C   C988      1.0  0.34140  0.38061  0.51733  1.0000
  H   H986      1.0  0.35919  0.36028  0.55559  1.0000
  H   H987      1.0  0.36481  0.33307  0.54155  1.0000
  H   H988      1.0  0.33981  0.36653  0.49687  1.0000
  H   H989      1.0  0.33484  0.39387  0.51056  1.0000
  C   C989      1.0  0.29642  0.43962  0.60969  1.0000
  H   H990      1.0  0.31100  0.27013  0.57409  1.0000
  H   H991      1.0  0.30480  0.98102  0.55682  1.0000
  C   C990      1.0  0.45391  0.34843  0.44676  1.0000
  C   C991      1.0  0.44085  0.33712  0.45378  1.0000
  C   C992      1.0  0.42482  0.34090  0.44660  1.0000
  C   C993      1.0  0.42182  0.35594  0.43229  1.0000
  C   C994      1.0  0.43521  0.36687  0.42482  1.0000
  C   C995      1.0  0.45122  0.36317  0.43209  1.0000
  H   H992      1.0  0.44294  0.32563  0.46505  1.0000
  H   H993      1.0  0.41471  0.33228  0.45227  1.0000
  H   H994      1.0  0.43299  0.37851  0.41371  1.0000
  C   C996      1.0  0.31470  0.27206  0.42645  1.0000
  C   C997      1.0  0.31219  0.28798  0.43340  1.0000
  C   C998      1.0  0.32709  0.29243  0.43795  1.0000
  C   C999      1.0  0.34443  0.28075  0.43591  1.0000
  C   C1000     1.0  0.34671  0.26452  0.42964  1.0000
  C   C1001     1.0  0.33198  0.26032  0.42469  1.0000
  H   H995      1.0  0.29885  0.29714  0.43482  1.0000
  H   H996      1.0  0.32521  0.30502  0.44274  1.0000
  H   H997      1.0  0.36010  0.25548  0.42797  1.0000
  H   H998      1.0  0.33424  0.24823  0.41906  1.0000
  C   C1002     1.0  0.28331  0.21512  0.34323  1.0000
  C   C1003     1.0  0.27887  0.21748  0.32598  1.0000
  C   C1004     1.0  0.27268  0.20359  0.32158  1.0000
  C   C1005     1.0  0.27099  0.18725  0.33442  1.0000
  C   C1006     1.0  0.27593  0.18473  0.35144  1.0000
  C   C1007     1.0  0.28205  0.19862  0.35586  1.0000
  S   S360      1.0  0.47181  0.14645  0.37065  1.0000
  H   H999      1.0  0.40176  0.13530  0.41377  1.0000
  H   H1000     1.0  0.27469  0.17210  0.36139  1.0000
  H   H1001     1.0  0.28538  0.19669  0.36920  1.0000
  C   C1008     1.0  0.28062  0.17971  0.49330  1.0000
  C   C1009     1.0  0.29295  0.19004  0.48086  1.0000
  C   C1010     1.0  0.29700  0.18953  0.46209  1.0000
  C   C1011     1.0  0.28916  0.17828  0.45573  1.0000
  C   C1012     1.0  0.27729  0.16749  0.46825  1.0000
  C   C1013     1.0  0.27285  0.16836  0.48699  1.0000
  H   H1002     1.0  0.29902  0.19883  0.48569  1.0000
  H   H1003     1.0  0.30618  0.19786  0.45263  1.0000
  H   H1004     1.0  0.27119  0.15875  0.46339  1.0000
  H   H1005     1.0  0.26332  0.16037  0.49648  1.0000
  S   S361      1.0  0.48137  0.19544  0.35380  1.0000
  Fe  Fe174     1.0  0.37403  0.39442  0.59651  1.0000
  H   H1006     1.0  0.24742  0.24630  0.34571  1.0000
  H   H1007     1.0  0.32881  0.28221  0.37725  1.0000
  H   H1008     1.0  0.41826  0.16068  0.32969  1.0000
  H   H1009     1.0  0.27493  0.23900  0.44043  1.0000
  H   H1010     1.0  0.30912  0.08625  0.61796  1.0000
  H   H1011     1.0  0.28785  0.25330  0.45860  1.0000
  C   C1014     1.0  0.27813  0.47062  0.58815  1.0000
  C   C1015     1.0  0.27836  0.38837  0.32084  1.0000
  C   C1016     1.0  0.26417  0.42757  0.58817  1.0000
  H   H1012     1.0  0.43774  0.42362  0.62610  1.0000
  C   C1017     1.0  0.26793  0.21260  0.60564  1.0000
  C   C1018     1.0  0.25481  0.20694  0.62109  1.0000
  C   C1019     1.0  0.27122  0.23572  0.45532  1.0000
  C   C1020     1.0  0.42132  0.41483  0.61191  1.0000
  C   C1021     1.0  0.25944  0.19382  0.58883  1.0000
  C   C1022     1.0  0.27027  0.20592  0.58957  1.0000
  S   S362      1.0  0.47296  0.34431  0.45720  1.0000
  C   C1023     1.0  0.30623  0.43789  0.54097  1.0000
  C   C1024     1.0  0.33431  0.32506  0.62404  1.0000
  H   H1013     1.0  0.28038  0.21028  0.57756  1.0000
  C   C1025     1.0  0.38674  0.16360  0.37443  1.0000
  C   C1026     1.0  0.37475  0.18030  0.37707  1.0000
  C   C1027     1.0  0.38193  0.19548  0.37683  1.0000
  C   C1028     1.0  0.40107  0.19407  0.37352  1.0000
  H   H1014     1.0  0.38118  0.15178  0.37489  1.0000
  H   H1015     1.0  0.35999  0.18133  0.37955  1.0000
  Fe  Fe175     1.0  0.23561  0.16463  0.57660  1.0000
  H   H1016     1.0  0.39039  0.37927  0.46183  1.0000
  H   H1017     1.0  0.28991  0.99817  0.54344  1.0000
  C   C1029     1.0  0.29476  0.41908  0.57043  1.0000
  H   H1018     1.0  0.33450  0.28393  0.54896  1.0000
  C   C1030     1.0  0.29920  0.06607  0.58986  1.0000
  C   C1031     1.0  0.29864  0.08463  0.58161  1.0000
  C   C1032     1.0  0.28348  0.09499  0.57396  1.0000
  C   C1033     1.0  0.26894  0.08674  0.57438  1.0000
  C   C1034     1.0  0.26966  0.06808  0.58233  1.0000
  C   C1035     1.0  0.28471  0.05778  0.59018  1.0000
  H   H1019     1.0  0.30987  0.09106  0.58127  1.0000
  H   H1020     1.0  0.28306  0.10934  0.56773  1.0000
  H   H1021     1.0  0.25837  0.06168  0.58275  1.0000
  H   H1022     1.0  0.28499  0.04350  0.59668  1.0000
  H   H1023     1.0  0.40925  0.17275  0.30968  1.0000
  C   C1036     1.0  0.32978  0.03415  0.55037  1.0000
  H   H1024     1.0  0.33879  0.31509  0.54787  1.0000
  Fe  Fe176     1.0  0.25398  0.16671  0.53668  1.0000
  C   C1037     1.0  0.30540  0.44693  0.59210  1.0000
  S   S363      1.0  0.42076  0.14084  0.37001  1.0000
  H   H1025     1.0  0.24215  0.25519  0.60020  1.0000
  H   H1026     1.0  0.31621  0.45805  0.30927  1.0000
  H   H1027     1.0  0.32898  0.32174  0.37783  1.0000
  Fe  Fe177     1.0  0.35202  0.36395  0.60726  1.0000
  H   H1028     1.0  0.36798  0.13698  0.42033  1.0000
  H   H1029     1.0  0.31927  0.41933  0.39640  1.0000
  H   H1030     1.0  0.33738  0.15232  0.43341  1.0000
  H   H1031     1.0  0.28420  0.40388  0.59721  1.0000
  H   H1032     1.0  0.41061  0.40157  0.44613  1.0000
  N   N88       1.0  0.29148  0.43432  0.55705  1.0000
  C   C1038     1.0  0.36023  0.29491  0.39282  1.0000
  S   S364      1.0  0.25412  0.41932  0.35236  1.0000
  C   C1039     1.0  0.31289  0.28390  0.57334  1.0000
  H   H1033     1.0  0.31939  0.44079  0.58676  1.0000
  Fe  Fe178     1.0  0.24887  0.44522  0.36320  1.0000
  H   H1034     1.0  0.33498  0.33569  0.57466  1.0000
  H   H1035     1.0  0.38632  0.35011  0.62099  1.0000
  H   H1036     1.0  0.28783  0.33936  0.62810  1.0000
  H   H1037     1.0  0.25374  0.42531  0.60061  1.0000
  H   H1038     1.0  0.38224  0.35526  0.48595  1.0000
  H   H1039     1.0  0.23931  0.13400  0.60683  1.0000
  S   S365      1.0  0.24897  0.46390  0.33560  1.0000
  H   H1040     1.0  0.46590  0.43670  0.56760  1.0000
  C   C1040     1.0  0.26080  0.44288  0.57427  1.0000
  C   C1041     1.0  0.30194  0.31109  0.63061  1.0000
  H   H1041     1.0  0.40267  0.33761  0.48609  1.0000
  H   H1042     1.0  0.25628  0.34120  0.34694  1.0000
  C   C1042     1.0  0.32608  0.29159  0.55933  1.0000
  Fe  Fe179     1.0  0.29849  0.99133  0.62100  1.0000
  C   C1043     1.0  0.29631  0.46243  0.58137  1.0000
  H   H1043     1.0  0.36180  0.30559  0.39899  1.0000
  H   H1044     1.0  0.42503  0.12794  0.33676  1.0000
  H   H1045     1.0  0.43995  0.39887  0.45611  1.0000
  S   S366      1.0  0.48044  0.47072  0.60407  1.0000
  C   C1044     1.0  0.25158  0.10529  0.61346  1.0000
  H   H1046     1.0  0.48220  0.01970  0.45661  1.0000
  C   C1045     1.0  0.27832  0.44795  0.61655  1.0000
  H   H1047     1.0  0.24818  0.20200  0.46106  1.0000
  C   C1046     1.0  0.31906  0.29907  0.63022  1.0000
  S   S367      1.0  0.46818  0.12448  0.34016  1.0000
  H   H1048     1.0  0.48294  0.09625  0.38323  1.0000
  C   C1047     1.0  0.35972  0.39624  0.37637  1.0000
  C   C1048     1.0  0.37319  0.14878  0.42071  1.0000
  H   H1049     1.0  0.38074  0.37836  0.39069  1.0000
  H   H1050     1.0  0.31988  0.28448  0.63201  1.0000
  H   H1051     1.0  0.36292  0.38347  0.42136  1.0000
  C   C1049     1.0  0.43554  0.37540  0.47775  1.0000
  C   C1050     1.0  0.30106  0.33002  0.62776  1.0000
  C   C1051     1.0  0.24397  0.19483  0.62034  1.0000
  H   H1052     1.0  0.33807  0.40760  0.35176  1.0000
  H   H1053     1.0  0.35848  0.19278  0.42525  1.0000
  H   H1054     1.0  0.30335  0.46805  0.56777  1.0000
  N   N89       1.0  0.40763  0.36466  0.48095  1.0000
  N   N90       1.0  0.31789  0.31903  0.57176  1.0000
  C   C1052     1.0  0.41422  0.39103  0.45773  1.0000
  H   H1055     1.0  0.31504  0.30674  0.39457  1.0000
  H   H1056     1.0  0.32089  0.34604  0.55750  1.0000
  H   H1057     1.0  0.33673  0.17080  0.41362  1.0000
  C   C1053     1.0  0.39230  0.14769  0.41714  1.0000
  C   C1054     1.0  0.37283  0.26580  0.38337  1.0000
  S   S368      1.0  0.40181  0.40069  0.59515  1.0000
  H   H1058     1.0  0.24586  0.21007  0.48968  1.0000
  H   H1059     1.0  0.48089  0.43015  0.58401  1.0000
  H   H1060     1.0  0.30272  0.45164  0.53221  1.0000
  H   H1061     1.0  0.30410  0.05378  0.55294  1.0000
  C   C1055     1.0  0.40282  0.37836  0.46670  1.0000
  S   S369      1.0  0.34524  0.00553  0.61553  1.0000
  H   H1062     1.0  0.48191  0.98828  0.51154  1.0000
  H   H1063     1.0  0.31836  0.46030  0.61994  1.0000
  N   N91       1.0  0.25977  0.22359  0.46396  1.0000
  H   H1064     1.0  0.24781  0.45268  0.57589  1.0000
  H   H1065     1.0  0.42131  0.09861  0.33155  1.0000
  C   C1056     1.0  0.40589  0.16211  0.37158  1.0000
  Fe  Fe180     1.0  0.47361  0.14951  0.31882  1.0000
  H   H1066     1.0  0.44865  0.37366  0.48172  1.0000
  C   C1057     1.0  0.47696  0.44060  0.57199  1.0000
  H   H1067     1.0  0.41002  0.33827  0.61860  1.0000
  H   H1068     1.0  0.34849  0.29679  0.62663  1.0000
  C   C1058     1.0  0.32124  0.33716  0.57135  1.0000
  C   C1059     1.0  0.41936  0.36636  0.63063  1.0000
  C   C1060     1.0  0.32711  0.00337  0.55061  1.0000
  H   H1069     1.0  0.42792  0.35176  0.49730  1.0000
  Fe  Fe181     1.0  0.33854  0.98699  0.60082  1.0000
  H   H1070     1.0  0.41391  0.16261  0.41328  1.0000
  C   C1061     1.0  0.31069  0.03968  0.55202  1.0000
  C   C1062     1.0  0.26807  0.37650  0.33390  1.0000
  C   C1063     1.0  0.32857  0.31119  0.39071  1.0000
  C   C1064     1.0  0.30208  0.29405  0.58641  1.0000
  H   H1071     1.0  0.33191  0.40388  0.42426  1.0000
  C   C1065     1.0  0.34182  0.28182  0.38080  1.0000
  C   C1066     1.0  0.35729  0.39035  0.40921  1.0000
  H   H1072     1.0  0.36754  0.39394  0.36296  1.0000
  H   H1073     1.0  0.28594  0.99593  0.56815  1.0000
  H   H1074     1.0  0.31075  0.34430  0.58156  1.0000
  H   H1075     1.0  0.47134  0.45378  0.57687  1.0000
  C   C1067     1.0  0.36727  0.38744  0.39192  1.0000
  C   C1068     1.0  0.33288  0.41058  0.39498  1.0000
  H   H1076     1.0  0.23736  0.09520  0.50464  1.0000
  N   N92       1.0  0.34385  0.29551  0.38824  1.0000
  H   H1077     1.0  0.28570  0.39645  0.32516  1.0000
  H   H1078     1.0  0.25283  0.21211  0.63349  1.0000
  H   H1079     1.0  0.43207  0.41386  0.59974  1.0000
  Fe  Fe182     1.0  0.44976  0.14470  0.35687  1.0000
  H   H1080     1.0  0.41169  0.09802  0.30302  1.0000
  C   C1069     1.0  0.34130  0.16584  0.42696  1.0000
  S   S370      1.0  0.27083  0.98442  0.62334  1.0000
  C   C1070     1.0  0.27854  0.24390  0.46553  1.0000
  H   H1081     1.0  0.29178  0.28825  0.59743  1.0000
  C   C1071     1.0  0.34001  0.40198  0.41079  1.0000
  C   C1072     1.0  0.40444  0.41002  0.61293  1.0000
  H   H1082     1.0  0.32926  0.31750  0.40205  1.0000
  C   C1073     1.0  0.30010  0.02673  0.55324  1.0000
  C   C1074     1.0  0.41834  0.11122  0.32165  1.0000
  C   C1075     1.0  0.36787  0.17989  0.42352  1.0000
  H   H1083     1.0  0.39332  0.34943  0.50513  1.0000
  N   N93       1.0  0.34267  0.40753  0.37807  1.0000
  C   C1076     1.0  0.37488  0.27997  0.39067  1.0000
  C   C1077     1.0  0.27872  0.39010  0.30222  1.0000
  H   H1084     1.0  0.29604  0.31957  0.59541  1.0000
  H   H1085     1.0  0.42935  0.36637  0.61776  1.0000
  H   H1086     1.0  0.38389  0.25391  0.38193  1.0000
  H   H1087     1.0  0.27127  0.44232  0.63015  1.0000
  H   H1088     1.0  0.24067  0.10061  0.61023  1.0000
  H   H1089     1.0  0.40668  0.20577  0.37338  1.0000
  Fe  Fe183     1.0  0.25698  0.43790  0.32452  1.0000
  H   H1090     1.0  0.39203  0.19156  0.41894  1.0000
  C   C1078     1.0  0.39914  0.16305  0.41681  1.0000
  H   H1091     1.0  0.47271  0.11483  0.30632  1.0000
  S   S371      1.0  0.35467  0.33369  0.61966  1.0000
  Fe  Fe184     1.0  0.24580  0.13028  0.55975  1.0000
  H   H1092     1.0  0.28520  0.03100  0.55519  1.0000
  C   C1079     1.0  0.43068  0.38950  0.46331  1.0000
  H   H1093     1.0  0.48514  0.04808  0.37180  1.0000
  C   C1080     1.0  0.33523  0.30607  0.62706  1.0000
  H   H1094     1.0  0.37968  0.01027  0.63410  1.0000
  H   H1095     1.0  0.27981  0.24572  0.49277  1.0000
  Fe  Fe185     1.0  0.47749  0.16979  0.34703  1.0000
  C   C1081     1.0  0.39593  0.35109  0.48994  1.0000
  S   S372      1.0  0.24949  0.09946  0.56554  1.0000
  H   H1096     1.0  0.38748  0.27915  0.39520  1.0000
  H   H1097     1.0  0.27217  0.45846  0.54838  1.0000
  H   H1098     1.0  0.32003  0.42154  0.36485  1.0000
  C   C1082     1.0  0.35629  0.26680  0.37823  1.0000
  C   C1083     1.0  0.32845  0.30926  0.55878  1.0000
  C   C1084     1.0  0.25476  0.21984  0.48274  1.0000
  H   H1099     1.0  0.26382  0.46699  0.39530  1.0000
  Fe  Fe186     1.0  0.27846  0.23859  0.63160  1.0000
  C   C1085     1.0  0.29671  0.99533  0.55534  1.0000
  C   C1086     1.0  0.27471  0.44610  0.55872  1.0000
  H   H1100     1.0  0.26126  0.18890  0.57630  1.0000
  C   C1087     1.0  0.39057  0.41135  0.62867  1.0000
  S   S373      1.0  0.30765  0.42047  0.62355  1.0000
  H   H1101     1.0  0.33369  0.98909  0.55064  1.0000
  H   H1102     1.0  0.33805  0.04387  0.55019  1.0000
  H   H1103     1.0  0.34158  0.42918  0.35464  1.0000
  H   H1104     1.0  0.35287  0.01131  0.54869  1.0000
  C   C1088     1.0  0.25246  0.21500  0.45297  1.0000
  C   C1089     1.0  0.26661  0.09264  0.61942  1.0000
  C   C1090     1.0  0.27393  0.23975  0.48468  1.0000
  C   C1091     1.0  0.30467  0.31174  0.58530  1.0000
  C   C1092     1.0  0.33809  0.01593  0.54948  1.0000
  N   N94       1.0  0.25838  0.36663  0.32853  1.0000
  H   H1105     1.0  0.31625  0.35156  0.62269  1.0000
  H   H1106     1.0  0.37750  0.40776  0.62956  1.0000
  H   H1107     1.0  0.26761  0.37555  0.34837  1.0000
  C   C1093     1.0  0.28124  0.41555  0.58626  1.0000
  Fe  Fe187     1.0  0.25027  0.17494  0.30474  1.0000
  C   C1094     1.0  0.26913  0.46332  0.60573  1.0000
  H   H1108     1.0  0.24660  0.27340  0.31029  1.0000
  C   C1095     1.0  0.29653  0.08526  0.62894  1.0000
  H   H1109     1.0  0.29161  0.12159  0.62291  1.0000
  C   C1096     1.0  0.42453  0.42040  0.62678  1.0000
  H   H1110     1.0  0.26504  0.14454  0.61273  1.0000
  C   C1097     1.0  0.26540  0.12993  0.61468  1.0000
  H   H1111     1.0  0.31918  0.43732  0.54546  1.0000
  H   H1112     1.0  0.48155  0.46992  0.54541  1.0000
  H   H1113     1.0  0.26895  0.20564  0.30842  1.0000
  H   H1114     1.0  0.40386  0.36101  0.60510  1.0000
  H   H1115     1.0  0.25498  0.46919  0.61089  1.0000
  H   H1116     1.0  0.25160  0.35984  0.30598  1.0000
  H   H1117     1.0  0.26711  0.07811  0.62083  1.0000
  C   C1098     1.0  0.32088  0.47086  0.30357  1.0000
  C   C1099     1.0  0.28031  0.11691  0.62045  1.0000
  H   H1118     1.0  0.48386  0.32019  0.42803  1.0000
  N   N95       1.0  0.28067  0.09854  0.62293  1.0000
  H   H1119     1.0  0.24206  0.21451  0.35459  1.0000
  H   H1120     1.0  0.24042  0.36104  0.35454  1.0000
  C   C1100     1.0  0.40079  0.35192  0.61880  1.0000
  H   H1121     1.0  0.24046  0.22457  0.44792  1.0000
  C   C1101     1.0  0.41282  0.11090  0.30573  1.0000
  C   C1102     1.0  0.42047  0.12784  0.32448  1.0000
  C   C1103     1.0  0.23791  0.24254  0.33952  1.0000
  H   H1122     1.0  0.29449  0.07086  0.63183  1.0000
  C   C1104     1.0  0.47979  0.00459  0.48469  1.0000
  N   N96       1.0  0.40350  0.35998  0.63314  1.0000
  C   C1105     1.0  0.30904  0.46628  0.63159  1.0000
  Fe  Fe188     1.0  0.46625  0.46131  0.63327  1.0000
  S   S374      1.0  0.28142  0.30323  0.63359  1.0000
  H   H1123     1.0  0.23613  0.35209  0.33703  1.0000
  C   C1106     1.0  0.28299  0.22385  0.93853  1.0000
  Fe  Fe189     1.0  0.33696  0.17507  0.80958  1.0000
  S   S375      1.0  0.34296  0.20350  0.80202  1.0000
  S   S376      1.0  0.32278  0.16235  0.83777  1.0000
  Fe  Fe190     1.0  0.35753  0.16568  0.77245  1.0000
  S   S377      1.0  0.36563  0.19317  0.76208  1.0000
  S   S378      1.0  0.36585  0.14713  0.75191  1.0000
  Fe  Fe191     1.0  0.37164  0.18983  0.79006  1.0000
  S   S379      1.0  0.39898  0.19264  0.79444  1.0000
  Fe  Fe192     1.0  0.33639  0.20410  0.77471  1.0000
  S   S380      1.0  0.31765  0.22698  0.75930  1.0000
  S   S381      1.0  0.36604  0.16121  0.79935  1.0000
  S   S382      1.0  0.32786  0.17677  0.78348  1.0000
  H   H1124     1.0  0.33424  0.02069  0.65206  1.0000
  Fe  Fe193     1.0  0.36523  0.03727  0.72043  1.0000
  S   S383      1.0  0.38501  0.01086  0.72710  1.0000
  S   S384      1.0  0.35584  0.04609  0.69347  1.0000
  Fe  Fe194     1.0  0.36129  0.04737  0.75726  1.0000
  S   S385      1.0  0.38010  0.02135  0.76751  1.0000
  S   S386      1.0  0.34906  0.06679  0.77697  1.0000
  Fe  Fe195     1.0  0.39802  0.02676  0.73949  1.0000
  S   S387      1.0  0.42880  0.02491  0.73372  1.0000
  Fe  Fe196     1.0  0.36552  0.00769  0.75440  1.0000
  N   N97       1.0  0.31666  0.27857  0.68679  1.0000
  S   S388      1.0  0.38021  0.05377  0.72997  1.0000
  S   S389      1.0  0.34468  0.03306  0.74695  1.0000
  H   H1125     1.0  0.27451  0.22230  0.90779  1.0000
  C   C1107     1.0  0.30267  0.29271  0.67845  1.0000
  H   H1126     1.0  0.34143  0.04584  0.66242  1.0000
  Fe  Fe197     1.0  0.45248  0.28006  0.84635  1.0000
  Fe  Fe198     1.0  0.42998  0.25310  0.84391  1.0000
  S   S390      1.0  0.44796  0.22870  0.85808  1.0000
  S   S391      1.0  0.40335  0.25232  0.83641  1.0000
  Fe  Fe199     1.0  0.44733  0.24686  0.87724  1.0000
  S   S392      1.0  0.44342  0.23537  0.90772  1.0000
  S   S393      1.0  0.42737  0.27023  0.86466  1.0000
  S   S394      1.0  0.45361  0.26475  0.82450  1.0000
  C   C1108     1.0  0.39387  0.41669  0.64362  1.0000
  H   H1127     1.0  0.45535  0.39008  0.78206  1.0000
  S   S395      1.0  0.30162  0.01062  0.63734  1.0000
  C   C1109     1.0  0.40995  0.05077  0.79812  1.0000
  Fe  Fe200     1.0  0.43785  0.44075  0.65928  1.0000
  C   C1110     1.0  0.47298  0.31823  0.83675  1.0000
  H   H1128     1.0  0.41569  0.06540  0.73306  1.0000
  H   H1129     1.0  0.32785  0.26725  0.66261  1.0000
  H   H1130     1.0  0.23599  0.18288  0.86071  1.0000
  S   S396      1.0  0.25301  0.20968  0.88083  1.0000
  S   S397      1.0  0.44244  0.44834  0.68411  1.0000
  H   H1131     1.0  0.42412  0.08380  0.73718  1.0000
  Fe  Fe201     1.0  0.29592  0.23573  0.66409  1.0000
  H   H1132     1.0  0.25422  0.21580  0.92351  1.0000
  S   S398      1.0  0.31925  0.21970  0.67835  1.0000
  H   H1133     1.0  0.43913  0.06171  0.73483  1.0000
  C   C1111     1.0  0.41095  0.42091  0.64285  1.0000
  S   S399      1.0  0.27605  0.26021  0.67306  1.0000
  C   C1112     1.0  0.31794  0.27779  0.70447  1.0000
  H   H1134     1.0  0.27801  0.00304  0.78167  1.0000
  S   S400      1.0  0.28307  0.98403  0.82456  1.0000
  C   C1113     1.0  0.47475  0.42645  0.71965  1.0000
  H   H1135     1.0  0.27300  0.17233  0.89045  1.0000
  H   H1136     1.0  0.38489  0.03245  0.64999  1.0000
  H   H1137     1.0  0.25232  0.11784  0.88202  1.0000
  H   H1138     1.0  0.30826  0.30539  0.67181  1.0000
  H   H1139     1.0  0.46362  0.38796  0.80267  1.0000
  C   C1114     1.0  0.24723  0.17166  0.85729  1.0000
  S   S401      1.0  0.47235  0.25799  0.86076  1.0000
  C   C1115     1.0  0.26527  0.12325  0.87875  1.0000
  H   H1140     1.0  0.37000  0.23447  0.85753  1.0000
  H   H1141     1.0  0.35452  0.24230  0.70830  1.0000
  C   C1116     1.0  0.38723  0.01788  0.65594  1.0000
  H   H1142     1.0  0.41139  0.38100  0.67079  1.0000
  H   H1143     1.0  0.33399  0.19388  0.85076  1.0000
  C   C1117     1.0  0.37569  0.22034  0.86438  1.0000
  C   C1118     1.0  0.34285  0.25373  0.68405  1.0000
  C   C1119     1.0  0.43297  0.05766  0.77077  1.0000
  C   C1120     1.0  0.26944  0.21164  0.91942  1.0000
  C   C1121     1.0  0.46585  0.01739  0.76585  1.0000
  Fe  Fe202     1.0  0.32829  0.99095  0.64062  1.0000
  H   H1144     1.0  0.40617  0.04598  0.81284  1.0000
  S   S402      1.0  0.27424  0.22236  0.66059  1.0000
  H   H1145     1.0  0.47975  0.01951  0.76399  1.0000
  H   H1146     1.0  0.45901  0.34580  0.83941  1.0000
  C   C1122     1.0  0.44613  0.25034  0.92042  1.0000
  C   C1123     1.0  0.45130  0.26707  0.91146  1.0000
  C   C1124     1.0  0.45291  0.27918  0.92172  1.0000
  C   C1125     1.0  0.44913  0.27475  0.94097  1.0000
  C   C1126     1.0  0.44410  0.25793  0.94998  1.0000
  C   C1127     1.0  0.44269  0.24569  0.93969  1.0000
  H   H1147     1.0  0.45386  0.27084  0.89662  1.0000
  C   C1128     1.0  0.38348  0.97393  0.64545  1.0000
  C   C1129     1.0  0.39257  0.01167  0.67289  1.0000
  H   H1148     1.0  0.43874  0.23272  0.94665  1.0000
  C   C1130     1.0  0.30102  0.00646  0.75915  1.0000
  H   H1149     1.0  0.27451  0.18147  0.94534  1.0000
  C   C1131     1.0  0.32919  0.99728  0.78953  1.0000
  C   C1132     1.0  0.31261  0.99793  0.80263  1.0000
  C   C1133     1.0  0.40763  0.29860  0.93769  1.0000
  H   H1150     1.0  0.41447  0.30868  0.92745  1.0000
  C   C1134     1.0  0.34834  0.19381  0.85029  1.0000
  H   H1151     1.0  0.33595  0.00894  0.78525  1.0000
  H   H1152     1.0  0.30654  0.01016  0.80832  1.0000
  H   H1153     1.0  0.39933  0.19431  0.84768  1.0000
  C   C1135     1.0  0.38415  0.00529  0.64713  1.0000
  C   C1136     1.0  0.45605  0.01123  0.78346  1.0000
  H   H1154     1.0  0.44962  0.34729  0.80135  1.0000
  C   C1137     1.0  0.45755  0.02106  0.75057  1.0000
  C   C1138     1.0  0.43943  0.01867  0.75286  1.0000
  C   C1139     1.0  0.42987  0.01203  0.77042  1.0000
  C   C1140     1.0  0.43816  0.00831  0.78569  1.0000
  H   H1155     1.0  0.38274  0.36902  0.67535  1.0000
  H   H1156     1.0  0.46510  0.02603  0.73699  1.0000
  H   H1157     1.0  0.41614  0.00968  0.77229  1.0000
  H   H1158     1.0  0.43058  0.00343  0.79927  1.0000
  C   C1141     1.0  0.31777  0.22444  0.73708  1.0000
  C   C1142     1.0  0.33221  0.21263  0.72799  1.0000
  C   C1143     1.0  0.33256  0.21144  0.70993  1.0000
  C   C1144     1.0  0.31830  0.22175  0.70096  1.0000
  C   C1145     1.0  0.30366  0.23330  0.71016  1.0000
  C   C1146     1.0  0.30348  0.23474  0.72813  1.0000
  H   H1159     1.0  0.34327  0.20459  0.73475  1.0000
  H   H1160     1.0  0.34393  0.20246  0.70291  1.0000
  H   H1161     1.0  0.29250  0.24115  0.70350  1.0000
  H   H1162     1.0  0.29223  0.24385  0.73513  1.0000
  C   C1147     1.0  0.40041  0.21027  0.80466  1.0000
  C   C1148     1.0  0.41708  0.20998  0.80947  1.0000
  C   C1149     1.0  0.41834  0.22311  0.81880  1.0000
  C   C1150     1.0  0.40292  0.23669  0.82322  1.0000
  C   C1151     1.0  0.38637  0.23720  0.81808  1.0000
  C   C1152     1.0  0.38507  0.22398  0.80890  1.0000
  H   H1163     1.0  0.42899  0.19940  0.80616  1.0000
  H   H1164     1.0  0.43113  0.22267  0.82271  1.0000
  H   H1165     1.0  0.37444  0.24776  0.82137  1.0000
  H   H1166     1.0  0.37221  0.22435  0.80517  1.0000
  C   C1153     1.0  0.36113  0.12487  0.75928  1.0000
  C   C1154     1.0  0.35237  0.11867  0.77734  1.0000
  C   C1155     1.0  0.34860  0.10083  0.78264  1.0000
  C   C1156     1.0  0.35347  0.08924  0.76990  1.0000
  C   C1157     1.0  0.36202  0.09561  0.75182  1.0000
  C   C1158     1.0  0.36597  0.11330  0.74657  1.0000
  H   H1167     1.0  0.34859  0.12755  0.78722  1.0000
  H   H1168     1.0  0.34193  0.09600  0.79664  1.0000
  H   H1169     1.0  0.36545  0.08702  0.74180  1.0000
  H   H1170     1.0  0.37274  0.11806  0.73258  1.0000
  C   C1159     1.0  0.30433  0.17620  0.85002  1.0000
  C   C1160     1.0  0.29775  0.19448  0.84231  1.0000
  C   C1161     1.0  0.28224  0.20481  0.85208  1.0000
  C   C1162     1.0  0.27310  0.19682  0.86941  1.0000
  C   C1163     1.0  0.27988  0.17863  0.87716  1.0000
  C   C1164     1.0  0.29554  0.16841  0.86757  1.0000
  H   H1171     1.0  0.30441  0.20057  0.82873  1.0000
  H   H1172     1.0  0.27706  0.21890  0.84601  1.0000
  H   H1173     1.0  0.48236  0.20318  0.86012  1.0000
  H   H1174     1.0  0.30061  0.15428  0.87359  1.0000
  C   C1165     1.0  0.34059  0.00022  0.67572  1.0000
  C   C1166     1.0  0.34601  0.99685  0.69260  1.0000
  C   C1167     1.0  0.34988  0.01112  0.69855  1.0000
  C   C1168     1.0  0.34853  0.02874  0.68754  1.0000
  C   C1169     1.0  0.34252  0.03223  0.67095  1.0000
  C   C1170     1.0  0.33852  0.01799  0.66505  1.0000
  H   H1175     1.0  0.29891  0.08786  0.64169  1.0000
  H   H1176     1.0  0.35446  0.00834  0.71138  1.0000
  C   C1171     1.0  0.48412  0.47143  0.70455  1.0000
  C   C1172     1.0  0.34272  0.15678  0.71521  1.0000
  H   H1177     1.0  0.35397  0.16315  0.71617  1.0000
  Fe  Fe203     1.0  0.28038  0.27318  0.64314  1.0000
  S   S403      1.0  0.44973  0.29109  0.95320  1.0000
  C   C1173     1.0  0.32894  0.26681  0.67656  1.0000
  H   H1178     1.0  0.39085  0.21934  0.86223  1.0000
  N   N98       1.0  0.26357  0.14070  0.86546  1.0000
  C   C1174     1.0  0.24894  0.15458  0.86930  1.0000
  C   C1175     1.0  0.27673  0.14331  0.84973  1.0000
  H   H1179     1.0  0.45676  0.29221  0.91470  1.0000
  N   N99       1.0  0.38622  0.98703  0.65508  1.0000
  H   H1180     1.0  0.39437  0.02140  0.68014  1.0000
  C   C1176     1.0  0.27530  0.16013  0.83728  1.0000
  C   C1177     1.0  0.29217  0.20521  0.96635  1.0000
  H   H1181     1.0  0.37793  0.35562  0.65107  1.0000
  C   C1178     1.0  0.31373  0.99851  0.74535  1.0000
  H   H1182     1.0  0.35212  0.24399  0.67611  1.0000
  H   H1183     1.0  0.44416  0.37824  0.80400  1.0000
  N   N100      1.0  0.39190  0.27183  0.96430  1.0000
  H   H1184     1.0  0.30133  0.45550  0.64018  1.0000
  H   H1185     1.0  0.30185  0.01972  0.76116  1.0000
  H   H1186     1.0  0.34765  0.98311  0.70085  1.0000
  H   H1187     1.0  0.35875  0.17080  0.83670  1.0000
  H   H1188     1.0  0.24386  0.24435  0.96185  1.0000
  S   S404      1.0  0.46545  0.00809  0.80295  1.0000
  C   C1179     1.0  0.29026  0.22204  0.95408  1.0000
  C   C1180     1.0  0.40533  0.28307  0.93283  1.0000
  H   H1189     1.0  0.36994  0.21847  0.87937  1.0000
  C   C1181     1.0  0.39323  0.36804  0.66294  1.0000
  C   C1182     1.0  0.47223  0.33682  0.83614  1.0000
  C   C1183     1.0  0.48094  0.18923  0.81810  1.0000
  S   S405      1.0  0.24745  0.16977  0.92412  1.0000
  C   C1184     1.0  0.31277  0.98128  0.74313  1.0000
  H   H1190     1.0  0.39160  0.17143  0.83461  1.0000
  C   C1185     1.0  0.27960  0.19273  0.94729  1.0000
  H   H1191     1.0  0.31765  0.46931  0.63975  1.0000
  C   C1186     1.0  0.31353  0.17695  0.70886  1.0000
  H   H1192     1.0  0.28816  0.19580  0.70440  1.0000
  S   S406      1.0  0.33762  0.98187  0.66764  1.0000
  H   H1193     1.0  0.33488  0.97528  0.83303  1.0000
  C   C1187     1.0  0.46402  0.34771  0.79533  1.0000
  H   H1194     1.0  0.28992  0.29602  0.68884  1.0000
  H   H1195     1.0  0.27260  0.19874  0.91411  1.0000
  H   H1196     1.0  0.25969  0.18779  0.83208  1.0000
  S   S407      1.0  0.43555  0.46944  0.64262  1.0000
  C   C1188     1.0  0.47819  0.17420  0.83236  1.0000
  Fe  Fe204     1.0  0.23529  0.19427  0.90494  1.0000
  C   C1189     1.0  0.34417  0.25276  0.70210  1.0000
  H   H1197     1.0  0.43890  0.04748  0.79801  1.0000
  S   S408      1.0  0.47294  0.47102  0.65565  1.0000
  Fe  Fe205     1.0  0.47151  0.24169  0.84051  1.0000
  H   H1198     1.0  0.41026  0.28108  0.91875  1.0000
  C   C1190     1.0  0.36225  0.18082  0.84237  1.0000
  H   H1199     1.0  0.28870  0.13258  0.84689  1.0000
  H   H1200     1.0  0.47055  0.20182  0.81738  1.0000
  H   H1201     1.0  0.44730  0.05807  0.76440  1.0000
  C   C1191     1.0  0.39756  0.26964  0.94642  1.0000
  C   C1192     1.0  0.26052  0.17442  0.84119  1.0000
  H   H1202     1.0  0.46316  0.43039  0.71289  1.0000
  N   N101      1.0  0.32476  0.16823  0.72113  1.0000
  H   H1203     1.0  0.27880  0.20052  0.73667  1.0000
  C   C1193     1.0  0.47172  0.42356  0.73890  1.0000
  H   H1204     1.0  0.28076  0.23720  0.92954  1.0000
  Fe  Fe206     1.0  0.25477  0.24812  0.66723  1.0000
  C   C1194     1.0  0.31965  0.17061  0.73893  1.0000
  C   C1195     1.0  0.39055  0.36062  0.64909  1.0000
  H   H1205     1.0  0.43482  0.37939  0.64199  1.0000
  H   H1206     1.0  0.34392  0.14295  0.72430  1.0000
  H   H1207     1.0  0.48008  0.21867  0.88774  1.0000
  H   H1208     1.0  0.45774  0.42542  0.74683  1.0000
  H   H1209     1.0  0.39648  0.25732  0.94257  1.0000
  C   C1196     1.0  0.39486  0.99300  0.68080  1.0000
  H   H1210     1.0  0.39871  0.98812  0.69413  1.0000
  H   H1211     1.0  0.32442  0.00559  0.73652  1.0000
  H   H1212     1.0  0.38221  0.05529  0.79357  1.0000
  C   C1197     1.0  0.42257  0.37369  0.64427  1.0000
  H   H1213     1.0  0.26760  0.12540  0.89175  1.0000
  H   H1214     1.0  0.28611  0.16233  0.82515  1.0000
  C   C1198     1.0  0.40196  0.30064  0.95596  1.0000
  C   C1199     1.0  0.42827  0.05175  0.78983  1.0000
  H   H1215     1.0  0.46556  0.17497  0.84273  1.0000
  S   S409      1.0  0.45215  0.31050  0.84073  1.0000
  C   C1200     1.0  0.38494  0.19405  0.84880  1.0000
  H   H1216     1.0  0.30820  0.28706  0.71263  1.0000
  C   C1201     1.0  0.35309  0.20680  0.85732  1.0000
  N   N102      1.0  0.37120  0.20673  0.85661  1.0000
  C   C1202     1.0  0.30299  0.18213  0.74483  1.0000
  C   C1203     1.0  0.45765  0.38079  0.79529  1.0000
  H   H1217     1.0  0.34221  0.21701  0.86325  1.0000
  Fe  Fe207     1.0  0.47256  0.44224  0.67139  1.0000
  N   N103      1.0  0.41981  0.06227  0.76027  1.0000
  C   C1204     1.0  0.40176  0.06168  0.76833  1.0000
  N   N104      1.0  0.27798  0.20922  0.93520  1.0000
  C   C1205     1.0  0.39656  0.05587  0.78734  1.0000
  S   S410      1.0  0.41567  0.42461  0.66283  1.0000
  C   C1206     1.0  0.38068  0.18099  0.84147  1.0000
  C   C1207     1.0  0.42494  0.06873  0.74036  1.0000
  H   H1218     1.0  0.39126  0.06559  0.76009  1.0000
  C   C1208     1.0  0.29145  0.19106  0.73244  1.0000
  C   C1209     1.0  0.39167  0.98079  0.67161  1.0000
  S   S411      1.0  0.48218  0.41705  0.77182  1.0000
  H   H1219     1.0  0.33218  0.26369  0.72670  1.0000
  C   C1210     1.0  0.33162  0.26480  0.71244  1.0000
  S   S412      1.0  0.46814  0.43197  0.64808  1.0000
  H   H1220     1.0  0.38332  0.41711  0.65602  1.0000
  C   C1211     1.0  0.29665  0.18836  0.71437  1.0000
  C   C1212     1.0  0.28683  0.19043  0.96296  1.0000
  S   S413      1.0  0.35779  0.98016  0.76610  1.0000
  H   H1221     1.0  0.34484  0.15499  0.70085  1.0000
  H   H1222     1.0  0.31784  0.17570  0.69455  1.0000
  C   C1213     1.0  0.40937  0.37459  0.66048  1.0000
  C   C1214     1.0  0.47621  0.33135  0.79225  1.0000
  H   H1223     1.0  0.29934  0.18456  0.75876  1.0000
  H   H1224     1.0  0.29847  0.28802  0.66780  1.0000
  H   H1225     1.0  0.32872  0.16391  0.74853  1.0000
  N   N105      1.0  0.28702  0.97986  0.76870  1.0000
  C   C1215     1.0  0.23910  0.21673  0.96701  1.0000
  C   C1216     1.0  0.28759  0.99694  0.77070  1.0000
  C   C1217     1.0  0.46071  0.47004  0.73876  1.0000
  C   C1218     1.0  0.30389  0.98282  0.80836  1.0000
  H   H1226     1.0  0.23868  0.15251  0.88189  1.0000
  H   H1227     1.0  0.47126  0.31854  0.79602  1.0000
  C   C1219     1.0  0.47977  0.46429  0.73763  1.0000
  H   H1228     1.0  0.27684  0.11263  0.87351  1.0000
  C   C1220     1.0  0.33700  0.98151  0.78215  1.0000
  N   N106      1.0  0.47036  0.36371  0.79174  1.0000
  H   H1229     1.0  0.29334  0.23387  0.95723  1.0000
  H   H1230     1.0  0.37329  0.98052  0.63649  1.0000
  S   S414      1.0  0.25713  0.26332  0.63801  1.0000
  H   H1231     1.0  0.40427  0.31236  0.95997  1.0000
  H   H1232     1.0  0.44121  0.25442  0.96483  1.0000
  H   H1233     1.0  0.45170  0.46909  0.75222  1.0000
  H   H1234     1.0  0.32261  0.97504  0.73239  1.0000
  S   S415      1.0  0.30208  0.24973  0.63437  1.0000
  H   H1235     1.0  0.40515  0.49658  0.08232  1.0000
  S   S416      1.0  0.26419  0.65689  0.03985  1.0000
  Fe  Fe208     1.0  0.24420  0.67041  0.02114  1.0000
  C   C1221     1.0  0.26380  0.69044  0.97749  1.0000
  S   S417      1.0  0.46340  0.96539  0.17936  1.0000
  Fe  Fe209     1.0  0.25602  0.63081  0.03956  1.0000
  S   S418      1.0  0.27636  0.60410  0.03766  1.0000
  C   C1222     1.0  0.26719  0.87841  0.11467  1.0000
  C   C1223     1.0  0.32009  0.49872  0.20696  1.0000
  H   H1236     1.0  0.27346  0.64546  0.10833  1.0000
  Fe  Fe210     1.0  0.29454  0.73766  0.14430  1.0000
  S   S419      1.0  0.27967  0.76544  0.15015  1.0000
  S   S420      1.0  0.31574  0.71936  0.16025  1.0000
  Fe  Fe211     1.0  0.27772  0.74201  0.11113  1.0000
  S   S421      1.0  0.26147  0.76998  0.11444  1.0000
  S   S422      1.0  0.27648  0.73372  0.08524  1.0000
  Fe  Fe212     1.0  0.28706  0.77520  0.11966  1.0000
  S   S423      1.0  0.29523  0.80182  0.10347  1.0000
  Fe  Fe213     1.0  0.25537  0.75772  0.14443  1.0000
  N   N107      1.0  0.30242  0.96410  0.06226  1.0000
  S   S424      1.0  0.30398  0.74812  0.11405  1.0000
  S   S425      1.0  0.26958  0.72907  0.14094  1.0000
  Fe  Fe214     1.0  0.32424  0.91157  0.11207  1.0000
  S   S426      1.0  0.34559  0.92042  0.08769  1.0000
  S   S427      1.0  0.30166  0.93183  0.12549  1.0000
  Fe  Fe215     1.0  0.34186  0.87131  0.11485  1.0000
  S   S428      1.0  0.36477  0.87655  0.09049  1.0000
  S   S429      1.0  0.33929  0.84387  0.13336  1.0000
  Fe  Fe216     1.0  0.36599  0.89993  0.10273  1.0000
  S   S430      1.0  0.39353  0.90590  0.10270  1.0000
  Fe  Fe217     1.0  0.34235  0.89654  0.07761  1.0000
  S   S431      1.0  0.33818  0.90243  0.04852  1.0000
  S   S432      1.0  0.34481  0.89303  0.12813  1.0000
  S   S433      1.0  0.31925  0.88927  0.10099  1.0000
  H   H1237     1.0  0.26027  0.62837  0.11013  1.0000
  C   C1224     1.0  0.28803  0.86439  0.13553  1.0000
  S   S434      1.0  0.36205  0.83614  0.00658  1.0000
  Fe  Fe218     1.0  0.42497  0.94437  0.17171  1.0000
  H   H1238     1.0  0.48443  0.50945  0.19174  1.0000
  S   S435      1.0  0.39957  0.93465  0.17104  1.0000
  H   H1239     1.0  0.36066  0.85622  0.15653  1.0000
  C   C1225     1.0  0.44420  0.87247  0.27951  1.0000
  S   S436      1.0  0.42754  0.94600  0.19976  1.0000
  H   H1240     1.0  0.34800  0.66684  0.21187  1.0000
  Fe  Fe219     1.0  0.30723  0.52552  0.11571  1.0000
  Fe  Fe220     1.0  0.32936  0.49479  0.13941  1.0000
  S   S437      1.0  0.29455  0.55568  0.11292  1.0000
  C   C1226     1.0  0.45853  0.53244  0.25255  1.0000
  H   H1241     1.0  0.45689  0.94303  0.22843  1.0000
  H   H1242     1.0  0.35878  0.73679  0.21272  1.0000
  H   H1243     1.0  0.39751  0.85524  0.00283  1.0000
  H   H1244     1.0  0.34225  0.81700  0.04165  1.0000
  H   H1245     1.0  0.32157  0.58509  0.09011  1.0000
  H   H1246     1.0  0.45478  0.87410  0.97950  1.0000
  C   C1227     1.0  0.25402  0.68800  0.10427  1.0000
  S   S438      1.0  0.33768  0.51376  0.11274  1.0000
  Fe  Fe221     1.0  0.35395  0.71234  0.27555  1.0000
  H   H1247     1.0  0.40288  0.49382  0.12416  1.0000
  S   S439      1.0  0.36824  0.73438  0.27688  1.0000
  Fe  Fe222     1.0  0.32220  0.70795  0.26049  1.0000
  S   S440      1.0  0.32429  0.67830  0.27409  1.0000
  S   S441      1.0  0.29990  0.72243  0.24451  1.0000
  H   H1248     1.0  0.27362  0.90937  0.13611  1.0000
  H   H1249     1.0  0.42731  0.88219  0.11432  1.0000
  Fe  Fe223     1.0  0.35479  0.67670  0.26443  1.0000
  S   S442      1.0  0.37324  0.65441  0.25011  1.0000
  S   S443      1.0  0.32324  0.71708  0.28577  1.0000
  S   S444      1.0  0.35248  0.70595  0.24895  1.0000
  Fe  Fe224     1.0  0.36928  0.54366  0.21734  1.0000
  S   S445      1.0  0.34835  0.53985  0.24358  1.0000
  S   S446      1.0  0.35874  0.55150  0.19094  1.0000
  Fe  Fe225     1.0  0.40070  0.53786  0.23760  1.0000
  H   H1250     1.0  0.37878  0.97171  0.16977  1.0000
  S   S447      1.0  0.43038  0.54021  0.23398  1.0000
  Fe  Fe226     1.0  0.37007  0.51630  0.25302  1.0000
  Fe  Fe227     1.0  0.36247  0.55711  0.25311  1.0000
  S   S448      1.0  0.34626  0.57907  0.26903  1.0000
  S   S449      1.0  0.39036  0.51899  0.22608  1.0000
  S   S450      1.0  0.38162  0.56301  0.22600  1.0000
  C   C1228     1.0  0.27407  0.63044  0.11054  1.0000
  H   H1251     1.0  0.31738  0.61517  0.24641  1.0000
  C   C1229     1.0  0.46689  0.93437  0.25386  1.0000
  C   C1230     1.0  0.38439  0.85587  0.13434  1.0000
  H   H1252     1.0  0.23849  0.59939  0.04581  1.0000
  C   C1231     1.0  0.36588  0.63341  0.25585  1.0000
  C   C1232     1.0  0.37530  0.61967  0.24589  1.0000
  C   C1233     1.0  0.36965  0.60278  0.25013  1.0000
  C   C1234     1.0  0.35434  0.59967  0.26411  1.0000
  C   C1235     1.0  0.34506  0.61333  0.27423  1.0000
  C   C1236     1.0  0.35088  0.63014  0.27018  1.0000
  H   H1253     1.0  0.38704  0.62209  0.23491  1.0000
  H   H1254     1.0  0.37717  0.59226  0.24255  1.0000
  C   C1237     1.0  0.40413  0.56762  0.27305  1.0000
  H   H1255     1.0  0.34378  0.64050  0.27819  1.0000
  H   H1256     1.0  0.33625  0.75748  0.04029  1.0000
  H   H1257     1.0  0.32497  0.82547  0.02770  1.0000
  H   H1258     1.0  0.28693  0.78076  0.07505  1.0000
  C   C1238     1.0  0.29685  0.88237  0.15310  1.0000
  H   H1259     1.0  0.45943  0.94666  0.25898  1.0000
  C   C1239     1.0  0.36380  0.51507  0.18915  1.0000
  C   C1240     1.0  0.35644  0.53331  0.18201  1.0000
  C   C1241     1.0  0.34648  0.53711  0.16797  1.0000
  C   C1242     1.0  0.34361  0.52277  0.16132  1.0000
  H   H1260     1.0  0.25474  0.59809  0.01384  1.0000
  H   H1261     1.0  0.37146  0.51199  0.19999  1.0000
  H   H1262     1.0  0.34073  0.55119  0.16241  1.0000
  H   H1263     1.0  0.33559  0.52583  0.15074  1.0000
  C   C1243     1.0  0.30079  0.62346  0.06395  1.0000
  H   H1264     1.0  0.25479  0.69316  0.05872  1.0000
  H   H1265     1.0  0.31588  0.95534  0.08510  1.0000
  H   H1266     1.0  0.38891  0.48353  0.14529  1.0000
  S   S451      1.0  0.47568  0.91455  0.20731  1.0000
  H   H1267     1.0  0.37122  0.50095  0.08571  1.0000
  C   C1244     1.0  0.32731  0.81881  0.04178  1.0000
  C   C1245     1.0  0.31095  0.76709  0.05832  1.0000
  H   H1268     1.0  0.32219  0.60043  0.05736  1.0000
  S   S452      1.0  0.29937  0.50799  0.14354  1.0000
  S   S453      1.0  0.34886  0.48053  0.07611  1.0000
  C   C1246     1.0  0.31272  0.59836  0.08661  1.0000
  H   H1269     1.0  0.30686  0.75381  0.06284  1.0000
  S   S454      1.0  0.48078  0.92432  0.28538  1.0000
  H   H1270     1.0  0.34536  0.78792  0.03061  1.0000
  H   H1271     1.0  0.31976  0.82823  0.05133  1.0000
  Fe  Fe228     1.0  0.45791  0.93677  0.19009  1.0000
  N   N108      1.0  0.32157  0.80101  0.04748  1.0000
  C   C1247     1.0  0.42786  0.58155  0.24997  1.0000
  C   C1248     1.0  0.32588  0.47966  0.20926  1.0000
  N   N109      1.0  0.40799  0.87052  0.13650  1.0000
  H   H1272     1.0  0.28894  0.70076  0.99743  1.0000
  C   C1249     1.0  0.39781  0.92823  0.15118  1.0000
  C   C1250     1.0  0.41263  0.92694  0.13622  1.0000
  C   C1251     1.0  0.41095  0.92079  0.12100  1.0000
  C   C1252     1.0  0.39450  0.91588  0.12072  1.0000
  C   C1253     1.0  0.37954  0.91774  0.13545  1.0000
  C   C1254     1.0  0.38123  0.92377  0.15067  1.0000
  H   H1273     1.0  0.42543  0.93048  0.13648  1.0000
  H   H1274     1.0  0.42253  0.91956  0.10956  1.0000
  H   H1275     1.0  0.36674  0.91428  0.13529  1.0000
  H   H1276     1.0  0.36968  0.92489  0.16216  1.0000
  C   C1255     1.0  0.34446  0.88376  0.03725  1.0000
  C   C1256     1.0  0.34166  0.88657  0.01929  1.0000
  C   C1257     1.0  0.34676  0.87198  0.00988  1.0000
  C   C1258     1.0  0.35485  0.85453  0.01832  1.0000
  C   C1259     1.0  0.35751  0.85167  0.03635  1.0000
  C   C1260     1.0  0.35228  0.86624  0.04583  1.0000
  H   H1277     1.0  0.33550  0.90007  0.01264  1.0000
  H   H1278     1.0  0.34435  0.87426  0.99612  1.0000
  H   H1279     1.0  0.36382  0.83821  0.04295  1.0000
  H   H1280     1.0  0.35442  0.86395  0.05969  1.0000
  C   C1261     1.0  0.28437  0.94239  0.11278  1.0000
  H   H1281     1.0  0.33827  0.51669  0.28335  1.0000
  C   C1262     1.0  0.29445  0.70930  0.98462  1.0000
  H   H1282     1.0  0.46059  0.50954  0.22067  1.0000
  C   C1263     1.0  0.26916  0.94370  0.08817  1.0000
  C   C1264     1.0  0.28299  0.93515  0.09828  1.0000
  Fe  Fe229     1.0  0.33161  0.49312  0.09995  1.0000
  C   C1265     1.0  0.35093  0.50455  0.16850  1.0000
  S   S455      1.0  0.35895  0.68286  0.29007  1.0000
  H   H1283     1.0  0.29259  0.92302  0.09475  1.0000
  C   C1266     1.0  0.30844  0.81245  0.11180  1.0000
  C   C1267     1.0  0.31446  0.82819  0.10067  1.0000
  C   C1268     1.0  0.32442  0.83754  0.10706  1.0000
  C   C1269     1.0  0.32838  0.83121  0.12465  1.0000
  C   C1270     1.0  0.32257  0.81531  0.13575  1.0000
  C   C1271     1.0  0.31259  0.80592  0.12932  1.0000
  H   H1284     1.0  0.31131  0.83328  0.08710  1.0000
  H   H1285     1.0  0.32898  0.84968  0.09835  1.0000
  H   H1286     1.0  0.32552  0.81046  0.14941  1.0000
  H   H1287     1.0  0.30786  0.79383  0.13796  1.0000
  C   C1272     1.0  0.31064  0.71894  0.18400  1.0000
  C   C1273     1.0  0.29372  0.72832  0.19238  1.0000
  C   C1274     1.0  0.29034  0.72878  0.21114  1.0000
  C   C1275     1.0  0.30388  0.71995  0.22157  1.0000
  C   C1276     1.0  0.32069  0.71026  0.21327  1.0000
  C   C1277     1.0  0.32404  0.70974  0.19451  1.0000
  H   H1288     1.0  0.28324  0.73529  0.18442  1.0000
  H   H1289     1.0  0.27730  0.73625  0.21752  1.0000
  H   H1290     1.0  0.33123  0.70351  0.22119  1.0000
  H   H1291     1.0  0.33716  0.70250  0.18803  1.0000
  H   H1292     1.0  0.38325  0.86816  0.98701  1.0000
  N   N110      1.0  0.28808  0.62260  0.09610  1.0000
  C   C1278     1.0  0.43334  0.51645  0.26701  1.0000
  C   C1279     1.0  0.36122  0.50075  0.18227  1.0000
  H   H1293     1.0  0.37909  0.84868  0.12685  1.0000
  H   H1294     1.0  0.24981  0.67926  0.11737  1.0000
  C   C1280     1.0  0.44143  0.87779  0.97555  1.0000
  N   N111      1.0  0.44273  0.85730  0.29326  1.0000
  H   H1295     1.0  0.29678  0.85224  0.14179  1.0000
  H   H1296     1.0  0.27862  0.64383  0.07476  1.0000
  C   C1281     1.0  0.27981  0.58944  0.05873  1.0000
  C   C1282     1.0  0.29262  0.57278  0.05883  1.0000
  C   C1283     1.0  0.29656  0.56166  0.07553  1.0000
  C   C1284     1.0  0.28767  0.56721  0.09214  1.0000
  C   C1285     1.0  0.27435  0.58345  0.09205  1.0000
  C   C1286     1.0  0.27052  0.59457  0.07541  1.0000
  H   H1297     1.0  0.29989  0.56872  0.04596  1.0000
  H   H1298     1.0  0.30697  0.54919  0.07550  1.0000
  H   H1299     1.0  0.26745  0.58779  0.10487  1.0000
  H   H1300     1.0  0.26094  0.60744  0.07559  1.0000
  S   S456      1.0  0.36362  0.48828  0.26566  1.0000
  C   C1287     1.0  0.25682  0.69577  0.07124  1.0000
  C   C1288     1.0  0.26471  0.71072  0.07055  1.0000
  C   C1289     1.0  0.26724  0.71439  0.08669  1.0000
  C   C1290     1.0  0.26194  0.70295  0.10357  1.0000
  C   C1291     1.0  0.39375  0.70961  0.29528  1.0000
  C   C1292     1.0  0.33226  0.49881  0.23256  1.0000
  H   H1301     1.0  0.26876  0.71954  0.05746  1.0000
  H   H1302     1.0  0.26390  0.70562  0.11608  1.0000
  H   H1303     1.0  0.43912  0.56998  0.25387  1.0000
  H   H1304     1.0  0.31494  0.53422  0.20168  1.0000
  H   H1305     1.0  0.40925  0.85827  0.11401  1.0000
  C   C1293     1.0  0.31765  0.64367  0.24372  1.0000
  N   N112      1.0  0.41124  0.87163  0.97893  1.0000
  H   H1306     1.0  0.30052  0.62988  0.04968  1.0000
  H   H1307     1.0  0.32159  0.67159  0.23787  1.0000
  C   C1294     1.0  0.44134  0.52899  0.25251  1.0000
  C   C1295     1.0  0.27657  0.67392  0.97677  1.0000
  C   C1296     1.0  0.29968  0.78223  0.06513  1.0000
  S   S457      1.0  0.47162  0.49770  0.29889  1.0000
  C   C1297     1.0  0.34103  0.65562  0.21929  1.0000
  S   S458      1.0  0.45510  0.93267  0.16283  1.0000
  Fe  Fe230     1.0  0.23925  0.65996  0.06254  1.0000
  C   C1298     1.0  0.34448  0.60623  0.21852  1.0000
  H   H1308     1.0  0.43353  0.59433  0.24542  1.0000
  C   C1299     1.0  0.27847  0.86284  0.12280  1.0000
  H   H1309     1.0  0.23923  0.59015  0.99270  1.0000
  H   H1310     1.0  0.34157  0.59482  0.23035  1.0000
  C   C1300     1.0  0.37286  0.47810  0.07341  1.0000
  H   H1311     1.0  0.36687  0.48667  0.18792  1.0000
  H   H1312     1.0  0.37838  0.49767  0.12665  1.0000
  H   H1313     1.0  0.27702  0.62410  0.12444  1.0000
  C   C1301     1.0  0.47826  0.92080  0.26434  1.0000
  H   H1314     1.0  0.41128  0.61060  0.26588  1.0000
  H   H1315     1.0  0.31029  0.87248  0.15211  1.0000
  C   C1302     1.0  0.28836  0.63117  0.07814  1.0000
  H   H1316     1.0  0.45069  0.83273  0.28288  1.0000
  C   C1303     1.0  0.47468  0.50223  0.22103  1.0000
  H   H1317     1.0  0.27088  0.49573  0.07124  1.0000
  H   H1318     1.0  0.29632  0.81089  0.06488  1.0000
  C   C1304     1.0  0.43805  0.84125  0.28971  1.0000
  H   H1319     1.0  0.31015  0.48171  0.07352  1.0000
  H   H1320     1.0  0.42024  0.51346  0.26696  1.0000
  C   C1305     1.0  0.40143  0.86124  0.12720  1.0000
  C   C1306     1.0  0.46776  0.52328  0.26698  1.0000
  C   C1307     1.0  0.37402  0.86013  0.15104  1.0000
  H   H1321     1.0  0.27628  0.66283  0.98867  1.0000
  C   C1308     1.0  0.42626  0.87527  0.12903  1.0000
  C   C1309     1.0  0.40528  0.59852  0.27210  1.0000
  C   C1310     1.0  0.25842  0.96712  0.10664  1.0000
  Fe  Fe231     1.0  0.36197  0.84294  0.97615  1.0000
  C   C1311     1.0  0.45319  0.88717  0.29937  1.0000
  S   S459      1.0  0.24839  0.69457  0.99795  1.0000
  H   H1322     1.0  0.25981  0.87744  0.10465  1.0000
  N   N113      1.0  0.28659  0.88103  0.13983  1.0000
  C   C1312     1.0  0.44257  0.50728  0.28141  1.0000
  H   H1323     1.0  0.46483  0.54209  0.24132  1.0000
  C   C1313     1.0  0.39068  0.48723  0.13007  1.0000
  C   C1314     1.0  0.25703  0.95983  0.09215  1.0000
  H   H1324     1.0  0.26816  0.93810  0.07690  1.0000
  C   C1315     1.0  0.47966  0.49297  0.23780  1.0000
  H   H1325     1.0  0.40952  0.55509  0.26771  1.0000
  H   H1326     1.0  0.44156  0.87285  0.26614  1.0000
  C   C1316     1.0  0.42775  0.86753  0.98446  1.0000
  H   H1327     1.0  0.33486  0.50613  0.24179  1.0000
  N   N114      1.0  0.32359  0.50807  0.21836  1.0000
  H   H1328     1.0  0.25662  0.90746  0.11336  1.0000
  H   H1329     1.0  0.28186  0.95289  0.02607  1.0000
  H   H1330     1.0  0.26099  0.47720  0.08721  1.0000
  C   C1317     1.0  0.25140  0.68442  0.08811  1.0000
  H   H1331     1.0  0.42765  0.84541  0.28084  1.0000
  H   H1332     1.0  0.33331  0.61094  0.28520  1.0000
  Fe  Fe232     1.0  0.45824  0.96213  0.15284  1.0000
  C   C1318     1.0  0.33342  0.50392  0.28888  1.0000
  H   H1333     1.0  0.38793  0.75606  0.28766  1.0000
  C   C1319     1.0  0.27388  0.48267  0.08117  1.0000
  C   C1320     1.0  0.27512  0.89625  0.13237  1.0000
  H   H1334     1.0  0.30481  0.53165  0.22601  1.0000
  C   C1321     1.0  0.30000  0.60636  0.10045  1.0000
  H   H1335     1.0  0.31336  0.50601  0.19558  1.0000
  H   H1336     1.0  0.43058  0.85600  0.99555  1.0000
  C   C1322     1.0  0.27948  0.97167  0.04365  1.0000
  H   H1337     1.0  0.45004  0.89983  0.27159  1.0000
  H   H1338     1.0  0.37249  0.87371  0.17303  1.0000
  H   H1339     1.0  0.35844  0.63642  0.20304  1.0000
  H   H1340     1.0  0.46919  0.49295  0.25032  1.0000
  C   C1323     1.0  0.47533  0.91669  0.22972  1.0000
  C   C1324     1.0  0.32625  0.65827  0.23397  1.0000
  H   H1341     1.0  0.27993  0.84964  0.11919  1.0000
  C   C1325     1.0  0.32743  0.76915  0.04575  1.0000
  C   C1326     1.0  0.34691  0.63836  0.21445  1.0000
  C   C1327     1.0  0.39741  0.86025  0.98794  1.0000
  H   H1342     1.0  0.28859  0.87951  0.16726  1.0000
  C   C1328     1.0  0.30514  0.79923  0.05939  1.0000
  C   C1329     1.0  0.33253  0.78635  0.04039  1.0000
  S   S460      1.0  0.38218  0.53305  0.26540  1.0000
  C   C1330     1.0  0.31756  0.52806  0.21576  1.0000
  H   H1343     1.0  0.30639  0.64553  0.25540  1.0000
  C   C1331     1.0  0.31300  0.60692  0.06825  1.0000
  C   C1332     1.0  0.45986  0.51055  0.28137  1.0000
  H   H1344     1.0  0.30009  0.89630  0.15033  1.0000
  C   C1333     1.0  0.32392  0.62657  0.23855  1.0000
  H   H1345     1.0  0.35963  0.60337  0.21313  1.0000
  N   N115      1.0  0.41213  0.58262  0.26550  1.0000
  H   H1346     1.0  0.32852  0.53442  0.21732  1.0000
  H   H1347     1.0  0.27211  0.73223  0.98793  1.0000
  H   H1348     1.0  0.29927  0.59905  0.11461  1.0000
  C   C1334     1.0  0.38026  0.48985  0.07960  1.0000
  H   H1349     1.0  0.33728  0.60599  0.20770  1.0000
  C   C1335     1.0  0.46540  0.93233  0.23659  1.0000
  H   H1350     1.0  0.40005  0.84825  0.98134  1.0000
  Fe  Fe233     1.0  0.29637  0.48810  0.12786  1.0000
  S   S461      1.0  0.24103  0.66590  0.08943  1.0000
  H   H1351     1.0  0.42356  0.57907  0.23810  1.0000
  C   C1336     1.0  0.39783  0.87490  0.15283  1.0000
  C   C1337     1.0  0.38066  0.86986  0.16029  1.0000
  H   H1352     1.0  0.40278  0.88271  0.15998  1.0000
  S   S462      1.0  0.34653  0.48628  0.16127  1.0000
  H   H1353     1.0  0.42879  0.88497  0.13633  1.0000
  H   H1354     1.0  0.43718  0.86269  0.13022  1.0000
  N   N116      1.0  0.33077  0.75530  0.18206  1.0000
  C   C1338     1.0  0.31519  0.76239  0.19351  1.0000
  C   C1339     1.0  0.34638  0.74647  0.18871  1.0000
  C   C1340     1.0  0.31487  0.76032  0.21224  1.0000
  C   C1341     1.0  0.34654  0.74417  0.20737  1.0000
  C   C1342     1.0  0.33063  0.75107  0.21919  1.0000
  C   C1343     1.0  0.33098  0.75784  0.16242  1.0000
  H   H1355     1.0  0.30273  0.76917  0.18831  1.0000
  H   H1356     1.0  0.35872  0.74086  0.17963  1.0000
  H   H1357     1.0  0.30225  0.76511  0.22149  1.0000
  H   H1358     1.0  0.33031  0.74882  0.23382  1.0000
  H   H1359     1.0  0.34003  0.74596  0.15666  1.0000
  H   H1360     1.0  0.31701  0.75851  0.16009  1.0000
  H   H1361     1.0  0.33583  0.77065  0.15475  1.0000
  N   N117      1.0  0.33845  0.62408  0.22414  1.0000
  H   H1362     1.0  0.27819  0.48551  0.09283  1.0000
  H   H1363     1.0  0.27301  0.96392  0.12831  1.0000
  C   C1344     1.0  0.27196  0.95825  0.11710  1.0000
  C   C1345     1.0  0.34338  0.48794  0.28268  1.0000
  Fe  Fe234     1.0  0.32805  0.68713  0.29850  1.0000
  H   H1364     1.0  0.48401  0.82046  0.29275  1.0000
  H   H1365     1.0  0.31738  0.68802  0.97666  1.0000
  C   C1346     1.0  0.28492  0.72716  0.97910  1.0000
  S   S463      1.0  0.24124  0.97114  0.07793  1.0000
  H   H1366     1.0  0.48100  0.52600  0.26689  1.0000
  C   C1347     1.0  0.44915  0.88772  0.28245  1.0000
  S   S464      1.0  0.30189  0.50670  0.10032  1.0000
  C   C1348     1.0  0.26538  0.89523  0.11955  1.0000
  S   S465      1.0  0.23852  0.64397  0.01835  1.0000
  C   C1349     1.0  0.39347  0.74176  0.29261  1.0000
  C   C1350     1.0  0.28784  0.95621  0.03597  1.0000
  H   H1367     1.0  0.32326  0.94016  0.05860  1.0000
  C   C1351     1.0  0.38161  0.58447  0.29428  1.0000
  C   C1352     1.0  0.24095  0.59506  0.01864  1.0000
  C   C1353     1.0  0.31008  0.96819  0.07619  1.0000
  H   H1368     1.0  0.38209  0.55658  0.29311  1.0000
  C   C1354     1.0  0.39947  0.48743  0.07757  1.0000
  C   C1355     1.0  0.38651  0.72805  0.28886  1.0000
  H   H1369     1.0  0.38418  0.61247  0.29140  1.0000
  C   C1356     1.0  0.31096  0.94914  0.05447  1.0000
  C   C1357     1.0  0.31036  0.70214  0.97295  1.0000
  C   C1358     1.0  0.38874  0.56833  0.28750  1.0000
  H   H1370     1.0  0.31039  0.93281  0.03545  1.0000
  C   C1359     1.0  0.30375  0.94491  0.04129  1.0000
  C   C1360     1.0  0.38995  0.59966  0.28661  1.0000
  H   H1371     1.0  0.38864  0.69895  0.29234  1.0000
  C   C1361     1.0  0.33814  0.47974  0.23531  1.0000
  H   H1372     1.0  0.43643  0.49738  0.29248  1.0000
  H   H1373     1.0  0.23802  0.73846  0.11441  1.0000
  S   S466      1.0  0.27181  0.47426  0.13565  1.0000
  S   S467      1.0  0.42776  0.97348  0.15942  1.0000
  H   H1374     1.0  0.24473  0.53442  0.37919  1.0000
  H   H1375     1.0  0.41332  0.69058  0.31034  1.0000
  C   C1362     1.0  0.31727  0.50333  0.30252  1.0000
  H   H1376     1.0  0.25253  0.81294  0.58385  1.0000
  H   H1377     1.0  0.46714  0.73996  0.39364  1.0000
  H   H1378     1.0  0.39511  0.96474  0.55566  1.0000
  S   S468      1.0  0.26949  0.92965  0.57435  1.0000
  S   S469      1.0  0.25142  0.88527  0.58562  1.0000
  S   S470      1.0  0.43347  0.92871  0.60014  1.0000
  S   S471      1.0  0.42497  0.75076  0.39447  1.0000
  S   S472      1.0  0.42649  0.76005  0.33991  1.0000
  C   C1363     1.0  0.29824  0.68803  0.34084  1.0000
  Fe  Fe235     1.0  0.27605  0.77222  0.53631  1.0000
  S   S473      1.0  0.30591  0.75825  0.53294  1.0000
  S   S474      1.0  0.26473  0.78687  0.56017  1.0000
  Fe  Fe236     1.0  0.27050  0.75920  0.50404  1.0000
  S   S475      1.0  0.29992  0.74453  0.49777  1.0000
  S   S476      1.0  0.47577  0.86184  0.55608  1.0000
  Fe  Fe237     1.0  0.29627  0.73481  0.52835  1.0000
  Fe  Fe238     1.0  0.30709  0.76926  0.50284  1.0000
  S   S477      1.0  0.33012  0.78198  0.48320  1.0000
  S   S478      1.0  0.27792  0.78504  0.50640  1.0000
  Fe  Fe239     1.0  0.44596  0.82729  0.48405  1.0000
  S   S479      1.0  0.44282  0.80323  0.50735  1.0000
  S   S480      1.0  0.45257  0.85420  0.48493  1.0000
  Fe  Fe240     1.0  0.44169  0.80708  0.45613  1.0000
  S   S481      1.0  0.43836  0.78122  0.47710  1.0000
  S   S482      1.0  0.44376  0.81162  0.42545  1.0000
  Fe  Fe241     1.0  0.42001  0.80027  0.49522  1.0000
  S   S483      1.0  0.39435  0.79307  0.51517  1.0000
  Fe  Fe242     1.0  0.46134  0.78630  0.48740  1.0000
  H   H1379     1.0  0.33397  0.70623  0.32216  1.0000
  S   S484      1.0  0.42150  0.82593  0.47344  1.0000
  H   H1380     1.0  0.47937  0.79540  0.40338  1.0000
  S   S485      1.0  0.25284  0.72249  0.37683  1.0000
  H   H1381     1.0  0.26284  0.69480  0.48858  1.0000
  H   H1382     1.0  0.24780  0.71266  0.58352  1.0000
  C   C1364     1.0  0.27113  0.67839  0.56070  1.0000
  C   C1365     1.0  0.30428  0.67743  0.59221  1.0000
  H   H1383     1.0  0.25394  0.89016  0.62766  1.0000
  H   H1384     1.0  0.29090  0.72792  0.56706  1.0000
  H   H1385     1.0  0.45081  0.84652  0.42499  1.0000
  H   H1386     1.0  0.24162  0.51900  0.41182  1.0000
  C   C1366     1.0  0.46342  0.84406  0.53616  1.0000
  C   C1367     1.0  0.29482  0.71387  0.57400  1.0000
  C   C1368     1.0  0.26939  0.50631  0.63215  1.0000
  S   S486      1.0  0.30840  0.70557  0.53967  1.0000
  S   S487      1.0  0.48092  0.93740  0.56618  1.0000
  Fe  Fe243     1.0  0.24489  0.91612  0.58036  1.0000
  C   C1369     1.0  0.48274  0.71787  0.59142  1.0000
  C   C1370     1.0  0.38125  0.95768  0.60218  1.0000
  Fe  Fe244     1.0  0.47652  0.73353  0.34389  1.0000
  C   C1371     1.0  0.27042  0.70910  0.36324  1.0000
  C   C1372     1.0  0.27953  0.71755  0.34616  1.0000
  C   C1373     1.0  0.28914  0.67961  0.35795  1.0000
  C   C1374     1.0  0.27517  0.69008  0.36906  1.0000
  H   H1387     1.0  0.27581  0.73225  0.34152  1.0000
  H   H1388     1.0  0.29288  0.66491  0.36260  1.0000
  H   H1389     1.0  0.26815  0.68339  0.38210  1.0000
  H   H1390     1.0  0.34394  0.73608  0.31575  1.0000
  C   C1375     1.0  0.28240  0.64569  0.57253  1.0000
  H   H1391     1.0  0.48294  0.69323  0.35527  1.0000
  S   S488      1.0  0.43149  0.71193  0.32300  1.0000
  C   C1376     1.0  0.29023  0.70919  0.59325  1.0000
  C   C1377     1.0  0.25427  0.69892  0.58121  1.0000
  C   C1378     1.0  0.24784  0.51104  0.40115  1.0000
  H   H1392     1.0  0.39319  0.72483  0.34546  1.0000
  H   H1393     1.0  0.44729  0.86988  0.59075  1.0000
  C   C1379     1.0  0.31095  0.48681  0.30985  1.0000
  H   H1394     1.0  0.26723  0.48305  0.36276  1.0000
  C   C1380     1.0  0.34695  0.78686  0.49231  1.0000
  C   C1381     1.0  0.36184  0.79399  0.48033  1.0000
  C   C1382     1.0  0.37639  0.79628  0.48719  1.0000
  C   C1383     1.0  0.37584  0.79182  0.50611  1.0000
  C   C1384     1.0  0.36059  0.78543  0.51813  1.0000
  C   C1385     1.0  0.34625  0.78283  0.51124  1.0000
  H   H1395     1.0  0.36239  0.79730  0.46566  1.0000
  H   H1396     1.0  0.38808  0.80133  0.47785  1.0000
  H   H1397     1.0  0.36014  0.78199  0.53279  1.0000
  H   H1398     1.0  0.33495  0.77731  0.52057  1.0000
  H   H1399     1.0  0.31639  0.67165  0.56513  1.0000
  C   C1386     1.0  0.42944  0.76811  0.40301  1.0000
  C   C1387     1.0  0.43581  0.78327  0.39107  1.0000
  C   C1388     1.0  0.43959  0.79685  0.39814  1.0000
  C   C1389     1.0  0.43737  0.79515  0.41717  1.0000
  C   C1390     1.0  0.43083  0.78008  0.42912  1.0000
  C   C1391     1.0  0.42677  0.76664  0.42205  1.0000
  S   S489      1.0  0.45712  0.91517  0.55144  1.0000
  C   C1392     1.0  0.29463  0.69091  0.60238  1.0000
  H   H1400     1.0  0.42889  0.77875  0.44378  1.0000
  H   H1401     1.0  0.42175  0.75497  0.43133  1.0000
  S   S490      1.0  0.31589  0.67442  0.32748  1.0000
  H   H1402     1.0  0.26590  0.65536  0.60445  1.0000
  C   C1393     1.0  0.27418  0.71022  0.42225  1.0000
  C   C1394     1.0  0.45795  0.85655  0.50518  1.0000
  H   H1403     1.0  0.26524  0.90774  0.61272  1.0000
  H   H1404     1.0  0.28517  0.86209  0.51954  1.0000
  C   C1395     1.0  0.48256  0.76973  0.52732  1.0000
  C   C1396     1.0  0.46280  0.87289  0.50569  1.0000
  H   H1405     1.0  0.27231  0.63726  0.57298  1.0000
  H   H1406     1.0  0.36917  0.96059  0.61276  1.0000
  C   C1397     1.0  0.45205  0.87151  0.31318  1.0000
  C   C1398     1.0  0.25402  0.82017  0.53798  1.0000
  C   C1399     1.0  0.25584  0.81063  0.55570  1.0000
  C   C1400     1.0  0.28691  0.50778  0.60111  1.0000
  H   H1407     1.0  0.29868  0.94457  0.57844  1.0000
  H   H1408     1.0  0.41262  0.74768  0.30588  1.0000
  H   H1409     1.0  0.25726  0.81285  0.52689  1.0000
  H   H1410     1.0  0.29631  0.84215  0.49621  1.0000
  C   C1401     1.0  0.41346  0.94311  0.59345  1.0000
  C   C1402     1.0  0.41252  0.94960  0.57490  1.0000
  H   H1411     1.0  0.26143  0.70742  0.55174  1.0000
  C   C1403     1.0  0.48220  0.73809  0.39309  1.0000
  C   C1404     1.0  0.39780  0.94717  0.60705  1.0000
  C   C1405     1.0  0.48080  0.70009  0.59189  1.0000
  C   C1406     1.0  0.28659  0.96260  0.59772  1.0000
  C   C1407     1.0  0.43327  0.87836  0.59429  1.0000
  C   C1408     1.0  0.48236  0.87346  0.41656  1.0000
  C   C1409     1.0  0.28606  0.95050  0.58689  1.0000
  C   C1410     1.0  0.26937  0.94565  0.58731  1.0000
  C   C1411     1.0  0.25312  0.95328  0.59832  1.0000
  C   C1412     1.0  0.30910  0.68214  0.57296  1.0000
  C   C1413     1.0  0.25127  0.82030  0.57007  1.0000
  C   C1414     1.0  0.35030  0.72429  0.32485  1.0000
  H   H1412     1.0  0.28587  0.84849  0.55215  1.0000
  S   S491      1.0  0.45816  0.79613  0.30827  1.0000
  C   C1415     1.0  0.41077  0.90112  0.54632  1.0000
  H   H1413     1.0  0.41047  0.91058  0.58732  1.0000
  C   C1416     1.0  0.29902  0.49170  0.60717  1.0000
  C   C1417     1.0  0.29054  0.84752  0.52361  1.0000
  H   H1414     1.0  0.44567  0.84458  0.32076  1.0000
  C   C1418     1.0  0.46130  0.85436  0.41719  1.0000
  C   C1419     1.0  0.35362  0.69224  0.33927  1.0000
  C   C1420     1.0  0.47328  0.68963  0.60848  1.0000
  H   H1415     1.0  0.25176  0.69596  0.34310  1.0000
  N   N118      1.0  0.25632  0.50961  0.36908  1.0000
  C   C1421     1.0  0.42183  0.88359  0.54834  1.0000
  H   H1416     1.0  0.45731  0.89882  0.30174  1.0000
  C   C1422     1.0  0.25788  0.51870  0.34969  1.0000
  C   C1423     1.0  0.24837  0.58971  0.60515  1.0000
  H   H1417     1.0  0.36876  0.73868  0.32982  1.0000
  S   S492      1.0  0.25016  0.76135  0.48631  1.0000
  N   N119      1.0  0.27032  0.72859  0.42642  1.0000
  C   C1424     1.0  0.25807  0.74247  0.41821  1.0000
  C   C1425     1.0  0.27834  0.73146  0.43927  1.0000
  C   C1426     1.0  0.25375  0.75986  0.42270  1.0000
  C   C1427     1.0  0.27463  0.74877  0.44377  1.0000
  C   C1428     1.0  0.26211  0.76298  0.43557  1.0000
  H   H1418     1.0  0.43501  0.88940  0.60044  1.0000
  H   H1419     1.0  0.25142  0.74011  0.40827  1.0000
  C   C1429     1.0  0.26197  0.49099  0.37350  1.0000
  C   C1430     1.0  0.23851  0.69181  0.34832  1.0000
  H   H1420     1.0  0.28064  0.75092  0.45431  1.0000
  H   H1421     1.0  0.25848  0.77618  0.43970  1.0000
  H   H1422     1.0  0.27759  0.67643  0.54683  1.0000
  C   C1431     1.0  0.46880  0.86341  0.42644  1.0000
  H   H1423     1.0  0.38215  0.71234  0.36692  1.0000
  H   H1424     1.0  0.46376  0.83279  0.54790  1.0000
  C   C1432     1.0  0.26028  0.48186  0.39189  1.0000
  S   S493      1.0  0.46488  0.76051  0.35247  1.0000
  H   H1425     1.0  0.45938  0.85255  0.37464  1.0000
  C   C1433     1.0  0.25480  0.70806  0.48366  1.0000
  H   H1426     1.0  0.29242  0.64624  0.55919  1.0000
  C   C1434     1.0  0.23768  0.67359  0.35666  1.0000
  H   H1427     1.0  0.47197  0.88737  0.52151  1.0000
  C   C1435     1.0  0.45930  0.84554  0.38920  1.0000
  H   H1428     1.0  0.28908  0.70398  0.42109  1.0000
  C   C1436     1.0  0.27208  0.51515  0.61372  1.0000
  H   H1429     1.0  0.47053  0.74963  0.61772  1.0000
  H   H1430     1.0  0.27381  0.93007  0.62567  1.0000
  H   H1431     1.0  0.25029  0.66354  0.35819  1.0000
  N   N120      1.0  0.37308  0.71055  0.34351  1.0000
  N   N121      1.0  0.37271  0.74549  0.49085  1.0000
  C   C1437     1.0  0.37963  0.74508  0.50581  1.0000
  C   C1438     1.0  0.35726  0.73852  0.49303  1.0000
  C   C1439     1.0  0.37084  0.73781  0.52355  1.0000
  C   C1440     1.0  0.34825  0.73096  0.51054  1.0000
  C   C1441     1.0  0.35505  0.73069  0.52589  1.0000
  C   C1442     1.0  0.38220  0.75279  0.47227  1.0000
  H   H1432     1.0  0.39173  0.75085  0.50417  1.0000
  H   H1433     1.0  0.35160  0.73911  0.48120  1.0000
  H   H1434     1.0  0.37612  0.73795  0.53539  1.0000
  H   H1435     1.0  0.33597  0.72547  0.51225  1.0000
  H   H1436     1.0  0.34798  0.72506  0.53954  1.0000
  H   H1437     1.0  0.39139  0.76191  0.47252  1.0000
  H   H1438     1.0  0.39062  0.74135  0.46550  1.0000
  H   H1439     1.0  0.37199  0.76122  0.46384  1.0000
  C   C1443     1.0  0.25557  0.68419  0.59608  1.0000
  H   H1440     1.0  0.45558  0.87074  0.32625  1.0000
  C   C1444     1.0  0.24956  0.51969  0.38261  1.0000
  C   C1445     1.0  0.40742  0.73705  0.30293  1.0000
  S   S494      1.0  0.26696  0.48964  0.57414  1.0000
  H   H1441     1.0  0.30775  0.80874  0.50610  1.0000
  H   H1442     1.0  0.30005  0.71366  0.32169  1.0000
  H   H1443     1.0  0.36932  0.58537  0.30508  1.0000
  H   H1444     1.0  0.43726  0.86249  0.56598  1.0000
  Fe  Fe245     1.0  0.44146  0.73290  0.33226  1.0000
  H   H1445     1.0  0.24855  0.53237  0.34795  1.0000
  C   C1446     1.0  0.34485  0.70750  0.32822  1.0000
  H   H1446     1.0  0.42426  0.86977  0.60468  1.0000
  S   S495      1.0  0.24024  0.68941  0.46628  1.0000
  C   C1447     1.0  0.25618  0.59402  0.61791  1.0000
  H   H1447     1.0  0.29959  0.96593  0.59765  1.0000
  S   S496      1.0  0.29079  0.48643  0.32706  1.0000
  H   H1448     1.0  0.39951  0.70046  0.35060  1.0000
  H   H1449     1.0  0.44443  0.80858  0.38883  1.0000
  H   H1450     1.0  0.23934  0.60645  0.44083  1.0000
  H   H1451     1.0  0.47149  0.76462  0.41227  1.0000
  H   H1452     1.0  0.28875  0.51426  0.58665  1.0000
  S   S497      1.0  0.26388  0.61493  0.61272  1.0000
  C   C1448     1.0  0.24664  0.74103  0.48209  1.0000
  S   S498      1.0  0.24623  0.68040  0.41844  1.0000
  S   S499      1.0  0.46752  0.74278  0.31689  1.0000
  S   S500      1.0  0.26617  0.74755  0.53441  1.0000
  C   C1449     1.0  0.48010  0.74343  0.60637  1.0000
  C   C1450     1.0  0.25311  0.49199  0.40578  1.0000
  C   C1451     1.0  0.36444  0.72562  0.33276  1.0000
  Fe  Fe246     1.0  0.45364  0.76903  0.32673  1.0000
  C   C1452     1.0  0.46807  0.80849  0.31841  1.0000
  C   C1453     1.0  0.38760  0.71214  0.35211  1.0000
  H   H1453     1.0  0.45436  0.82960  0.52039  1.0000
  C   C1454     1.0  0.29664  0.83633  0.51057  1.0000
  H   H1454     1.0  0.39779  0.92442  0.55921  1.0000
  C   C1455     1.0  0.45810  0.84221  0.52056  1.0000
  C   C1456     1.0  0.47071  0.71451  0.62354  1.0000
  H   H1455     1.0  0.47242  0.70177  0.31399  1.0000
  H   H1456     1.0  0.26251  0.52758  0.60921  1.0000
  H   H1457     1.0  0.42456  0.94652  0.56433  1.0000
  H   H1458     1.0  0.26687  0.72278  0.49679  1.0000
  H   H1459     1.0  0.30800  0.66339  0.59914  1.0000
  H   H1460     1.0  0.42525  0.87585  0.53742  1.0000
  C   C1457     1.0  0.47046  0.81826  0.34535  1.0000
  C   C1458     1.0  0.48262  0.82956  0.33444  1.0000
  Fe  Fe247     1.0  0.43903  0.74959  0.36511  1.0000
  H   H1461     1.0  0.47028  0.77977  0.52510  1.0000
  H   H1462     1.0  0.46271  0.88407  0.49385  1.0000
  C   C1459     1.0  0.24235  0.70938  0.47245  1.0000
  C   C1460     1.0  0.40651  0.91083  0.56051  1.0000
  H   H1463     1.0  0.27238  0.52027  0.34359  1.0000
  N   N122      1.0  0.42526  0.88613  0.57787  1.0000
  H   H1464     1.0  0.34944  0.67914  0.34179  1.0000
  H   H1465     1.0  0.29037  0.63868  0.58352  1.0000
  C   C1461     1.0  0.48019  0.81987  0.30743  1.0000
  H   H1466     1.0  0.47178  0.67578  0.60907  1.0000
  H   H1467     1.0  0.31045  0.48603  0.59722  1.0000
  C   C1462     1.0  0.41381  0.90300  0.57635  1.0000
  C   C1463     1.0  0.30409  0.70030  0.56382  1.0000
  N   N123      1.0  0.47747  0.72495  0.60709  1.0000
  H   H1468     1.0  0.27049  0.71060  0.40900  1.0000
  N   N124      1.0  0.29693  0.82123  0.54746  1.0000
  C   C1464     1.0  0.29091  0.83971  0.54209  1.0000
  C   C1465     1.0  0.30305  0.81019  0.53474  1.0000
  C   C1466     1.0  0.24410  0.84901  0.54878  1.0000
  C   C1467     1.0  0.30301  0.81756  0.51613  1.0000
  C   C1468     1.0  0.42876  0.87616  0.56443  1.0000
  C   C1469     1.0  0.29755  0.81319  0.56681  1.0000
  H   H1469     1.0  0.44474  0.84467  0.39597  1.0000
  H   H1470     1.0  0.30774  0.79555  0.53904  1.0000
  C   C1470     1.0  0.46316  0.80782  0.33736  1.0000
  Fe  Fe248     1.0  0.45831  0.92127  0.57816  1.0000
  H   H1471     1.0  0.28781  0.82196  0.57608  1.0000
  H   H1472     1.0  0.29330  0.79963  0.57081  1.0000
  H   H1473     1.0  0.31176  0.81135  0.56905  1.0000
  C   C1471     1.0  0.36782  0.69401  0.34686  1.0000
  C   C1472     1.0  0.24066  0.57390  0.60961  1.0000
  C   C1473     1.0  0.46858  0.86028  0.53652  1.0000
  C   C1474     1.0  0.29329  0.70702  0.33490  1.0000
  H   H1474     1.0  0.46641  0.81778  0.35998  1.0000
  C   C1475     1.0  0.48076  0.76824  0.39924  1.0000
  S   S501      1.0  0.47762  0.89475  0.58599  1.0000
  H   H1475     1.0  0.40549  0.90714  0.53381  1.0000
  C   C1476     1.0  0.25704  0.72386  0.48838  1.0000
  C   C1477     1.0  0.38020  0.96391  0.58365  1.0000
  C   C1478     1.0  0.41462  0.71857  0.30933  1.0000
  S   S502      1.0  0.45161  0.72173  0.35871  1.0000
  C   C1479     1.0  0.39585  0.95987  0.57002  1.0000
  Fe  Fe249     1.0  0.47838  0.88995  0.55812  1.0000
  H   H1476     1.0  0.27769  0.88968  0.62787  1.0000
  H   H1477     1.0  0.37467  0.68208  0.35538  1.0000
  H   H1478     1.0  0.43754  0.78467  0.37640  1.0000
  H   H1479     1.0  0.28734  0.72024  0.44643  1.0000
  S   S503      1.0  0.30154  0.63120  0.62709  1.0000
  H   H1480     1.0  0.47752  0.75273  0.59321  1.0000
  N   N125      1.0  0.46706  0.85540  0.39860  1.0000
  H   H1481     1.0  0.30967  0.51569  0.30738  1.0000
  H   H1482     1.0  0.47368  0.66835  0.31878  1.0000
  H   H1483     1.0  0.28283  0.71968  0.60107  1.0000
  H   H1484     1.0  0.39841  0.94188  0.62139  1.0000
  S   S504      1.0  0.46626  0.81059  0.46489  1.0000
  H   H1485     1.0  0.42106  0.60405  0.62843  1.0000
  H   H1486     1.0  0.24017  0.94976  0.59858  1.0000
  C   C1480     1.0  0.44656  0.85669  0.30994  1.0000
  C   C1481     1.0  0.26468  0.66672  0.59287  1.0000
  S   S505      1.0  0.48058  0.94957  0.51311  1.0000
  H   H1487     1.0  0.45328  0.79966  0.34581  1.0000
  C   C1482     1.0  0.26193  0.69600  0.56338  1.0000
  C   C1483     1.0  0.24803  0.83930  0.53456  1.0000
  C   C1484     1.0  0.46805  0.87479  0.52133  1.0000
  N   N126      1.0  0.27264  0.66409  0.57540  1.0000
  H   H1488     1.0  0.24102  0.97136  0.61758  1.0000
  C   C1485     1.0  0.25361  0.96556  0.60900  1.0000
  C   C1486     1.0  0.26409  0.89876  0.62664  1.0000
  H   H1489     1.0  0.24374  0.77072  0.41647  1.0000
  C   C1487     1.0  0.24066  0.56241  0.62689  1.0000
  H   H1490     1.0  0.24231  0.84689  0.57770  1.0000
  Fe  Fe250     1.0  0.23958  0.50431  0.58805  1.0000
  H   H1491     1.0  0.46410  0.86261  0.44120  1.0000
  C   C1488     1.0  0.24554  0.83949  0.56661  1.0000
  C   C1489     1.0  0.27037  0.97009  0.60886  1.0000
  H   H1492     1.0  0.25022  0.68640  0.61004  1.0000
  H   H1493     1.0  0.48132  0.77515  0.55392  1.0000
  H   H1494     1.0  0.46751  0.83138  0.38951  1.0000
  H   H1495     1.0  0.25111  0.48503  0.42009  1.0000
  C   C1490     1.0  0.40779  0.70490  0.30543  1.0000
  H   H1496     1.0  0.26609  0.70130  0.43341  1.0000
  H   H1497     1.0  0.24674  0.84662  0.52078  1.0000
  N   N127      1.0  0.29618  0.48300  0.62524  1.0000
  S   S506      1.0  0.28702  0.68526  0.62635  1.0000
  C   C1491     1.0  0.48065  0.86487  0.38889  1.0000
  S   S507      1.0  0.32396  0.97049  0.62633  1.0000
  Fe  Fe251     1.0  0.48149  0.92907  0.53985  1.0000
  H   H1498     1.0  0.24790  0.59884  0.59194  1.0000
  C   C1492     1.0  0.46828  0.69679  0.62445  1.0000
  S   S508      1.0  0.23719  0.87298  0.54384  1.0000
  H   H1499     1.0  0.25404  0.51033  0.34180  1.0000
  H   H1500     1.0  0.43219  0.83242  0.30268  1.0000
  Fe  Fe252     1.0  0.23532  0.70653  0.40043  1.0000
  H   H1501     1.0  0.48517  0.73094  0.40683  1.0000
  C   C1493     1.0  0.48510  0.78574  0.39422  1.0000
  Fe  Fe253     1.0  0.25262  0.93337  0.82256  1.0000
  Fe  Fe254     1.0  0.34084  0.72842  0.87413  1.0000
  S   S509      1.0  0.33482  0.72644  0.90463  1.0000
  S   S510      1.0  0.36955  0.72959  0.85752  1.0000
  Fe  Fe255     1.0  0.30035  0.73563  0.87202  1.0000
  S   S511      1.0  0.29094  0.73515  0.90221  1.0000
  S   S512      1.0  0.27782  0.74262  0.85575  1.0000
  Fe  Fe256     1.0  0.31267  0.75122  0.89919  1.0000
  S   S513      1.0  0.30577  0.77557  0.91294  1.0000
  Fe  Fe257     1.0  0.31360  0.71042  0.90522  1.0000
  S   S514      1.0  0.30935  0.68466  0.92634  1.0000
  S   S515      1.0  0.31985  0.75433  0.86859  1.0000
  S   S516      1.0  0.32193  0.70977  0.87502  1.0000
  H   H1502     1.0  0.28892  0.91884  0.88683  1.0000
  N   N128      1.0  0.34844  0.95011  0.82420  1.0000
  Fe  Fe258     1.0  0.36511  0.82451  0.94444  1.0000
  S   S517      1.0  0.36485  0.85086  0.92346  1.0000
  S   S518      1.0  0.36983  0.79652  0.93759  1.0000
  Fe  Fe259     1.0  0.38406  0.85681  0.93818  1.0000
  S   S519      1.0  0.40708  0.87167  0.92203  1.0000
  Fe  Fe260     1.0  0.34226  0.86278  0.94481  1.0000
  S   S520      1.0  0.31721  0.88417  0.93868  1.0000
  N   N129      1.0  0.25811  0.90978  0.64098  1.0000
  Fe  Fe261     1.0  0.28579  0.65571  0.63918  1.0000
  S   S521      1.0  0.29681  0.89388  0.86153  1.0000
  C   C1494     1.0  0.25675  0.58214  0.63493  1.0000
  S   S522      1.0  0.24723  0.91631  0.85105  1.0000
  S   S523      1.0  0.48260  0.85331  0.94871  1.0000
  C   C1495     1.0  0.24692  0.90378  0.65725  1.0000
  H   H1503     1.0  0.25772  0.51188  0.64198  1.0000
  S   S524      1.0  0.46824  0.63451  0.82103  1.0000
  C   C1496     1.0  0.26440  0.92565  0.63829  1.0000
  Fe  Fe262     1.0  0.45545  0.65691  0.83724  1.0000
  S   S525      1.0  0.42808  0.65520  0.85681  1.0000
  S   S526      1.0  0.48190  0.65762  0.84478  1.0000
  C   C1497     1.0  0.46997  0.94353  0.87047  1.0000
  S   S527      1.0  0.45808  0.67983  0.81275  1.0000
  N   N130      1.0  0.40624  0.58353  0.64460  1.0000
  H   H1504     1.0  0.46747  0.97033  0.84092  1.0000
  Fe  Fe263     1.0  0.30400  0.61762  0.65619  1.0000
  S   S528      1.0  0.32900  0.59873  0.66574  1.0000
  Fe  Fe264     1.0  0.43458  0.60973  0.71462  1.0000
  S   S529      1.0  0.42584  0.63825  0.69926  1.0000
  S   S530      1.0  0.43512  0.60366  0.74495  1.0000
  Fe  Fe265     1.0  0.44702  0.59408  0.67970  1.0000
  S   S531      1.0  0.44006  0.62170  0.66156  1.0000
  S   S532      1.0  0.46145  0.57033  0.66556  1.0000
  Fe  Fe266     1.0  0.45250  0.63221  0.67941  1.0000
  C   C1498     1.0  0.31951  0.95389  0.84575  1.0000
  Fe  Fe267     1.0  0.41403  0.62509  0.68303  1.0000
  S   S533      1.0  0.38786  0.64026  0.67320  1.0000
  S   S534      1.0  0.46195  0.60436  0.69558  1.0000
  S   S535      1.0  0.42016  0.59675  0.70023  1.0000
  H   H1505     1.0  0.47391  0.49371  0.87555  1.0000
  C   C1499     1.0  0.40806  0.88554  0.96427  1.0000
  Fe  Fe268     1.0  0.23864  0.94351  0.86004  1.0000
  S   S536      1.0  0.24153  0.96046  0.83144  1.0000
  C   C1500     1.0  0.31677  0.71298  0.95613  1.0000
  S   S537      1.0  0.23545  0.66975  0.79231  1.0000
  N   N131      1.0  0.48358  0.94541  0.85315  1.0000
  H   H1506     1.0  0.24396  0.94231  0.90693  1.0000
  C   C1501     1.0  0.24220  0.74756  0.73549  1.0000
  H   H1507     1.0  0.26872  0.69618  0.90761  1.0000
  H   H1508     1.0  0.30722  0.92993  0.85593  1.0000
  C   C1502     1.0  0.34488  0.61038  0.66857  1.0000
  C   C1503     1.0  0.35867  0.60092  0.67854  1.0000
  C   C1504     1.0  0.37200  0.60992  0.68012  1.0000
  C   C1505     1.0  0.37138  0.62846  0.67193  1.0000
  C   C1506     1.0  0.35731  0.63797  0.66237  1.0000
  C   C1507     1.0  0.34412  0.62896  0.66064  1.0000
  H   H1509     1.0  0.35920  0.58656  0.68483  1.0000
  H   H1510     1.0  0.38271  0.60255  0.68769  1.0000
  H   H1511     1.0  0.35676  0.65234  0.65605  1.0000
  H   H1512     1.0  0.33355  0.63635  0.65291  1.0000
  C   C1508     1.0  0.43674  0.51923  0.67660  1.0000
  C   C1509     1.0  0.42802  0.53320  0.68651  1.0000
  C   C1510     1.0  0.43580  0.54872  0.68374  1.0000
  C   C1511     1.0  0.45229  0.55032  0.67098  1.0000
  C   C1512     1.0  0.46108  0.53623  0.66124  1.0000
  C   C1513     1.0  0.45333  0.52073  0.66403  1.0000
  H   H1513     1.0  0.45997  0.51021  0.65609  1.0000
  H   H1514     1.0  0.42888  0.55954  0.69124  1.0000
  H   H1515     1.0  0.24125  0.87266  0.80348  1.0000
  C   C1514     1.0  0.24813  0.67926  0.70966  1.0000
  C   C1515     1.0  0.45613  0.64574  0.76354  1.0000
  C   C1516     1.0  0.45366  0.62904  0.77543  1.0000
  C   C1517     1.0  0.44671  0.61636  0.76986  1.0000
  C   C1518     1.0  0.44255  0.62018  0.75230  1.0000
  C   C1519     1.0  0.44498  0.63693  0.74056  1.0000
  C   C1520     1.0  0.45155  0.64970  0.74622  1.0000
  H   H1516     1.0  0.45745  0.62568  0.78871  1.0000
  H   H1517     1.0  0.44495  0.60339  0.77899  1.0000
  H   H1518     1.0  0.44201  0.64002  0.72701  1.0000
  H   H1519     1.0  0.45347  0.66256  0.73693  1.0000
  C   C1521     1.0  0.45920  0.87172  0.92505  1.0000
  C   C1522     1.0  0.43361  0.48238  0.72430  1.0000
  H   H1520     1.0  0.25814  0.88419  0.88889  1.0000
  S   S538      1.0  0.26669  0.94431  0.86347  1.0000
  H   H1521     1.0  0.42329  0.64355  0.82406  1.0000
  H   H1522     1.0  0.34740  0.79298  0.86064  1.0000
  C   C1523     1.0  0.25823  0.67149  0.86658  1.0000
  H   H1523     1.0  0.36299  0.57921  0.64527  1.0000
  H   H1524     1.0  0.37213  0.69154  0.83511  1.0000
  S   S539      1.0  0.24355  0.63169  0.69884  1.0000
  C   C1524     1.0  0.27791  0.70285  0.94618  1.0000
  H   H1525     1.0  0.38228  0.71875  0.81347  1.0000
  C   C1525     1.0  0.24900  0.56640  0.63941  1.0000
  H   H1526     1.0  0.27696  0.75714  0.94333  1.0000
  C   C1526     1.0  0.25861  0.93656  0.65164  1.0000
  S   S540      1.0  0.28190  0.93294  0.82303  1.0000
  C   C1527     1.0  0.26907  0.67507  0.87704  1.0000
  H   H1527     1.0  0.42915  0.59188  0.64922  1.0000
  H   H1528     1.0  0.23842  0.77942  0.76841  1.0000
  C   C1528     1.0  0.31339  0.88751  0.91634  1.0000
  C   C1529     1.0  0.30257  0.90403  0.90904  1.0000
  C   C1530     1.0  0.29770  0.90629  0.89203  1.0000
  C   C1531     1.0  0.30377  0.89207  0.88220  1.0000
  C   C1532     1.0  0.31505  0.87577  0.88925  1.0000
  C   C1533     1.0  0.31982  0.87346  0.90633  1.0000
  H   H1529     1.0  0.29759  0.91491  0.91678  1.0000
  H   H1530     1.0  0.29598  0.68455  0.83371  1.0000
  H   H1531     1.0  0.31975  0.86471  0.88172  1.0000
  H   H1532     1.0  0.32799  0.86059  0.91199  1.0000
  C   C1534     1.0  0.46258  0.85727  0.93979  1.0000
  C   C1535     1.0  0.42140  0.89614  0.95511  1.0000
  C   C1536     1.0  0.44234  0.87556  0.91926  1.0000
  C   C1537     1.0  0.42880  0.86506  0.92823  1.0000
  C   C1538     1.0  0.43243  0.85028  0.94260  1.0000
  C   C1539     1.0  0.44932  0.84636  0.94832  1.0000
  H   H1533     1.0  0.39330  0.96632  0.67791  1.0000
  H   H1534     1.0  0.43957  0.88700  0.90813  1.0000
  H   H1535     1.0  0.42213  0.84204  0.94948  1.0000
  C   C1540     1.0  0.29019  0.67201  0.96076  1.0000
  C   C1541     1.0  0.38608  0.70904  0.85920  1.0000
  C   C1542     1.0  0.40427  0.70928  0.84959  1.0000
  C   C1543     1.0  0.41741  0.69288  0.84936  1.0000
  C   C1544     1.0  0.41242  0.67612  0.85863  1.0000
  C   C1545     1.0  0.39436  0.67595  0.86875  1.0000
  C   C1546     1.0  0.38119  0.69239  0.86908  1.0000
  H   H1536     1.0  0.40816  0.72214  0.84205  1.0000
  H   H1537     1.0  0.43138  0.69323  0.84193  1.0000
  H   H1538     1.0  0.39046  0.66303  0.87607  1.0000
  H   H1539     1.0  0.36719  0.69212  0.87661  1.0000
  C   C1547     1.0  0.32348  0.78111  0.92021  1.0000
  C   C1548     1.0  0.32101  0.79847  0.92437  1.0000
  C   C1549     1.0  0.33505  0.80331  0.92997  1.0000
  C   C1550     1.0  0.35150  0.79065  0.93169  1.0000
  C   C1551     1.0  0.35383  0.77318  0.92784  1.0000
  C   C1552     1.0  0.33994  0.76847  0.92196  1.0000
  H   H1540     1.0  0.30829  0.80831  0.92304  1.0000
  H   H1541     1.0  0.33318  0.81684  0.93285  1.0000
  H   H1542     1.0  0.36653  0.76334  0.92922  1.0000
  H   H1543     1.0  0.34199  0.75505  0.91887  1.0000
  C   C1553     1.0  0.38799  0.58853  0.64356  1.0000
  H   H1544     1.0  0.37617  0.95336  0.81944  1.0000
  H   H1545     1.0  0.26930  0.97352  0.79484  1.0000
  C   C1554     1.0  0.41489  0.56548  0.64645  1.0000
  H   H1546     1.0  0.24184  0.93931  0.67837  1.0000
  H   H1547     1.0  0.25899  0.90844  0.94258  1.0000
  S   S541      1.0  0.36143  0.87083  0.95798  1.0000
  H   H1548     1.0  0.41112  0.71451  0.78957  1.0000
  H   H1549     1.0  0.41624  0.64457  0.80282  1.0000
  H   H1550     1.0  0.27827  0.71410  0.93462  1.0000
  H   H1551     1.0  0.26207  0.65895  0.86122  1.0000
  C   C1555     1.0  0.25873  0.71797  0.82540  1.0000
  H   H1552     1.0  0.39138  0.66058  0.83376  1.0000
  H   H1553     1.0  0.30046  0.70736  0.84932  1.0000
  C   C1556     1.0  0.33304  0.92458  0.83706  1.0000
  C   C1557     1.0  0.28886  0.71039  0.84267  1.0000
  H   H1554     1.0  0.27579  0.86490  0.91247  1.0000
  C   C1558     1.0  0.28633  0.69752  0.83378  1.0000
  C   C1559     1.0  0.29112  0.68664  0.94555  1.0000
  C   C1560     1.0  0.28161  0.49011  0.63770  1.0000
  N   N132      1.0  0.29127  0.73767  0.96252  1.0000
  H   H1555     1.0  0.42944  0.68324  0.78794  1.0000
  H   H1556     1.0  0.46931  0.88024  0.91846  1.0000
  C   C1561     1.0  0.40496  0.55175  0.64854  1.0000
  Fe  Fe269     1.0  0.27056  0.95878  0.83394  1.0000
  H   H1557     1.0  0.23895  0.91621  0.76828  1.0000
  S   S542      1.0  0.26710  0.68391  0.81633  1.0000
  C   C1562     1.0  0.41686  0.68501  0.79835  1.0000
  C   C1563     1.0  0.39028  0.70509  0.81238  1.0000
  N   N133      1.0  0.24871  0.91364  0.91790  1.0000
  C   C1564     1.0  0.40649  0.70272  0.79910  1.0000
  C   C1565     1.0  0.38616  0.55668  0.64823  1.0000
  S   S543      1.0  0.24907  0.92893  0.79580  1.0000
  H   H1558     1.0  0.37770  0.96247  0.65536  1.0000
  C   C1566     1.0  0.42245  0.65169  0.80998  1.0000
  S   S544      1.0  0.42622  0.50041  0.67972  1.0000
  Fe  Fe270     1.0  0.24150  0.69091  0.80441  1.0000
  H   H1559     1.0  0.47020  0.95388  0.87826  1.0000
  H   H1560     1.0  0.46298  0.68847  0.63753  1.0000
  H   H1561     1.0  0.33244  0.91033  0.83815  1.0000
  N   N134      1.0  0.41148  0.67016  0.81082  1.0000
  S   S545      1.0  0.38633  0.82944  0.95739  1.0000
  H   H1562     1.0  0.47374  0.53753  0.65121  1.0000
  S   S546      1.0  0.29070  0.64298  0.66773  1.0000
  C   C1567     1.0  0.36432  0.95755  0.81237  1.0000
  Fe  Fe271     1.0  0.47267  0.65765  0.79701  1.0000
  Fe  Fe272     1.0  0.26445  0.63297  0.67219  1.0000
  H   H1563     1.0  0.47848  0.57100  0.86612  1.0000
  H   H1564     1.0  0.35890  0.92348  0.81775  1.0000
  H   H1565     1.0  0.24998  0.75595  0.72349  1.0000
  H   H1566     1.0  0.38121  0.60290  0.64166  1.0000
  C   C1568     1.0  0.23889  0.93240  0.91939  1.0000
  C   C1569     1.0  0.37763  0.57519  0.64551  1.0000
  H   H1567     1.0  0.31198  0.73926  0.93804  1.0000
  H   H1568     1.0  0.30536  0.95538  0.80525  1.0000
  C   C1570     1.0  0.30706  0.73089  0.95117  1.0000
  S   S547      1.0  0.46617  0.66154  0.76902  1.0000
  H   H1569     1.0  0.48454  0.60146  0.84830  1.0000
  H   H1570     1.0  0.33445  0.95415  0.78226  1.0000
  C   C1571     1.0  0.24124  0.64999  0.70981  1.0000
  C   C1572     1.0  0.34788  0.93210  0.82560  1.0000
  H   H1571     1.0  0.24068  0.91529  0.89276  1.0000
  C   C1573     1.0  0.26129  0.73087  0.83426  1.0000
  Fe  Fe273     1.0  0.27568  0.91845  0.85229  1.0000
  H   H1572     1.0  0.24688  0.71759  0.88259  1.0000
  N   N135      1.0  0.29374  0.65258  0.72534  1.0000
  C   C1574     1.0  0.31166  0.65015  0.71589  1.0000
  C   C1575     1.0  0.28270  0.64085  0.72570  1.0000
  C   C1576     1.0  0.31909  0.63534  0.70691  1.0000
  C   C1577     1.0  0.28958  0.62609  0.71662  1.0000
  C   C1578     1.0  0.30795  0.62325  0.70732  1.0000
  C   C1579     1.0  0.28603  0.66846  0.73423  1.0000
  H   H1573     1.0  0.32033  0.65967  0.71521  1.0000
  H   H1574     1.0  0.26844  0.64294  0.73291  1.0000
  H   H1575     1.0  0.33334  0.63338  0.69951  1.0000
  H   H1576     1.0  0.28060  0.61711  0.71658  1.0000
  H   H1577     1.0  0.31344  0.61188  0.70016  1.0000
  H   H1578     1.0  0.28106  0.68065  0.72407  1.0000
  H   H1579     1.0  0.28118  0.66492  0.88005  1.0000
  C   C1580     1.0  0.26774  0.87836  0.91428  1.0000
  C   C1581     1.0  0.38459  0.68980  0.82459  1.0000
  H   H1580     1.0  0.28075  0.70861  0.88661  1.0000
  H   H1581     1.0  0.25711  0.85658  0.77762  1.0000
  C   C1582     1.0  0.41666  0.59771  0.64308  1.0000
  C   C1583     1.0  0.31184  0.96706  0.80099  1.0000
  H   H1582     1.0  0.29008  0.76640  0.95407  1.0000
  H   H1583     1.0  0.43027  0.49739  0.71876  1.0000
  H   H1584     1.0  0.40487  0.78044  0.90278  1.0000
  H   H1585     1.0  0.42952  0.56158  0.64651  1.0000
  C   C1584     1.0  0.39550  0.67234  0.82373  1.0000
  H   H1586     1.0  0.29647  0.67164  0.74016  1.0000
  H   H1587     1.0  0.38099  0.80842  0.89674  1.0000
  H   H1588     1.0  0.24255  0.89082  0.65970  1.0000
  H   H1589     1.0  0.27609  0.87716  0.93948  1.0000
  H   H1590     1.0  0.33900  0.77726  0.88108  1.0000
  C   C1585     1.0  0.25830  0.90306  0.93102  1.0000
  H   H1591     1.0  0.45590  0.94549  0.86781  1.0000
  S   S548      1.0  0.25817  0.64794  0.64475  1.0000
  C   C1586     1.0  0.26428  0.70473  0.96204  1.0000
  H   H1592     1.0  0.48412  0.62744  0.70272  1.0000
  H   H1593     1.0  0.32884  0.70734  0.94675  1.0000
  C   C1587     1.0  0.31881  0.93560  0.84714  1.0000
  H   H1594     1.0  0.40392  0.75201  0.89309  1.0000
  H   H1595     1.0  0.29854  0.95872  0.75316  1.0000
  C   C1588     1.0  0.27112  0.70117  0.82538  1.0000
  C   C1589     1.0  0.27619  0.72700  0.84314  1.0000
  H   H1596     1.0  0.43682  0.65223  0.80246  1.0000
  N   N136      1.0  0.26483  0.69140  0.88282  1.0000
  H   H1597     1.0  0.27774  0.95494  0.78289  1.0000
  C   C1590     1.0  0.48022  0.96021  0.83933  1.0000
  S   S549      1.0  0.34084  0.83588  0.96472  1.0000
  S   S550      1.0  0.27795  0.60659  0.66259  1.0000
  C   C1591     1.0  0.26787  0.88524  0.92946  1.0000
  C   C1592     1.0  0.29918  0.97213  0.75494  1.0000
  H   H1598     1.0  0.35506  0.76877  0.86187  1.0000
  H   H1599     1.0  0.41511  0.53215  0.69619  1.0000
  H   H1600     1.0  0.27411  0.66592  0.74570  1.0000
  C   C1593     1.0  0.23795  0.83827  0.78452  1.0000
  H   H1601     1.0  0.44894  0.89984  0.95341  1.0000
  H   H1602     1.0  0.39677  0.96837  0.63689  1.0000
  N   N137      1.0  0.36648  0.78007  0.87831  1.0000
  C   C1594     1.0  0.37955  0.76450  0.88166  1.0000
  C   C1595     1.0  0.36690  0.79570  0.88362  1.0000
  C   C1596     1.0  0.39372  0.76444  0.89026  1.0000
  C   C1597     1.0  0.38098  0.79618  0.89205  1.0000
  C   C1598     1.0  0.39437  0.78040  0.89552  1.0000
  C   C1599     1.0  0.35125  0.77974  0.87007  1.0000
  H   H1603     1.0  0.37896  0.75196  0.87786  1.0000
  H   H1604     1.0  0.35604  0.80776  0.88180  1.0000
  H   H1605     1.0  0.25439  0.69094  0.70237  1.0000
  H   H1606     1.0  0.41901  0.90677  0.94317  1.0000
  H   H1607     1.0  0.25148  0.74373  0.83453  1.0000
  H   H1608     1.0  0.26279  0.58528  0.64481  1.0000
  C   C1600     1.0  0.24660  0.93090  0.66798  1.0000
  H   H1609     1.0  0.26330  0.94940  0.64921  1.0000
  H   H1610     1.0  0.24079  0.93658  0.93155  1.0000
  C   C1601     1.0  0.25787  0.88922  0.90102  1.0000
  H   H1611     1.0  0.25640  0.66599  0.68637  1.0000
  H   H1612     1.0  0.28923  0.68467  0.89431  1.0000
  S   S551      1.0  0.47084  0.65294  0.67201  1.0000
  S   S552      1.0  0.23890  0.69594  0.73911  1.0000
  C   C1602     1.0  0.24931  0.66511  0.70057  1.0000
  H   H1613     1.0  0.24697  0.72089  0.81893  1.0000
  C   C1603     1.0  0.24498  0.85242  0.78703  1.0000
  C   C1604     1.0  0.23615  0.86137  0.80159  1.0000
  Fe  Fe274     1.0  0.27416  0.62245  0.63453  1.0000
  C   C1605     1.0  0.27644  0.69534  0.89339  1.0000
  H   H1614     1.0  0.39540  0.88814  0.95921  1.0000
  H   H1615     1.0  0.27931  0.48321  0.65201  1.0000
  H   H1616     1.0  0.41177  0.53738  0.65060  1.0000
  C   C1606     1.0  0.24981  0.70438  0.87860  1.0000
  C   C1607     1.0  0.43817  0.89222  0.96083  1.0000
  C   C1608     1.0  0.24827  0.90688  0.90313  1.0000
  H   H1617     1.0  0.37822  0.54617  0.65011  1.0000
  H   H1618     1.0  0.24458  0.83127  0.77316  1.0000
  H   H1619     1.0  0.30032  0.65937  0.96035  1.0000
  H   H1620     1.0  0.48022  0.51586  0.86560  1.0000
  H   H1621     1.0  0.36844  0.95263  0.79916  1.0000
  H   H1622     1.0  0.47307  0.92978  0.87942  1.0000
  H   H1623     1.0  0.47634  0.63416  0.64188  1.0000
  C   C1609     1.0  0.28112  0.75624  0.95649  1.0000
  H   H1624     1.0  0.30824  0.96269  0.85320  1.0000
  H   H1625     1.0  0.25436  0.71750  0.96253  1.0000
  H   H1626     1.0  0.40813  0.60859  0.65065  1.0000
  Fe  Fe275     1.0  0.44242  0.47647  0.66650  1.0000
  H   H1627     1.0  0.45934  0.48224  0.69383  1.0000
  H   H1628     1.0  0.24907  0.55751  0.65279  1.0000
  C   C1610     1.0  0.24290  0.68465  0.86221  1.0000
  H   H1629     1.0  0.24765  0.74660  0.74792  1.0000
  C   C1611     1.0  0.32837  0.96639  0.78793  1.0000
  H   H1630     1.0  0.23949  0.59453  0.69349  1.0000
  H   H1631     1.0  0.48256  0.59914  0.72669  1.0000
  H   H1632     1.0  0.24478  0.73353  0.73257  1.0000
  C   C1612     1.0  0.24082  0.91432  0.67091  1.0000
  H   H1633     1.0  0.48201  0.47792  0.85102  1.0000
  H   H1634     1.0  0.47830  0.66472  0.70421  1.0000
  C   C1613     1.0  0.23859  0.70119  0.86828  1.0000
  C   C1614     1.0  0.23906  0.67832  0.72809  1.0000
  C   C1615     1.0  0.33461  0.96094  0.83425  1.0000
  H   H1635     1.0  0.45193  0.83512  0.95969  1.0000
  H   H1636     1.0  0.42881  0.47518  0.71598  1.0000
  C   C1616     1.0  0.46501  0.47722  0.70619  1.0000
  H   H1637     1.0  0.42569  0.47951  0.73863  1.0000
  N   N138      1.0  0.45358  0.47634  0.72313  1.0000
  H   H1638     1.0  0.26845  0.76013  0.96672  1.0000
  S   S553      1.0  0.23641  0.71393  0.78064  1.0000
  C   C1617     1.0  0.27286  0.97008  0.78095  1.0000
  H   H1639     1.0  0.26017  0.97373  0.77517  1.0000
  H   H1640     1.0  0.36101  0.97281  0.80861  1.0000
  H   H1641     1.0  0.46722  0.71979  0.63611  1.0000
  H   H1642     1.0  0.68823  0.10404  0.05660  1.0000
  C   C1618     1.0  0.49838  0.46065  0.98803  1.0000
  H   H1643     1.0  0.54528  0.36674  0.10617  1.0000
  C   C1619     1.0  0.61060  0.36491  0.20195  1.0000
  S   S554      1.0  0.58647  0.44484  0.16097  1.0000
  C   C1620     1.0  0.52222  0.42733  0.07862  1.0000
  Fe  Fe276     1.0  0.55629  0.45973  0.12365  1.0000
  S   S555      1.0  0.57784  0.43387  0.12528  1.0000
  Fe  Fe277     1.0  0.56689  0.43021  0.15565  1.0000
  S   S556      1.0  0.55992  0.40324  0.17198  1.0000
  Fe  Fe278     1.0  0.59556  0.45098  0.13025  1.0000
  S   S557      1.0  0.62615  0.44715  0.11852  1.0000
  C   C1621     1.0  0.56714  0.07981  0.00139  1.0000
  H   H1644     1.0  0.52957  0.41568  0.02779  1.0000
  H   H1645     1.0  0.60452  0.99774  0.07928  1.0000
  H   H1646     1.0  0.67454  0.10144  0.03136  1.0000
  Fe  Fe279     1.0  0.61767  0.10578  0.02352  1.0000
  S   S558      1.0  0.62847  0.12735  0.00055  1.0000
  S   S559      1.0  0.59964  0.11013  0.05082  1.0000
  Fe  Fe280     1.0  0.63561  0.07522  0.00245  1.0000
  Fe  Fe281     1.0  0.48982  0.41877  0.05944  1.0000
  S   S560      1.0  0.63951  0.04528  0.00160  1.0000
  Fe  Fe282     1.0  0.65503  0.10666  0.99824  1.0000
  S   S561      1.0  0.68160  0.11703  0.99219  1.0000
  H   H1647     1.0  0.55587  0.22221  0.29564  1.0000
  S   S562      1.0  0.64487  0.08592  0.02268  1.0000
  S   S563      1.0  0.60755  0.09331  0.00537  1.0000
  Fe  Fe283     1.0  0.55582  0.19241  0.09292  1.0000
  S   S564      1.0  0.57633  0.19047  0.06647  1.0000
  Fe  Fe284     1.0  0.54691  0.20222  0.13047  1.0000
  S   S565      1.0  0.55610  0.20701  0.15431  1.0000
  S   S566      1.0  0.55720  0.17532  0.12110  1.0000
  S   S567      1.0  0.54799  0.21939  0.10204  1.0000
  Fe  Fe285     1.0  0.64019  0.26896  0.18205  1.0000
  S   S568      1.0  0.61445  0.25734  0.18849  1.0000
  S   S569      1.0  0.66738  0.25164  0.18776  1.0000
  Fe  Fe286     1.0  0.61996  0.30829  0.17173  1.0000
  S   S570      1.0  0.59254  0.30019  0.17723  1.0000
  S   S571      1.0  0.62655  0.33654  0.16229  1.0000
  Fe  Fe287     1.0  0.60133  0.28129  0.20236  1.0000
  S   S572      1.0  0.58096  0.27953  0.22936  1.0000
  Fe  Fe288     1.0  0.60805  0.27714  0.16279  1.0000
  S   S573      1.0  0.59734  0.27237  0.13987  1.0000
  S   S574      1.0  0.62751  0.29139  0.19802  1.0000
  S   S575      1.0  0.63495  0.28682  0.15522  1.0000
  H   H1648     1.0  0.71897  0.23070  0.12420  1.0000
  H   H1649     1.0  0.54180  0.28006  0.10977  1.0000
  C   C1622     1.0  0.53864  0.27246  0.12375  1.0000
  H   H1650     1.0  0.53596  0.28148  0.17665  1.0000
  S   S576      1.0  0.71702  0.12197  0.05676  1.0000
  H   H1651     1.0  0.57155  0.07687  0.01477  1.0000
  H   H1652     1.0  0.59392  0.99333  0.06269  1.0000
  C   C1623     1.0  0.49628  0.44679  0.98030  1.0000
  C   C1624     1.0  0.59807  0.03775  0.97260  1.0000
  N   N139      1.0  0.52222  0.24289  0.04306  1.0000
  H   H1653     1.0  0.68101  0.47163  0.11344  1.0000
  C   C1625     1.0  0.57027  0.22320  0.14955  1.0000
  C   C1626     1.0  0.57605  0.22679  0.16405  1.0000
  C   C1627     1.0  0.58546  0.24120  0.16100  1.0000
  C   C1628     1.0  0.58887  0.25219  0.14348  1.0000
  C   C1629     1.0  0.58378  0.24811  0.12884  1.0000
  C   C1630     1.0  0.57455  0.23360  0.13185  1.0000
  H   H1654     1.0  0.57286  0.21869  0.17775  1.0000
  H   H1655     1.0  0.58939  0.24424  0.17234  1.0000
  H   H1656     1.0  0.58654  0.25650  0.11523  1.0000
  H   H1657     1.0  0.57034  0.23080  0.12058  1.0000
  C   C1631     1.0  0.59144  0.13287  0.05404  1.0000
  C   C1632     1.0  0.57994  0.13613  0.07077  1.0000
  C   C1633     1.0  0.57469  0.15394  0.07442  1.0000
  C   C1634     1.0  0.58104  0.16852  0.06138  1.0000
  C   C1635     1.0  0.59208  0.16538  0.04445  1.0000
  C   C1636     1.0  0.59722  0.14759  0.04077  1.0000
  H   H1658     1.0  0.57538  0.12479  0.08108  1.0000
  H   H1659     1.0  0.56608  0.15628  0.08750  1.0000
  H   H1660     1.0  0.59692  0.17666  0.03429  1.0000
  H   H1661     1.0  0.60596  0.14528  0.02784  1.0000
  C   C1637     1.0  0.58942  0.01847  0.02782  1.0000
  C   C1638     1.0  0.60478  0.00955  0.01677  1.0000
  C   C1639     1.0  0.62004  0.01798  0.00863  1.0000
  C   C1640     1.0  0.62017  0.03514  0.01186  1.0000
  C   C1641     1.0  0.60508  0.04375  0.02344  1.0000
  C   C1642     1.0  0.58969  0.03547  0.03132  1.0000
  H   H1662     1.0  0.63175  0.01120  0.99979  1.0000
  H   H1663     1.0  0.60529  0.05671  0.02645  1.0000
  H   H1664     1.0  0.57791  0.04231  0.04006  1.0000
  H   H1665     1.0  0.50093  0.98550  0.09366  1.0000
  C   C1643     1.0  0.60399  0.27329  0.28065  1.0000
  H   H1666     1.0  0.65276  0.13894  0.02010  1.0000
  C   C1644     1.0  0.64314  0.46830  0.16263  1.0000
  C   C1645     1.0  0.49993  0.11111  0.20806  1.0000
  H   H1667     1.0  0.72597  0.29298  0.16324  1.0000
  C   C1646     1.0  0.61603  0.27262  0.26360  1.0000
  C   C1647     1.0  0.60908  0.27473  0.24773  1.0000
  C   C1648     1.0  0.59004  0.27787  0.24878  1.0000
  H   H1668     1.0  0.63079  0.26981  0.26280  1.0000
  H   H1669     1.0  0.61854  0.27324  0.23489  1.0000
  C   C1649     1.0  0.48959  0.22285  0.07296  1.0000
  S   S577      1.0  0.51692  0.20152  0.13474  1.0000
  N   N140      1.0  0.53488  0.44200  0.01300  1.0000
  H   H1670     1.0  0.55732  0.40090  0.13647  1.0000
  C   C1650     1.0  0.53481  0.22713  0.05152  1.0000
  C   C1651     1.0  0.55324  0.38236  0.12169  1.0000
  H   H1671     1.0  0.50312  0.16203  0.18961  1.0000
  H   H1672     1.0  0.63203  0.22660  0.26139  1.0000
  C   C1652     1.0  0.53110  0.45267  0.09443  1.0000
  H   H1673     1.0  0.52474  0.13830  0.17384  1.0000
  H   H1674     1.0  0.65506  0.45752  0.15977  1.0000
  H   H1675     1.0  0.52925  0.24448  0.17324  1.0000
  C   C1653     1.0  0.53554  0.46624  0.02744  1.0000
  H   H1676     1.0  0.66638  0.14932  0.02917  1.0000
  H   H1677     1.0  0.51382  0.38605  0.10687  1.0000
  H   H1678     1.0  0.52445  0.26044  0.05971  1.0000
  Fe  Fe289     1.0  0.56460  0.47015  0.15631  1.0000
  C   C1654     1.0  0.57799  0.38475  0.16747  1.0000
  C   C1655     1.0  0.57504  0.36677  0.17415  1.0000
  C   C1656     1.0  0.58977  0.35183  0.17199  1.0000
  C   C1657     1.0  0.60748  0.35486  0.16315  1.0000
  C   C1658     1.0  0.61028  0.37285  0.15602  1.0000
  C   C1659     1.0  0.59554  0.38779  0.15810  1.0000
  H   H1679     1.0  0.56146  0.36439  0.18140  1.0000
  H   H1680     1.0  0.58750  0.33805  0.17768  1.0000
  H   H1681     1.0  0.62395  0.37528  0.14916  1.0000
  H   H1682     1.0  0.59793  0.40166  0.15290  1.0000
  H   H1683     1.0  0.55980  0.27728  0.16470  1.0000
  H   H1684     1.0  0.54935  0.41155  0.08132  1.0000
  H   H1685     1.0  0.55706  0.43380  0.09547  1.0000
  C   C1660     1.0  0.71883  0.26195  0.14429  1.0000
  C   C1661     1.0  0.70142  0.26781  0.13960  1.0000
  C   C1662     1.0  0.68558  0.26417  0.15270  1.0000
  C   C1663     1.0  0.68709  0.25463  0.17051  1.0000
  C   C1664     1.0  0.70459  0.24811  0.17496  1.0000
  C   C1665     1.0  0.72045  0.25185  0.16190  1.0000
  H   H1686     1.0  0.70015  0.27547  0.12592  1.0000
  H   H1687     1.0  0.67222  0.26882  0.14902  1.0000
  H   H1688     1.0  0.70583  0.24068  0.18872  1.0000
  H   H1689     1.0  0.59618  0.39313  0.19877  1.0000
  C   C1666     1.0  0.70697  0.12095  0.03884  1.0000
  C   C1667     1.0  0.71309  0.12969  0.02077  1.0000
  C   C1668     1.0  0.70514  0.12843  0.00659  1.0000
  C   C1669     1.0  0.69112  0.11836  0.01036  1.0000
  C   C1670     1.0  0.68506  0.10953  0.02842  1.0000
  C   C1671     1.0  0.69289  0.11094  0.04265  1.0000
  H   H1690     1.0  0.67144  0.30811  0.13083  1.0000
  C   C1672     1.0  0.51462  0.13435  0.18609  1.0000
  C   C1673     1.0  0.61740  0.22802  0.26739  1.0000
  H   H1691     1.0  0.52422  0.25490  0.11696  1.0000
  H   H1692     1.0  0.56878  0.44886  0.22879  1.0000
  C   C1674     1.0  0.56394  0.46303  0.22272  1.0000
  C   C1675     1.0  0.65676  0.46117  0.11502  1.0000
  C   C1676     1.0  0.61126  0.22709  0.28627  1.0000
  C   C1677     1.0  0.60458  0.23139  0.25619  1.0000
  H   H1693     1.0  0.57915  0.32129  0.23719  1.0000
  H   H1694     1.0  0.60331  0.31439  0.22898  1.0000
  S   S578      1.0  0.61319  0.26871  0.30057  1.0000
  C   C1678     1.0  0.50226  0.14773  0.19501  1.0000
  N   N141      1.0  0.57982  0.23327  0.28259  1.0000
  C   C1679     1.0  0.60881  0.34660  0.20885  1.0000
  H   H1695     1.0  0.52239  0.10553  0.18539  1.0000
  H   H1696     1.0  0.73071  0.07823  0.04518  1.0000
  H   H1697     1.0  0.50091  0.46060  0.25953  1.0000
  H   H1698     1.0  0.56603  0.38531  0.21579  1.0000
  N   N142      1.0  0.68413  0.30984  0.15176  1.0000
  C   C1680     1.0  0.67305  0.30446  0.16831  1.0000
  C   C1681     1.0  0.70293  0.30597  0.14991  1.0000
  C   C1682     1.0  0.68071  0.29497  0.18360  1.0000
  C   C1683     1.0  0.71105  0.29666  0.16497  1.0000
  C   C1684     1.0  0.69984  0.29106  0.18188  1.0000
  C   C1685     1.0  0.67573  0.31861  0.13571  1.0000
  H   H1699     1.0  0.65822  0.30709  0.16960  1.0000
  H   H1700     1.0  0.71182  0.30938  0.13661  1.0000
  H   H1701     1.0  0.67191  0.28998  0.19648  1.0000
  N   N143      1.0  0.48886  0.14291  0.20987  1.0000
  C   C1686     1.0  0.53074  0.44954  0.02830  1.0000
  C   C1687     1.0  0.52901  0.42487  0.01411  1.0000
  H   H1702     1.0  0.62489  0.01554  0.05657  1.0000
  N   N144      1.0  0.53022  0.40790  0.13078  1.0000
  S   S579      1.0  0.54407  0.45497  0.15388  1.0000
  S   S580      1.0  0.51545  0.15001  0.13470  1.0000
  H   H1703     1.0  0.49377  0.12283  0.15404  1.0000
  H   H1704     1.0  0.60477  0.99639  0.01410  1.0000
  C   C1688     1.0  0.65531  0.98835  0.02919  1.0000
  C   C1689     1.0  0.61964  0.13779  0.08196  1.0000
  H   H1705     1.0  0.50454  0.41249  0.12235  1.0000
  C   C1690     1.0  0.49872  0.27297  0.02680  1.0000
  H   H1706     1.0  0.51834  0.23688  0.14888  1.0000
  C   C1691     1.0  0.50675  0.27452  0.04065  1.0000
  S   S581      1.0  0.56936  0.00922  0.03656  1.0000
  C   C1692     1.0  0.73261  0.22252  0.12681  1.0000
  H   H1707     1.0  0.56712  0.37424  0.12127  1.0000
  H   H1708     1.0  0.56321  0.28180  0.26657  1.0000
  C   C1693     1.0  0.63301  0.15916  0.05628  1.0000
  H   H1709     1.0  0.62340  0.45189  0.16423  1.0000
  C   C1694     1.0  0.53943  0.42397  0.08356  1.0000
  H   H1710     1.0  0.62366  0.36815  0.19382  1.0000
  H   H1711     1.0  0.50346  0.28737  0.04540  1.0000
  C   C1695     1.0  0.63123  0.00339  0.05078  1.0000
  C   C1696     1.0  0.63853  0.12772  0.05458  1.0000
  H   H1712     1.0  0.62102  0.22503  0.29509  1.0000
  H   H1713     1.0  0.53324  0.22700  0.06635  1.0000
  C   C1697     1.0  0.48683  0.13566  0.15831  1.0000
  H   H1714     1.0  0.66772  0.98849  0.01853  1.0000
  H   H1715     1.0  0.55060  0.25897  0.18074  1.0000
  H   H1716     1.0  0.49108  0.46198  0.00180  1.0000
  H   H1717     1.0  0.54598  0.44545  0.98413  1.0000
  S   S582      1.0  0.55689  0.46913  0.25752  1.0000
  H   H1718     1.0  0.57553  0.27811  0.29448  1.0000
  H   H1719     1.0  0.68541  0.32550  0.12425  1.0000
  C   C1698     1.0  0.58174  0.03523  0.98522  1.0000
  H   H1720     1.0  0.65369  0.01568  0.03299  1.0000
  H   H1721     1.0  0.66332  0.32924  0.13934  1.0000
  C   C1699     1.0  0.51411  0.45625  0.08898  1.0000
  H   H1722     1.0  0.70598  0.28309  0.19345  1.0000
  C   C1700     1.0  0.59519  0.37891  0.20470  1.0000
  H   H1723     1.0  0.59828  0.08088  0.97604  1.0000
  C   C1701     1.0  0.51808  0.40381  0.12267  1.0000
  C   C1702     1.0  0.72835  0.20179  0.10911  1.0000
  H   H1724     1.0  0.55163  0.24463  0.28074  1.0000
  C   C1703     1.0  0.57797  0.27919  0.26569  1.0000
  H   H1725     1.0  0.62548  0.10988  0.07807  1.0000
  H   H1726     1.0  0.72726  0.09283  0.01317  1.0000
  C   C1704     1.0  0.52885  0.25832  0.12776  1.0000
  C   C1705     1.0  0.57823  0.37450  0.21428  1.0000
  H   H1727     1.0  0.55273  0.28716  0.13454  1.0000
  C   C1706     1.0  0.54380  0.43651  0.09163  1.0000
  H   H1728     1.0  0.64613  0.16284  0.02043  1.0000
  H   H1729     1.0  0.64443  0.11675  0.04698  1.0000
  C   C1707     1.0  0.51326  0.11596  0.19254  1.0000
  H   H1730     1.0  0.49882  0.21087  0.07838  1.0000
  C   C1708     1.0  0.54471  0.27646  0.13783  1.0000
  Fe  Fe290     1.0  0.62075  0.11310  0.98217  1.0000
  H   H1731     1.0  0.52678  0.41968  0.15402  1.0000
  H   H1732     1.0  0.51462  0.42798  0.01196  1.0000
  C   C1709     1.0  0.49433  0.15146  0.15058  1.0000
  N   N145      1.0  0.57745  0.06558  0.99092  1.0000
  Fe  Fe291     1.0  0.51900  0.21594  0.10528  1.0000
  Fe  Fe292     1.0  0.52718  0.17573  0.12344  1.0000
  C   C1710     1.0  0.51458  0.24131  0.02931  1.0000
  H   H1733     1.0  0.72659  0.18290  0.09314  1.0000
  H   H1734     1.0  0.63469  0.17313  0.05006  1.0000
  H   H1735     1.0  0.61532  0.16682  0.08114  1.0000
  C   C1711     1.0  0.65207  0.14933  0.02823  1.0000
  C   C1712     1.0  0.62794  0.12370  0.07228  1.0000
  S   S583      1.0  0.52690  0.19008  0.09424  1.0000
  H   H1736     1.0  0.58749  0.31800  0.21382  1.0000
  H   H1737     1.0  0.53189  0.21388  0.05071  1.0000
  N   N146      1.0  0.59219  0.34241  0.21850  1.0000
  C   C1713     1.0  0.57695  0.35605  0.22108  1.0000
  H   H1738     1.0  0.51047  0.43107  0.13934  1.0000
  C   C1714     1.0  0.51004  0.47279  0.97794  1.0000
  H   H1739     1.0  0.49616  0.25480  0.01056  1.0000
  H   H1740     1.0  0.71903  0.21301  0.10236  1.0000
  C   C1715     1.0  0.59044  0.32313  0.22490  1.0000
  H   H1741     1.0  0.56363  0.35271  0.22813  1.0000
  S   S584      1.0  0.51669  0.41088  0.06952  1.0000
  H   H1742     1.0  0.49088  0.18018  0.15029  1.0000
  C   C1716     1.0  0.73246  0.18475  0.10391  1.0000
  H   H1743     1.0  0.53800  0.41724  0.00350  1.0000
  H   H1744     1.0  0.60916  0.23265  0.24142  1.0000
  H   H1745     1.0  0.49632  0.44632  0.07742  1.0000
  H   H1746     1.0  0.49869  0.09686  0.21319  1.0000
  C   C1717     1.0  0.57163  0.04931  0.99444  1.0000
  N   N147      1.0  0.64078  0.14531  0.04673  1.0000
  H   H1747     1.0  0.66451  0.44772  0.11296  1.0000
  C   C1718     1.0  0.52536  0.24833  0.14570  1.0000
  C   C1719     1.0  0.58493  0.27691  0.28158  1.0000
  H   H1748     1.0  0.61076  0.13499  0.09538  1.0000
  C   C1720     1.0  0.54835  0.46771  0.99509  1.0000
  C   C1721     1.0  0.62221  0.15565  0.07396  1.0000
  C   C1722     1.0  0.54761  0.39744  0.13034  1.0000
  C   C1723     1.0  0.50264  0.25627  0.02106  1.0000
  C   C1724     1.0  0.59345  0.06815  0.97858  1.0000
  C   C1725     1.0  0.52326  0.38883  0.11388  1.0000
  C   C1726     1.0  0.53161  0.25269  0.15945  1.0000
  H   H1749     1.0  0.55945  0.04687  0.00488  1.0000
  C   C1727     1.0  0.58571  0.23399  0.26408  1.0000
  C   C1728     1.0  0.54098  0.37810  0.11335  1.0000
  C   C1729     1.0  0.63743  0.46477  0.11794  1.0000
  H   H1750     1.0  0.48925  0.28464  0.02074  1.0000
  H   H1751     1.0  0.53220  0.47211  0.03967  1.0000
  C   C1730     1.0  0.51860  0.25926  0.04864  1.0000
  S   S585      1.0  0.49796  0.24064  0.09607  1.0000
  H   H1752     1.0  0.56960  0.09366  0.99379  1.0000
  C   C1731     1.0  0.48658  0.23913  0.07932  1.0000
  N   N148      1.0  0.54124  0.26655  0.15539  1.0000
  S   S586      1.0  0.53592  0.46867  0.10468  1.0000
  H   H1753     1.0  0.70992  0.13522  0.99262  1.0000
  H   H1754     1.0  0.51735  0.22834  0.02491  1.0000
  H   H1755     1.0  0.57584  0.23715  0.25519  1.0000
  S   S587      1.0  0.48565  0.40224  0.04094  1.0000
  C   C1732     1.0  0.64754  0.00355  0.03743  1.0000
  C   C1733     1.0  0.48790  0.12484  0.21672  1.0000
  H   H1756     1.0  0.73380  0.24744  0.16569  1.0000
  H   H1757     1.0  0.62067  0.33578  0.20594  1.0000
  C   C1734     1.0  0.60582  0.98851  0.06973  1.0000
  C   C1735     1.0  0.54710  0.27135  0.17011  1.0000
  H   H1758     1.0  0.52353  0.44273  0.04125  1.0000
  C   C1736     1.0  0.50961  0.44356  0.08124  1.0000
  H   H1759     1.0  0.73229  0.22125  0.14164  1.0000
  C   C1737     1.0  0.56375  0.46799  0.20387  1.0000
  C   C1738     1.0  0.52499  0.42389  0.13951  1.0000
  H   H1760     1.0  0.56835  0.45765  0.19552  1.0000
  H   H1761     1.0  0.54937  0.22768  0.04458  1.0000
  H   H1762     1.0  0.57732  0.02217  0.98848  1.0000
  H   H1763     1.0  0.50429  0.46880  0.09100  1.0000
  C   C1739     1.0  0.54346  0.45092  0.99650  1.0000
  H   H1764     1.0  0.53389  0.43395  0.13199  1.0000
  C   C1740     1.0  0.56004  0.23578  0.29074  1.0000
  H   H1765     1.0  0.48693  0.17391  0.11518  1.0000
  S   S588      1.0  0.64824  0.09420  0.97770  1.0000
  H   H1766     1.0  0.72401  0.13735  0.01770  1.0000
  C   C1741     1.0  0.59232  0.22959  0.29369  1.0000
  Fe  Fe293     1.0  0.57238  0.97947  0.03560  1.0000
  H   H1767     1.0  0.55205  0.08030  0.00404  1.0000
  N   N149      1.0  0.62314  0.98832  0.05606  1.0000
  C   C1742     1.0  0.60401  0.05429  0.96926  1.0000
  C   C1743     1.0  0.62536  0.46516  0.16511  1.0000
  H   H1768     1.0  0.60506  0.97455  0.07819  1.0000
  H   H1769     1.0  0.49137  0.97612  0.04092  1.0000
  S   S589      1.0  0.52149  0.47366  0.30028  1.0000
  C   C1744     1.0  0.48526  0.16799  0.15610  1.0000
  S   S590      1.0  0.50523  0.03345  0.41448  1.0000
  S   S591      1.0  0.69574  0.20305  0.37685  1.0000
  H   H1770     1.0  0.53487  0.01527  0.34809  1.0000
  N   N150      1.0  0.53256  0.40291  0.36063  1.0000
  C   C1745     1.0  0.54197  0.41429  0.34675  1.0000
  C   C1746     1.0  0.55959  0.45264  0.59758  1.0000
  S   S592      1.0  0.71599  0.01862  0.60406  1.0000
  H   H1771     1.0  0.54411  0.39530  0.38447  1.0000
  S   S593      1.0  0.67979  0.02709  0.42004  1.0000
  Fe  Fe294     1.0  0.69630  0.00695  0.46592  1.0000
  S   S594      1.0  0.67937  0.03549  0.46035  1.0000
  S   S595      1.0  0.70927  0.99219  0.49026  1.0000
  Fe  Fe295     1.0  0.66263  0.02262  0.44848  1.0000
  S   S596      1.0  0.63151  0.02829  0.45330  1.0000
  Fe  Fe296     1.0  0.69791  0.03742  0.43236  1.0000
  S   S597      1.0  0.71036  0.06150  0.41523  1.0000
  S   S598      1.0  0.67777  0.99395  0.45678  1.0000
  Fe  Fe297     1.0  0.59467  0.25949  0.32765  1.0000
  S   S599      1.0  0.56444  0.26104  0.33054  1.0000
  C   C1747     1.0  0.51806  0.99697  0.47750  1.0000
  Fe  Fe298     1.0  0.59441  0.23948  0.36746  1.0000
  S   S600      1.0  0.56407  0.23921  0.37316  1.0000
  S   S601      1.0  0.60887  0.22648  0.39122  1.0000
  Fe  Fe299     1.0  0.56993  0.23182  0.34543  1.0000
  S   S602      1.0  0.56275  0.20920  0.33607  1.0000
  Fe  Fe300     1.0  0.56168  0.26853  0.35781  1.0000
  S   S603      1.0  0.53832  0.29101  0.36719  1.0000
  S   S604      1.0  0.60051  0.22971  0.34102  1.0000
  S   S605      1.0  0.59168  0.26927  0.35378  1.0000
  H   H1772     1.0  0.71415  0.19129  0.59644  1.0000
  H   H1773     1.0  0.56361  0.36493  0.46489  1.0000
  S   S606      1.0  0.51573  0.10780  0.35861  1.0000
  C   C1748     1.0  0.52637  0.47069  0.61545  1.0000
  C   C1749     1.0  0.52209  0.44501  0.52663  1.0000
  H   H1774     1.0  0.67248  0.22382  0.44716  1.0000
  C   C1750     1.0  0.52740  0.45863  0.36073  1.0000
  C   C1751     1.0  0.52076  0.27983  0.41190  1.0000
  C   C1752     1.0  0.70047  0.35818  0.56716  1.0000
  C   C1753     1.0  0.72545  0.21511  0.58141  1.0000
  H   H1775     1.0  0.68058  0.00142  0.57664  1.0000
  Fe  Fe301     1.0  0.70356  0.38443  0.60074  1.0000
  C   C1754     1.0  0.68621  0.24051  0.40159  1.0000
  S   S607      1.0  0.67343  0.39118  0.59899  1.0000
  S   S608      1.0  0.71243  0.39211  0.62317  1.0000
  Fe  Fe302     1.0  0.61294  0.43248  0.52744  1.0000
  S   S609      1.0  0.60540  0.45689  0.50557  1.0000
  S   S610      1.0  0.64351  0.42088  0.52494  1.0000
  Fe  Fe303     1.0  0.57296  0.43388  0.54741  1.0000
  S   S611      1.0  0.56249  0.45863  0.52740  1.0000
  Fe  Fe304     1.0  0.58184  0.44394  0.50606  1.0000
  S   S612      1.0  0.57289  0.44408  0.48009  1.0000
  H   H1776     1.0  0.54536  0.04309  0.32847  1.0000
  Fe  Fe305     1.0  0.71755  0.19250  0.43669  1.0000
  S   S613      1.0  0.59098  0.41832  0.52589  1.0000
  S   S614      1.0  0.59577  0.44554  0.55091  1.0000
  Fe  Fe306     1.0  0.53072  0.36460  0.42222  1.0000
  H   H1777     1.0  0.49650  0.16622  0.38791  1.0000
  S   S615      1.0  0.55481  0.34716  0.40668  1.0000
  Fe  Fe307     1.0  0.51834  0.38309  0.45562  1.0000
  H   H1778     1.0  0.51015  0.31323  0.45224  1.0000
  S   S616      1.0  0.52718  0.38522  0.48098  1.0000
  C   C1755     1.0  0.71601  0.09551  0.41425  1.0000
  N   N151      1.0  0.49284  0.44226  0.55668  1.0000
  H   H1779     1.0  0.67227  0.00011  0.55707  1.0000
  S   S617      1.0  0.55412  0.42003  0.57164  1.0000
  S   S618      1.0  0.52071  0.35437  0.45217  1.0000
  S   S619      1.0  0.53118  0.39261  0.42605  1.0000
  C   C1756     1.0  0.51357  0.43024  0.33689  1.0000
  C   C1757     1.0  0.68743  0.23313  0.41996  1.0000
  H   H1780     1.0  0.63335  0.45191  0.54320  1.0000
  H   H1781     1.0  0.50616  0.39698  0.37483  1.0000
  C   C1758     1.0  0.71463  0.11089  0.42168  1.0000
  H   H1782     1.0  0.59440  0.37937  0.50326  1.0000
  C   C1759     1.0  0.50363  0.43829  0.38763  1.0000
  C   C1760     1.0  0.52232  0.43506  0.38825  1.0000
  C   C1761     1.0  0.53416  0.44527  0.37488  1.0000
  S   S620      1.0  0.61550  0.99176  0.62467  1.0000
  C   C1762     1.0  0.48949  0.01154  0.46736  1.0000
  C   C1763     1.0  0.72457  0.22404  0.47945  1.0000
  H   H1783     1.0  0.52769  0.42474  0.39898  1.0000
  H   H1784     1.0  0.54866  0.44260  0.37532  1.0000
  S   S621      1.0  0.49790  0.15217  0.32877  1.0000
  H   H1785     1.0  0.53512  0.37748  0.38009  1.0000
  C   C1764     1.0  0.55858  0.42889  0.48101  1.0000
  C   C1765     1.0  0.55222  0.42925  0.46524  1.0000
  C   C1766     1.0  0.54206  0.41627  0.46517  1.0000
  C   C1767     1.0  0.53820  0.40289  0.48094  1.0000
  C   C1768     1.0  0.54412  0.40286  0.49686  1.0000
  C   C1769     1.0  0.55432  0.41578  0.49690  1.0000
  H   H1786     1.0  0.55541  0.43943  0.45293  1.0000
  H   H1787     1.0  0.53740  0.41651  0.45289  1.0000
  H   H1788     1.0  0.54118  0.39251  0.50907  1.0000
  H   H1789     1.0  0.55931  0.41530  0.50904  1.0000
  S   S622      1.0  0.70388  0.13009  0.44978  1.0000
  S   S623      1.0  0.52662  0.98268  0.41144  1.0000
  H   H1790     1.0  0.63625  0.01035  0.39497  1.0000
  C   C1770     1.0  0.67153  0.22997  0.43295  1.0000
  C   C1771     1.0  0.66550  0.40024  0.57824  1.0000
  C   C1772     1.0  0.67757  0.40440  0.56141  1.0000
  C   C1773     1.0  0.67072  0.41059  0.54507  1.0000
  C   C1774     1.0  0.65177  0.41309  0.54556  1.0000
  C   C1775     1.0  0.63967  0.40945  0.56242  1.0000
  C   C1776     1.0  0.64656  0.40292  0.57869  1.0000
  H   H1791     1.0  0.69212  0.40288  0.56097  1.0000
  H   H1792     1.0  0.68010  0.41355  0.53205  1.0000
  H   H1793     1.0  0.62506  0.41125  0.56291  1.0000
  H   H1794     1.0  0.63716  0.39977  0.59167  1.0000
  C   C1777     1.0  0.66891  0.99494  0.61921  1.0000
  C   C1778     1.0  0.49821  0.04690  0.36204  1.0000
  Fe  Fe308     1.0  0.70891  0.18881  0.40129  1.0000
  S   S624      1.0  0.50266  0.37240  0.41543  1.0000
  C   C1779     1.0  0.54335  0.30687  0.37751  1.0000
  C   C1780     1.0  0.52950  0.32181  0.38208  1.0000
  C   C1781     1.0  0.53283  0.33419  0.39107  1.0000
  C   C1782     1.0  0.55011  0.33183  0.39544  1.0000
  C   C1783     1.0  0.56398  0.31695  0.39081  1.0000
  C   C1784     1.0  0.56057  0.30442  0.38203  1.0000
  H   H1795     1.0  0.51612  0.32375  0.37869  1.0000
  H   H1796     1.0  0.52208  0.34564  0.39436  1.0000
  H   H1797     1.0  0.57739  0.31500  0.39413  1.0000
  H   H1798     1.0  0.57126  0.29283  0.37887  1.0000
  C   C1785     1.0  0.52468  0.29094  0.42181  1.0000
  H   H1799     1.0  0.50608  0.44127  0.32799  1.0000
  N   N152      1.0  0.53266  0.45247  0.62192  1.0000
  Fe  Fe309     1.0  0.55014  0.97386  0.42648  1.0000
  Fe  Fe310     1.0  0.54880  0.98287  0.38584  1.0000
  C   C1786     1.0  0.53962  0.20741  0.33925  1.0000
  C   C1787     1.0  0.52537  0.21781  0.35005  1.0000
  C   C1788     1.0  0.50733  0.21452  0.35389  1.0000
  S   S625      1.0  0.72665  0.16061  0.40176  1.0000
  C   C1789     1.0  0.51772  0.19092  0.33567  1.0000
  C   C1790     1.0  0.53569  0.19426  0.33175  1.0000
  H   H1800     1.0  0.52833  0.22803  0.35583  1.0000
  C   C1791     1.0  0.50339  0.28365  0.40745  1.0000
  H   H1801     1.0  0.51490  0.18057  0.33007  1.0000
  H   H1802     1.0  0.53351  0.44611  0.51490  1.0000
  H   H1803     1.0  0.53304  0.99374  0.47441  1.0000
  C   C1792     1.0  0.70785  0.00326  0.50816  1.0000
  C   C1793     1.0  0.69605  0.02019  0.50973  1.0000
  H   H1804     1.0  0.73156  0.08321  0.47672  1.0000
  C   C1794     1.0  0.70794  0.02091  0.53618  1.0000
  C   C1795     1.0  0.71974  0.00405  0.53450  1.0000
  C   C1796     1.0  0.71951  0.99514  0.52069  1.0000
  S   S626      1.0  0.71671  0.35467  0.60750  1.0000
  C   C1797     1.0  0.50355  0.06283  0.35068  1.0000
  H   H1805     1.0  0.57226  0.44522  0.59042  1.0000
  C   C1798     1.0  0.67148  0.20707  0.38037  1.0000
  C   C1799     1.0  0.66271  0.21637  0.36567  1.0000
  C   C1800     1.0  0.64337  0.22181  0.36866  1.0000
  C   C1801     1.0  0.63277  0.21786  0.38637  1.0000
  C   C1802     1.0  0.64149  0.20783  0.40087  1.0000
  C   C1803     1.0  0.66079  0.20242  0.39787  1.0000
  H   H1806     1.0  0.67091  0.21988  0.35204  1.0000
  H   H1807     1.0  0.63672  0.22949  0.35739  1.0000
  H   H1808     1.0  0.63332  0.20459  0.41456  1.0000
  H   H1809     1.0  0.66734  0.19508  0.40923  1.0000
  H   H1810     1.0  0.56080  0.14015  0.34274  1.0000
  C   C1804     1.0  0.70756  0.08090  0.42466  1.0000
  H   H1811     1.0  0.56238  0.38458  0.44682  1.0000
  C   C1805     1.0  0.50814  0.05482  0.40027  1.0000
  Fe  Fe311     1.0  0.50194  0.39963  0.42172  1.0000
  H   H1812     1.0  0.72012  0.33346  0.53425  1.0000
  C   C1806     1.0  0.51247  0.08805  0.37550  1.0000
  C   C1807     1.0  0.52788  0.07418  0.37842  1.0000
  C   C1808     1.0  0.52572  0.05764  0.39078  1.0000
  C   C1809     1.0  0.50862  0.46221  0.36030  1.0000
  H   H1813     1.0  0.72840  0.08653  0.61164  1.0000
  H   H1814     1.0  0.54152  0.07611  0.37091  1.0000
  H   H1815     1.0  0.53772  0.04710  0.39299  1.0000
  C   C1810     1.0  0.59633  0.01955  0.42590  1.0000
  C   C1811     1.0  0.60357  0.02364  0.43926  1.0000
  C   C1812     1.0  0.62261  0.02263  0.43678  1.0000
  C   C1813     1.0  0.63429  0.01763  0.42085  1.0000
  H   H1816     1.0  0.59440  0.02758  0.45152  1.0000
  H   H1817     1.0  0.64895  0.01637  0.41889  1.0000
  H   H1818     1.0  0.51226  0.14310  0.36869  1.0000
  C   C1814     1.0  0.51117  0.16490  0.38211  1.0000
  H   H1819     1.0  0.50755  0.47264  0.51860  1.0000
  H   H1820     1.0  0.54009  0.43740  0.32399  1.0000
  S   S627      1.0  0.48892  0.42444  0.40313  1.0000
  S   S628      1.0  0.72776  0.39193  0.57906  1.0000
  C   C1815     1.0  0.69902  0.32613  0.55755  1.0000
  C   C1816     1.0  0.68817  0.34724  0.57840  1.0000
  C   C1817     1.0  0.68752  0.33106  0.57358  1.0000
  H   H1821     1.0  0.50726  0.41492  0.56494  1.0000
  H   H1822     1.0  0.69897  0.31337  0.55384  1.0000
  C   C1818     1.0  0.49286  0.45828  0.54387  1.0000
  H   H1823     1.0  0.67821  0.32232  0.58231  1.0000
  C   C1819     1.0  0.50404  0.41882  0.35130  1.0000
  Fe  Fe312     1.0  0.69605  0.99912  0.42901  1.0000
  H   H1824     1.0  0.65526  0.25299  0.37400  1.0000
  C   C1820     1.0  0.51225  0.46347  0.57916  1.0000
  H   H1825     1.0  0.58739  0.40324  0.43880  1.0000
  C   C1821     1.0  0.60811  0.01481  0.40986  1.0000
  H   H1826     1.0  0.68699  0.02651  0.50011  1.0000
  C   C1822     1.0  0.50054  0.45624  0.59506  1.0000
  Fe  Fe313     1.0  0.53046  0.01120  0.40975  1.0000
  C   C1823     1.0  0.48954  0.99395  0.49820  1.0000
  C   C1824     1.0  0.52873  0.45245  0.57193  1.0000
  N   N153      1.0  0.58190  0.38284  0.46296  1.0000
  C   C1825     1.0  0.58926  0.39768  0.45281  1.0000
  C   C1826     1.0  0.58392  0.37607  0.48078  1.0000
  C   C1827     1.0  0.59863  0.40637  0.46059  1.0000
  C   C1828     1.0  0.59328  0.38439  0.48897  1.0000
  C   C1829     1.0  0.60059  0.39969  0.47879  1.0000
  C   C1830     1.0  0.57212  0.37405  0.45444  1.0000
  C   C1831     1.0  0.72605  0.20192  0.61333  1.0000
  Fe  Fe314     1.0  0.72398  0.01432  0.57485  1.0000
  H   H1827     1.0  0.54847  0.12363  0.35916  1.0000
  C   C1832     1.0  0.73356  0.46167  0.61575  1.0000
  C   C1833     1.0  0.72623  0.22012  0.46214  1.0000
  C   C1834     1.0  0.53200  0.04431  0.33775  1.0000
  H   H1828     1.0  0.72334  0.19126  0.62540  1.0000
  H   H1829     1.0  0.71465  0.06160  0.51422  1.0000
  H   H1830     1.0  0.66314  0.06187  0.37618  1.0000
  H   H1831     1.0  0.48910  0.42100  0.35376  1.0000
  H   H1832     1.0  0.72511  0.45635  0.60964  1.0000
  Fe  Fe315     1.0  0.49247  0.36401  0.44566  1.0000
  H   H1833     1.0  0.52521  0.07390  0.33031  1.0000
  H   H1834     1.0  0.58166  0.02039  0.42788  1.0000
  C   C1835     1.0  0.49273  0.06892  0.39781  1.0000
  C   C1836     1.0  0.51379  0.40524  0.36320  1.0000
  H   H1835     1.0  0.60367  0.41868  0.45283  1.0000
  H   H1836     1.0  0.68688  0.04204  0.52506  1.0000
  S   S629      1.0  0.71605  0.00974  0.43867  1.0000
  C   C1837     1.0  0.62705  0.01410  0.40730  1.0000
  H   H1837     1.0  0.53145  0.26894  0.40683  1.0000
  Fe  Fe316     1.0  0.71419  0.15523  0.43194  1.0000
  H   H1838     1.0  0.58211  0.36583  0.44483  1.0000
  S   S630      1.0  0.69854  0.97411  0.63416  1.0000
  C   C1838     1.0  0.69606  0.09721  0.44988  1.0000
  C   C1839     1.0  0.54700  0.13780  0.35075  1.0000
  H   H1839     1.0  0.50054  0.27562  0.39903  1.0000
  S   S631      1.0  0.70996  0.20908  0.45893  1.0000
  N   N154      1.0  0.51159  0.30540  0.42719  1.0000
  H   H1840     1.0  0.52165  0.98793  0.51633  1.0000
  Fe  Fe317     1.0  0.71826  0.98814  0.61120  1.0000
  S   S632      1.0  0.70838  0.03227  0.55329  1.0000
  H   H1841     1.0  0.70101  0.37058  0.57116  1.0000
  C   C1840     1.0  0.72407  0.36527  0.53962  1.0000
  C   C1841     1.0  0.54915  0.44348  0.61333  1.0000
  H   H1842     1.0  0.69873  0.24240  0.39147  1.0000
  C   C1842     1.0  0.53265  0.42803  0.33462  1.0000
  H   H1843     1.0  0.73380  0.02624  0.49924  1.0000
  H   H1844     1.0  0.60727  0.40674  0.48514  1.0000
  H   H1845     1.0  0.51488  0.00152  0.37360  1.0000
  H   H1846     1.0  0.72217  0.21487  0.56850  1.0000
  N   N155      1.0  0.64738  0.07270  0.42500  1.0000
  C   C1843     1.0  0.63639  0.06529  0.41841  1.0000
  C   C1844     1.0  0.66342  0.07718  0.41405  1.0000
  C   C1845     1.0  0.64184  0.06132  0.40075  1.0000
  C   C1846     1.0  0.66935  0.07335  0.39636  1.0000
  C   C1847     1.0  0.65852  0.06525  0.38974  1.0000
  C   C1848     1.0  0.64153  0.07655  0.44362  1.0000
  H   H1847     1.0  0.62350  0.06202  0.42697  1.0000
  H   H1848     1.0  0.67193  0.08346  0.41907  1.0000
  H   H1849     1.0  0.63334  0.05490  0.39584  1.0000
  H   H1850     1.0  0.68249  0.07627  0.38809  1.0000
  H   H1851     1.0  0.69310  0.98517  0.56214  1.0000
  H   H1852     1.0  0.63213  0.09015  0.44344  1.0000
  H   H1853     1.0  0.63429  0.06581  0.45314  1.0000
  H   H1854     1.0  0.65359  0.07647  0.44932  1.0000
  C   C1849     1.0  0.53339  0.43402  0.58030  1.0000
  C   C1850     1.0  0.50712  0.42757  0.55474  1.0000
  C   C1851     1.0  0.52111  0.17661  0.38494  1.0000
  S   S633      1.0  0.55205  0.00238  0.42706  1.0000
  H   H1855     1.0  0.54666  0.18627  0.32328  1.0000
  C   C1852     1.0  0.67912  0.99188  0.56853  1.0000
  C   C1853     1.0  0.50507  0.43776  0.60339  1.0000
  Fe  Fe318     1.0  0.57231  0.00077  0.40050  1.0000
  H   H1856     1.0  0.67814  0.00388  0.61087  1.0000
  S   S634      1.0  0.55095  0.01211  0.38308  1.0000
  C   C1854     1.0  0.65703  0.46397  0.52947  1.0000
  H   H1857     1.0  0.69088  0.07065  0.45058  1.0000
  H   H1858     1.0  0.71326  0.22046  0.49048  1.0000
  H   H1859     1.0  0.67930  0.35136  0.59079  1.0000
  C   C1855     1.0  0.50749  0.45991  0.52870  1.0000
  H   H1860     1.0  0.58766  0.22899  0.30833  1.0000
  H   H1861     1.0  0.52492  0.41234  0.60245  1.0000
  S   S635      1.0  0.54292  0.46989  0.34329  1.0000
  H   H1862     1.0  0.51420  0.18709  0.39297  1.0000
  H   H1863     1.0  0.49636  0.22229  0.36259  1.0000
  H   H1864     1.0  0.72936  0.99799  0.54357  1.0000
  N   N156      1.0  0.50948  0.03009  0.36122  1.0000
  C   C1856     1.0  0.73483  0.22829  0.58228  1.0000
  Fe  Fe319     1.0  0.58688  0.46915  0.52899  1.0000
  C   C1857     1.0  0.52069  0.06153  0.33869  1.0000
  S   S636      1.0  0.59993  0.00914  0.39292  1.0000
  S   S637      1.0  0.69474  0.18254  0.43087  1.0000
  C   C1858     1.0  0.73410  0.03753  0.48752  1.0000
  H   H1865     1.0  0.67972  0.24568  0.36783  1.0000
  H   H1866     1.0  0.53827  0.13881  0.34074  1.0000
  N   N157      1.0  0.66951  0.24502  0.39639  1.0000
  H   H1867     1.0  0.66442  0.45206  0.52356  1.0000
  C   C1859     1.0  0.65038  0.99879  0.61740  1.0000
  N   N158      1.0  0.53827  0.15113  0.36267  1.0000
  C   C1860     1.0  0.54821  0.16238  0.36559  1.0000
  C   C1861     1.0  0.52007  0.15206  0.37098  1.0000
  C   C1862     1.0  0.53979  0.17528  0.37677  1.0000
  H   H1868     1.0  0.53848  0.28833  0.42452  1.0000
  H   H1869     1.0  0.55679  0.24256  0.30273  1.0000
  C   C1863     1.0  0.65048  0.97980  0.58030  1.0000
  S   S638      1.0  0.73017  0.20127  0.40699  1.0000
  C   C1864     1.0  0.54252  0.38900  0.37354  1.0000
  S   S639      1.0  0.72398  0.98412  0.58224  1.0000
  C   C1865     1.0  0.67538  0.97957  0.63183  1.0000
  C   C1866     1.0  0.66859  0.25338  0.37716  1.0000
  H   H1870     1.0  0.59070  0.97960  0.43071  1.0000
  H   H1871     1.0  0.64051  0.24571  0.40497  1.0000
  H   H1872     1.0  0.72386  0.09484  0.40047  1.0000
  H   H1873     1.0  0.70065  0.22969  0.42410  1.0000
  C   C1867     1.0  0.65375  0.24235  0.40911  1.0000
  C   C1868     1.0  0.65456  0.23455  0.42753  1.0000
  C   C1869     1.0  0.50872  0.00783  0.46376  1.0000
  H   H1874     1.0  0.53101  0.31638  0.43507  1.0000
  H   H1875     1.0  0.67018  0.26788  0.37417  1.0000
  H   H1876     1.0  0.64212  0.23190  0.43744  1.0000
  C   C1870     1.0  0.72099  0.20189  0.59706  1.0000
  H   H1877     1.0  0.72144  0.12196  0.41368  1.0000
  N   N159      1.0  0.66873  0.97808  0.58044  1.0000
  H   H1878     1.0  0.71677  0.37544  0.52941  1.0000
  H   H1879     1.0  0.72876  0.37270  0.54779  1.0000
  H   H1880     1.0  0.53789  0.45838  0.56008  1.0000
  C   C1871     1.0  0.52602  0.02861  0.34899  1.0000
  C   C1872     1.0  0.63838  0.98711  0.62795  1.0000
  H   H1881     1.0  0.56255  0.16196  0.35877  1.0000
  C   C1873     1.0  0.70478  0.11170  0.43957  1.0000
  H   H1882     1.0  0.50330  0.47258  0.34945  1.0000
  N   N160      1.0  0.71179  0.35322  0.55154  1.0000
  H   H1883     1.0  0.51627  0.01321  0.45030  1.0000
  C   C1874     1.0  0.49488  0.08554  0.38538  1.0000
  H   H1884     1.0  0.64541  0.01068  0.60761  1.0000
  C   C1875     1.0  0.69604  0.02897  0.52381  1.0000
  C   C1876     1.0  0.48997  0.29814  0.41341  1.0000
  H   H1885     1.0  0.55643  0.38284  0.36644  1.0000
  C   C1877     1.0  0.50354  0.20080  0.34702  1.0000
  Fe  Fe320     1.0  0.49078  0.12871  0.35162  1.0000
  H   H1886     1.0  0.57784  0.36450  0.48892  1.0000
  C   C1878     1.0  0.69738  0.08186  0.44243  1.0000
  C   C1879     1.0  0.52201  0.42877  0.53979  1.0000
  S   S640      1.0  0.48896  0.39197  0.45166  1.0000
  H   H1887     1.0  0.64349  0.99138  0.57152  1.0000
  S   S641      1.0  0.54673  0.97662  0.35921  1.0000
  H   H1888     1.0  0.68844  0.09780  0.46375  1.0000
  H   H1889     1.0  0.72507  0.29727  0.58476  1.0000
  C   C1880     1.0  0.71105  0.33752  0.54655  1.0000
  C   C1881     1.0  0.52143  0.42663  0.59595  1.0000
  H   H1890     1.0  0.55671  0.41307  0.34523  1.0000
  H   H1891     1.0  0.54751  0.18473  0.37836  1.0000
  S   S642      1.0  0.70066  0.97770  0.41207  1.0000
  H   H1892     1.0  0.55406  0.42898  0.61826  1.0000
  H   H1893     1.0  0.49793  0.01578  0.38747  1.0000
  H   H1894     1.0  0.73388  0.32476  0.58888  1.0000
  C   C1882     1.0  0.50336  0.01364  0.37311  1.0000
  H   H1895     1.0  0.72879  0.98213  0.51940  1.0000
  C   C1883     1.0  0.49673  0.45212  0.37383  1.0000
  H   H1896     1.0  0.49472  0.07618  0.35152  1.0000
  H   H1897     1.0  0.50967  0.33170  0.43245  1.0000
  C   C1884     1.0  0.49430  0.30886  0.42348  1.0000
  C   C1885     1.0  0.72971  0.05855  0.50837  1.0000
  Fe  Fe321     1.0  0.72759  0.36286  0.62825  1.0000
  C   C1886     1.0  0.73315  0.06925  0.47496  1.0000
  H   H1898     1.0  0.53352  0.41725  0.53857  1.0000
  H   H1899     1.0  0.49597  0.43198  0.61548  1.0000
  C   C1887     1.0  0.51844  0.97892  0.50874  1.0000
  H   H1900     1.0  0.59739  0.97978  0.45132  1.0000
  C   C1888     1.0  0.51589  0.31714  0.43731  1.0000
  H   H1901     1.0  0.62930  0.97522  0.45217  1.0000
  N   N161      1.0  0.50844  0.99004  0.49441  1.0000
  H   H1902     1.0  0.73393  0.99152  0.40769  1.0000
  H   H1903     1.0  0.49245  0.01035  0.36796  1.0000
  C   C1889     1.0  0.55318  0.47116  0.59073  1.0000
  N   N162      1.0  0.73274  0.05498  0.48980  1.0000
  C   C1890     1.0  0.63950  0.46385  0.54053  1.0000
  Fe  Fe322     1.0  0.51835  0.03854  0.79952  1.0000
  S   S643      1.0  0.50600  0.01577  0.81931  1.0000
  S   S644      1.0  0.51534  0.06373  0.81117  1.0000
  Fe  Fe323     1.0  0.52956  0.01759  0.76820  1.0000
  S   S645      1.0  0.51853  0.99297  0.78560  1.0000
  Fe  Fe324     1.0  0.49427  0.01357  0.79617  1.0000
  C   C1891     1.0  0.50123  0.34788  0.78154  1.0000
  Fe  Fe325     1.0  0.53117  0.99711  0.80735  1.0000
  S   S646      1.0  0.50417  0.03813  0.77725  1.0000
  S   S647      1.0  0.54463  0.01998  0.78901  1.0000
  H   H1904     1.0  0.51989  0.09152  0.82762  1.0000
  Fe  Fe326     1.0  0.59662  0.13960  0.84061  1.0000
  S   S648      1.0  0.58069  0.13889  0.86955  1.0000
  S   S649      1.0  0.61261  0.16242  0.82835  1.0000
  Fe  Fe327     1.0  0.58341  0.10656  0.83682  1.0000
  S   S650      1.0  0.56669  0.10292  0.86555  1.0000
  S   S651      1.0  0.58682  0.08658  0.81847  1.0000
  Fe  Fe328     1.0  0.55793  0.13365  0.85910  1.0000
  S   S652      1.0  0.52822  0.14651  0.86874  1.0000
  Fe  Fe329     1.0  0.59092  0.10843  0.87343  1.0000
  S   S653      1.0  0.60412  0.09057  0.89673  1.0000
  S   S654      1.0  0.57285  0.13696  0.82963  1.0000
  S   S655      1.0  0.60856  0.10948  0.84515  1.0000
  S   S656      1.0  0.72635  0.34441  0.65631  1.0000
  H   H1905     1.0  0.54128  0.22502  0.84782  1.0000
  H   H1906     1.0  0.54783  0.10086  0.83063  1.0000
  S   S657      1.0  0.49824  0.22601  0.82655  1.0000
  S   S658      1.0  0.60522  0.12934  0.96002  1.0000
  Fe  Fe330     1.0  0.54617  0.40132  0.78901  1.0000
  S   S659      1.0  0.54176  0.38682  0.81851  1.0000
  S   S660      1.0  0.57406  0.40754  0.77428  1.0000
  Fe  Fe331     1.0  0.50589  0.40713  0.78687  1.0000
  C   C1892     1.0  0.51712  0.45771  0.95209  1.0000
  H   H1907     1.0  0.67576  0.13059  0.79234  1.0000
  Fe  Fe332     1.0  0.51668  0.40921  0.82199  1.0000
  C   C1893     1.0  0.61421  0.37401  0.82624  1.0000
  Fe  Fe333     1.0  0.52371  0.37239  0.81023  1.0000
  S   S661      1.0  0.52592  0.34158  0.81757  1.0000
  S   S662      1.0  0.52218  0.42482  0.79296  1.0000
  S   S663      1.0  0.53043  0.38502  0.78017  1.0000
  S   S664      1.0  0.69917  0.14431  0.82260  1.0000
  Fe  Fe334     1.0  0.71047  0.33293  0.77924  1.0000
  H   H1908     1.0  0.59386  0.01799  0.82256  1.0000
  Fe  Fe335     1.0  0.66980  0.34992  0.78319  1.0000
  S   S665      1.0  0.67532  0.37839  0.77369  1.0000
  S   S666      1.0  0.64132  0.34338  0.79113  1.0000
  Fe  Fe336     1.0  0.69782  0.36691  0.75224  1.0000
  S   S667      1.0  0.70156  0.38433  0.72382  1.0000
  Fe  Fe337     1.0  0.69606  0.36904  0.79181  1.0000
  S   S668      1.0  0.69517  0.38931  0.80884  1.0000
  S   S669      1.0  0.69079  0.33896  0.76020  1.0000
  S   S670      1.0  0.68885  0.34121  0.80321  1.0000
  H   H1909     1.0  0.53659  0.14390  0.81540  1.0000
  S   S671      1.0  0.54219  0.02011  0.73785  1.0000
  C   C1894     1.0  0.50468  0.41626  0.73755  1.0000
  C   C1895     1.0  0.70126  0.04812  0.65019  1.0000
  H   H1910     1.0  0.65924  0.37677  0.82011  1.0000
  H   H1911     1.0  0.59050  0.02561  0.69632  1.0000
  C   C1896     1.0  0.55004  0.00267  0.70885  1.0000
  H   H1912     1.0  0.69398  0.06230  0.64802  1.0000
  H   H1913     1.0  0.73258  0.44952  0.78007  1.0000
  H   H1914     1.0  0.54934  0.01627  0.70030  1.0000
  C   C1897     1.0  0.54626  0.00062  0.72805  1.0000
  H   H1915     1.0  0.71368  0.16419  0.75967  1.0000
  S   S672      1.0  0.69906  0.23492  0.80775  1.0000
  C   C1898     1.0  0.51740  0.22375  0.86993  1.0000
  C   C1899     1.0  0.72755  0.25380  0.79292  1.0000
  C   C1900     1.0  0.55512  0.44076  0.84359  1.0000
  C   C1901     1.0  0.69674  0.27205  0.79897  1.0000
  C   C1902     1.0  0.70394  0.28817  0.79298  1.0000
  C   C1903     1.0  0.72299  0.28712  0.78713  1.0000
  H   H1916     1.0  0.68200  0.27291  0.80372  1.0000
  H   H1917     1.0  0.69473  0.30138  0.79310  1.0000
  S   S673      1.0  0.71933  0.36020  0.76940  1.0000
  H   H1918     1.0  0.61138  0.41969  0.81536  1.0000
  C   C1904     1.0  0.70718  0.37334  0.70504  1.0000
  C   C1905     1.0  0.70595  0.35498  0.70740  1.0000
  C   C1906     1.0  0.49276  0.42437  0.70926  1.0000
  H   H1919     1.0  0.70128  0.34728  0.72089  1.0000
  H   H1920     1.0  0.49982  0.20009  0.79424  1.0000
  H   H1921     1.0  0.50372  0.43492  0.95610  1.0000
  Fe  Fe338     1.0  0.71511  0.16724  0.81141  1.0000
  H   H1922     1.0  0.52385  0.17168  0.79647  1.0000
  C   C1907     1.0  0.59248  0.38974  0.77955  1.0000
  C   C1908     1.0  0.61035  0.39333  0.77485  1.0000
  C   C1909     1.0  0.62538  0.37922  0.77849  1.0000
  C   C1910     1.0  0.62263  0.36144  0.78686  1.0000
  C   C1911     1.0  0.60470  0.35790  0.79176  1.0000
  C   C1912     1.0  0.58962  0.37204  0.78814  1.0000
  H   H1923     1.0  0.61258  0.40704  0.76826  1.0000
  H   H1924     1.0  0.63902  0.38213  0.77457  1.0000
  H   H1925     1.0  0.60245  0.34416  0.79824  1.0000
  H   H1926     1.0  0.57583  0.36916  0.79174  1.0000
  C   C1913     1.0  0.52483  0.43280  0.85108  1.0000
  C   C1914     1.0  0.54243  0.43232  0.83985  1.0000
  H   H1927     1.0  0.54610  0.42576  0.82812  1.0000
  H   H1928     1.0  0.56861  0.44062  0.83473  1.0000
  H   H1929     1.0  0.71044  0.33211  0.69409  1.0000
  C   C1915     1.0  0.53269  0.45012  0.86975  1.0000
  S   S674      1.0  0.56595  0.46147  0.86187  1.0000
  C   C1916     1.0  0.50555  0.33261  0.82613  1.0000
  C   C1917     1.0  0.50638  0.31384  0.82742  1.0000
  C   C1918     1.0  0.72562  0.25696  0.83780  1.0000
  H   H1930     1.0  0.58364  0.40971  0.81165  1.0000
  H   H1931     1.0  0.51959  0.30494  0.82390  1.0000
  S   S675      1.0  0.49810  0.39347  0.81642  1.0000
  C   C1919     1.0  0.63660  0.15735  0.82736  1.0000
  C   C1920     1.0  0.64605  0.13925  0.83165  1.0000
  C   C1921     1.0  0.66519  0.13549  0.83062  1.0000
  C   C1922     1.0  0.67504  0.14979  0.82506  1.0000
  C   C1923     1.0  0.66564  0.16792  0.82078  1.0000
  C   C1924     1.0  0.64644  0.17168  0.82196  1.0000
  H   H1932     1.0  0.63870  0.12810  0.83553  1.0000
  H   H1933     1.0  0.67246  0.12144  0.83377  1.0000
  H   H1934     1.0  0.67317  0.17902  0.81646  1.0000
  H   H1935     1.0  0.63921  0.18573  0.81861  1.0000
  C   C1925     1.0  0.60346  0.10090  0.91498  1.0000
  C   C1926     1.0  0.61482  0.09206  0.92770  1.0000
  C   C1927     1.0  0.61521  0.10051  0.94184  1.0000
  C   C1928     1.0  0.60412  0.11777  0.94337  1.0000
  C   C1929     1.0  0.59255  0.12643  0.93085  1.0000
  C   C1930     1.0  0.59222  0.11803  0.91668  1.0000
  H   H1936     1.0  0.62359  0.07883  0.92636  1.0000
  N   N163      1.0  0.59341  0.99808  0.71165  1.0000
  H   H1937     1.0  0.58392  0.13977  0.93203  1.0000
  H   H1938     1.0  0.58318  0.12477  0.90719  1.0000
  C   C1931     1.0  0.52028  0.16873  0.85709  1.0000
  C   C1932     1.0  0.53119  0.17705  0.84118  1.0000
  C   C1933     1.0  0.52435  0.19473  0.83196  1.0000
  C   C1934     1.0  0.50671  0.20421  0.83873  1.0000
  H   H1939     1.0  0.68012  0.03749  0.64440  1.0000
  C   C1935     1.0  0.50266  0.17821  0.86387  1.0000
  H   H1940     1.0  0.54486  0.16991  0.83596  1.0000
  H   H1941     1.0  0.53275  0.20109  0.81955  1.0000
  C   C1936     1.0  0.71424  0.38632  0.81896  1.0000
  C   C1937     1.0  0.48862  0.36402  0.78462  1.0000
  C   C1938     1.0  0.55019  0.44990  0.85840  1.0000
  C   C1939     1.0  0.53521  0.07124  0.81152  1.0000
  C   C1940     1.0  0.55273  0.06313  0.80304  1.0000
  C   C1941     1.0  0.56845  0.06860  0.80453  1.0000
  C   C1942     1.0  0.56675  0.08200  0.81471  1.0000
  C   C1943     1.0  0.54920  0.09053  0.82275  1.0000
  C   C1944     1.0  0.53345  0.08519  0.82109  1.0000
  H   H1942     1.0  0.55418  0.05258  0.79543  1.0000
  H   H1943     1.0  0.58201  0.06210  0.79815  1.0000
  C   C1945     1.0  0.50538  0.44556  0.96219  1.0000
  C   C1946     1.0  0.49213  0.15843  0.83350  1.0000
  C   C1947     1.0  0.53495  0.21682  0.86044  1.0000
  S   S676      1.0  0.72056  0.18475  0.82816  1.0000
  H   H1944     1.0  0.58023  0.38710  0.82262  1.0000
  C   C1948     1.0  0.53519  0.18838  0.88269  1.0000
  H   H1945     1.0  0.51033  0.23739  0.86448  1.0000
  C   C1949     1.0  0.49495  0.33145  0.78547  1.0000
  H   H1946     1.0  0.61465  0.47136  0.91925  1.0000
  H   H1947     1.0  0.50685  0.44699  0.63830  1.0000
  C   C1950     1.0  0.58665  0.39834  0.82340  1.0000
  H   H1948     1.0  0.71818  0.12478  0.76801  1.0000
  C   C1951     1.0  0.52183  0.44274  0.63842  1.0000
  H   H1949     1.0  0.60483  0.98344  0.66469  1.0000
  C   C1952     1.0  0.61747  0.40517  0.81813  1.0000
  C   C1953     1.0  0.54389  0.19903  0.86691  1.0000
  S   S677      1.0  0.70905  0.19063  0.78823  1.0000
  H   H1950     1.0  0.60567  0.36377  0.82953  1.0000
  H   H1951     1.0  0.54464  0.98124  0.75379  1.0000
  H   H1952     1.0  0.64951  0.15605  0.78660  1.0000
  C   C1954     1.0  0.49151  0.46493  0.72040  1.0000
  H   H1953     1.0  0.54167  0.17424  0.88737  1.0000
  C   C1955     1.0  0.55493  0.98721  0.70065  1.0000
  H   H1954     1.0  0.49053  0.97452  0.81210  1.0000
  H   H1955     1.0  0.51585  0.34802  0.77684  1.0000
  C   C1956     1.0  0.50771  0.41904  0.71827  1.0000
  H   H1956     1.0  0.64524  0.40992  0.81377  1.0000
  C   C1957     1.0  0.70338  0.01610  0.65058  1.0000
  C   C1958     1.0  0.51763  0.19574  0.89185  1.0000
  C   C1959     1.0  0.52010  0.44150  0.86616  1.0000
  H   H1957     1.0  0.60634  0.02674  0.96577  1.0000
  N   N164      1.0  0.55683  0.04141  0.84789  1.0000
  C   C1960     1.0  0.57477  0.03616  0.83935  1.0000
  C   C1961     1.0  0.54352  0.03261  0.84719  1.0000
  C   C1962     1.0  0.57972  0.02187  0.82963  1.0000
  C   C1963     1.0  0.54806  0.01809  0.83784  1.0000
  C   C1964     1.0  0.56625  0.01272  0.82899  1.0000
  C   C1965     1.0  0.55200  0.05579  0.85876  1.0000
  H   H1958     1.0  0.58527  0.04335  0.83962  1.0000
  H   H1959     1.0  0.52925  0.03691  0.85372  1.0000
  H   H1960     1.0  0.52324  0.13459  0.83677  1.0000
  H   H1961     1.0  0.53754  0.01103  0.83740  1.0000
  H   H1962     1.0  0.56983  0.00154  0.82159  1.0000
  S   S678      1.0  0.49698  0.42929  0.68503  1.0000
  H   H1963     1.0  0.61691  0.05626  0.95983  1.0000
  H   H1964     1.0  0.52885  0.45689  0.88132  1.0000
  H   H1965     1.0  0.50625  0.45987  0.71935  1.0000
  N   N165      1.0  0.60661  0.39232  0.82236  1.0000
  C   C1966     1.0  0.59727  0.97984  0.71097  1.0000
  C   C1967     1.0  0.49034  0.22055  0.89479  1.0000
  H   H1966     1.0  0.52426  0.44569  0.65100  1.0000
  S   S679      1.0  0.56845  0.97721  0.64971  1.0000
  H   H1967     1.0  0.63928  0.35359  0.82791  1.0000
  C   C1968     1.0  0.60178  0.98750  0.67788  1.0000
  N   N166      1.0  0.73317  0.22651  0.85548  1.0000
  H   H1968     1.0  0.65546  0.18606  0.76730  1.0000
  H   H1969     1.0  0.58125  0.99468  0.74022  1.0000
  C   C1969     1.0  0.72815  0.02549  0.65693  1.0000
  N   N167      1.0  0.69623  0.14596  0.77648  1.0000
  H   H1970     1.0  0.51979  0.13084  0.81556  1.0000
  C   C1970     1.0  0.68504  0.17690  0.76190  1.0000
  H   H1971     1.0  0.52168  0.41737  0.71031  1.0000
  C   C1971     1.0  0.58976  0.00355  0.72943  1.0000
  H   H1972     1.0  0.51211  0.98624  0.84765  1.0000
  C   C1972     1.0  0.71180  0.13101  0.78031  1.0000
  C   C1973     1.0  0.64445  0.38113  0.82088  1.0000
  H   H1973     1.0  0.51627  0.41256  0.74436  1.0000
  H   H1974     1.0  0.55799  0.98894  0.68585  1.0000
  C   C1974     1.0  0.67848  0.14350  0.78359  1.0000
  H   H1975     1.0  0.58168  0.01783  0.72890  1.0000
  C   C1975     1.0  0.48844  0.34400  0.83079  1.0000
  N   N168      1.0  0.50907  0.21330  0.88556  1.0000
  C   C1976     1.0  0.66690  0.17470  0.76956  1.0000
  H   H1976     1.0  0.56205  0.06516  0.85403  1.0000
  C   C1977     1.0  0.66355  0.15785  0.78034  1.0000
  H   H1977     1.0  0.59791  0.01636  0.66607  1.0000
  H   H1978     1.0  0.50468  0.31871  0.78387  1.0000
  H   H1979     1.0  0.70416  0.41183  0.82849  1.0000
  H   H1980     1.0  0.71789  0.42459  0.77810  1.0000
  C   C1978     1.0  0.49013  0.30666  0.83267  1.0000
  C   C1979     1.0  0.70850  0.25483  0.79895  1.0000
  C   C1980     1.0  0.59374  0.01115  0.69578  1.0000
  C   C1981     1.0  0.54721  0.98301  0.73901  1.0000
  Fe  Fe339     1.0  0.71722  0.20763  0.80368  1.0000
  N   N169      1.0  0.64406  0.38283  0.72852  1.0000
  C   C1982     1.0  0.65389  0.36575  0.73431  1.0000
  C   C1983     1.0  0.62518  0.38594  0.73150  1.0000
  C   C1984     1.0  0.64488  0.35115  0.74319  1.0000
  C   C1985     1.0  0.61572  0.37162  0.74024  1.0000
  C   C1986     1.0  0.62567  0.35414  0.74612  1.0000
  C   C1987     1.0  0.65396  0.39791  0.71984  1.0000
  H   H1981     1.0  0.66880  0.36346  0.73227  1.0000
  H   H1982     1.0  0.61726  0.39959  0.72754  1.0000
  H   H1983     1.0  0.65264  0.33775  0.74835  1.0000
  H   H1984     1.0  0.60073  0.37425  0.74311  1.0000
  H   H1985     1.0  0.61848  0.34308  0.75359  1.0000
  H   H1986     1.0  0.64495  0.41034  0.71348  1.0000
  H   H1987     1.0  0.65955  0.40155  0.73025  1.0000
  H   H1988     1.0  0.66577  0.39370  0.70883  1.0000
  N   N170      1.0  0.63599  0.12587  0.88777  1.0000
  C   C1988     1.0  0.64018  0.12567  0.90417  1.0000
  C   C1989     1.0  0.62523  0.14105  0.87930  1.0000
  C   C1990     1.0  0.63306  0.14074  0.91279  1.0000
  C   C1991     1.0  0.61790  0.15636  0.88751  1.0000
  C   C1992     1.0  0.62175  0.15611  0.90444  1.0000
  C   C1993     1.0  0.64380  0.11005  0.87885  1.0000
  H   H1989     1.0  0.64870  0.11365  0.91092  1.0000
  H   H1990     1.0  0.62209  0.14134  0.86620  1.0000
  H   H1991     1.0  0.63583  0.14025  0.92615  1.0000
  H   H1992     1.0  0.60923  0.16826  0.88077  1.0000
  H   H1993     1.0  0.61587  0.16771  0.91121  1.0000
  H   H1994     1.0  0.65767  0.11138  0.87028  1.0000
  H   H1995     1.0  0.64486  0.09701  0.88923  1.0000
  H   H1996     1.0  0.63475  0.10892  0.87004  1.0000
  H   H1997     1.0  0.72507  0.98416  0.65137  1.0000
  C   C1994     1.0  0.72872  0.37107  0.81779  1.0000
  C   C1995     1.0  0.69962  0.16226  0.76545  1.0000
  H   H1998     1.0  0.52461  0.45630  0.93836  1.0000
  H   H1999     1.0  0.55726  0.19329  0.85935  1.0000
  S   S680      1.0  0.50798  0.42395  0.84582  1.0000
  C   C1996     1.0  0.59787  0.00605  0.67867  1.0000
  C   C1997     1.0  0.71876  0.37449  0.67227  1.0000
  C   C1998     1.0  0.71783  0.35605  0.67467  1.0000
  N   N171      1.0  0.72061  0.01201  0.65458  1.0000
  H   H2000     1.0  0.72486  0.05444  0.65621  1.0000
  N   N172      1.0  0.50835  0.15768  0.82080  1.0000
  C   C1999     1.0  0.51100  0.17223  0.80654  1.0000
  H   H2001     1.0  0.72915  0.45553  0.94002  1.0000
  C   C2000     1.0  0.49741  0.18826  0.80507  1.0000
  C   C2001     1.0  0.73116  0.39901  0.83413  1.0000
  C   C2002     1.0  0.63655  0.39977  0.81725  1.0000
  C   C2003     1.0  0.73105  0.20730  0.86059  1.0000
  H   H2002     1.0  0.68788  0.18996  0.75356  1.0000
  C   C2004     1.0  0.52266  0.14093  0.82214  1.0000
  C   C2005     1.0  0.49595  0.19599  0.85481  1.0000
  H   H2003     1.0  0.73180  0.40969  0.84071  1.0000
  H   H2004     1.0  0.49358  0.37672  0.78171  1.0000
  H   H2005     1.0  0.53820  0.06440  0.85734  1.0000
  H   H2006     1.0  0.73093  0.98719  0.67164  1.0000
  C   C2006     1.0  0.71118  0.34638  0.69222  1.0000
  H   H2007     1.0  0.71431  0.39735  0.68552  1.0000
  C   C2007     1.0  0.69353  0.03424  0.64813  1.0000
  C   C2008     1.0  0.71333  0.38314  0.68742  1.0000
  C   C2009     1.0  0.71539  0.40011  0.82739  1.0000
  H   H2008     1.0  0.62436  0.09385  0.95131  1.0000
  H   H2009     1.0  0.69731  0.00541  0.64885  1.0000
  C   C2010     1.0  0.72312  0.23878  0.84360  1.0000
  H   H2010     1.0  0.71318  0.23453  0.83843  1.0000
  H   H2011     1.0  0.51072  0.18716  0.90376  1.0000
  S   S681      1.0  0.71793  0.46151  0.86541  1.0000
  S   S682      1.0  0.73226  0.30715  0.78005  1.0000
  H   H2012     1.0  0.55188  0.04949  0.87348  1.0000
  C   C2011     1.0  0.71858  0.04372  0.65484  1.0000
  H   H2013     1.0  0.50653  0.44183  0.87492  1.0000
  H   H2014     1.0  0.50525  0.46547  0.82604  1.0000
  H   H2015     1.0  0.60294  0.00257  0.73358  1.0000
  C   C2012     1.0  0.51976  0.47109  0.96013  1.0000
  H   H2016     1.0  0.48842  0.23542  0.89470  1.0000
  H   H2017     1.0  0.57992  0.40307  0.83651  1.0000
  H   H2018     1.0  0.72415  0.38194  0.65883  1.0000
  C   C2013     1.0  0.63323  0.36815  0.82544  1.0000
  H   H2019     1.0  0.72786  0.36031  0.81140  1.0000
  H   H2020     1.0  0.71653  0.20625  0.86168  1.0000
  C   C2014     1.0  0.60146  0.97427  0.69410  1.0000
  H   H2021     1.0  0.52534  0.42763  0.63927  1.0000
  H   H2022     1.0  0.48719  0.21356  0.90944  1.0000
  H   H2023     1.0  0.49009  0.14694  0.84486  1.0000
  H   H2024     1.0  0.70746  0.12021  0.79221  1.0000
  C   C2015     1.0  0.73217  0.46921  0.93661  1.0000
  H   H2025     1.0  0.72230  0.13630  0.78418  1.0000
  H   H2026     1.0  0.49420  0.17181  0.87620  1.0000
  H   H2027     1.0  0.72419  0.30368  0.74430  1.0000
  C   C2016     1.0  0.73196  0.42153  0.78023  1.0000
  H   H2028     1.0  0.71761  0.26665  0.82838  1.0000
  H   H2029     1.0  0.49308  0.47152  0.69110  1.0000
  H   H2030     1.0  0.48765  0.35837  0.83015  1.0000
  H   H2031     1.0  0.49082  0.29231  0.83306  1.0000
  C   C2017     1.0  0.48665  0.41871  0.74787  1.0000
  C   C2018     1.0  0.73100  0.99304  0.65687  1.0000
  C   C2019     1.0  0.73478  0.26993  0.78707  1.0000
  H   H2032     1.0  0.73466  0.43885  0.63848  1.0000
  H   H2033     1.0  0.73492  0.20048  0.87406  1.0000
  H   H2034     1.0  0.48534  0.45871  0.75004  1.0000
  H   H2035     1.0  0.48684  0.37224  0.96541  1.0000
  H   H2036     1.0  0.71539  0.54915  0.00855  1.0000
  C   C2020     1.0  0.58513  0.86789  0.28766  1.0000
  C   C2021     1.0  0.70520  0.83233  0.05497  1.0000
  H   H2037     1.0  0.60228  0.87504  0.26101  1.0000
  S   S683      1.0  0.70848  0.49091  0.08322  1.0000
  C   C2022     1.0  0.55132  0.49955  0.20704  1.0000
  H   H2038     1.0  0.53087  0.92927  0.02537  1.0000
  H   H2039     1.0  0.52081  0.93265  0.26362  1.0000
  C   C2023     1.0  0.60204  0.86939  0.27546  1.0000
  N   N173      1.0  0.49751  0.48429  0.23845  1.0000
  C   C2024     1.0  0.69024  0.81901  0.21572  1.0000
  S   S684      1.0  0.71765  0.90053  0.07661  1.0000
  H   H2040     1.0  0.73354  0.83111  0.09351  1.0000
  C   C2025     1.0  0.70897  0.60816  0.27008  1.0000
  H   H2041     1.0  0.62092  0.84319  0.24808  1.0000
  C   C2026     1.0  0.70915  0.85876  0.20565  1.0000
  H   H2042     1.0  0.72372  0.57985  0.07691  1.0000
  S   S685      1.0  0.66428  0.89727  0.09980  1.0000
  Fe  Fe340     1.0  0.66565  0.84965  0.28959  1.0000
  S   S686      1.0  0.66862  0.84328  0.26197  1.0000
  H   H2043     1.0  0.48829  0.95919  0.21591  1.0000
  Fe  Fe341     1.0  0.70661  0.84850  0.28454  1.0000
  Fe  Fe342     1.0  0.68754  0.86335  0.25188  1.0000
  S   S687      1.0  0.68428  0.88317  0.22513  1.0000
  Fe  Fe343     1.0  0.69365  0.82260  0.26838  1.0000
  S   S688      1.0  0.70173  0.79599  0.25825  1.0000
  S   S689      1.0  0.68266  0.87163  0.27918  1.0000
  S   S690      1.0  0.57497  0.47734  0.12582  1.0000
  H   H2044     1.0  0.58794  0.50794  0.18469  1.0000
  S   S691      1.0  0.58859  0.96677  0.01167  1.0000
  C   C2027     1.0  0.49450  0.96238  0.11498  1.0000
  H   H2045     1.0  0.69812  0.64711  0.28719  1.0000
  Fe  Fe344     1.0  0.72395  0.51395  0.07185  1.0000
  H   H2046     1.0  0.68443  0.82262  0.07737  1.0000
  Fe  Fe345     1.0  0.56511  0.95221  0.01643  1.0000
  C   C2028     1.0  0.50611  0.93486  0.06720  1.0000
  S   S692      1.0  0.55117  0.95292  0.99331  1.0000
  Fe  Fe346     1.0  0.59936  0.94360  0.03319  1.0000
  H   H2047     1.0  0.66103  0.84159  0.09487  1.0000
  S   S693      1.0  0.63025  0.93351  0.02869  1.0000
  Fe  Fe347     1.0  0.56150  0.94364  0.05788  1.0000
  S   S694      1.0  0.54595  0.92888  0.08423  1.0000
  C   C2029     1.0  0.48804  0.50216  0.20483  1.0000
  S   S695      1.0  0.57731  0.92774  0.03582  1.0000
  H   H2048     1.0  0.67308  0.85500  0.10238  1.0000
  C   C2030     1.0  0.55870  0.90014  0.98752  1.0000
  H   H2049     1.0  0.51656  0.49232  0.19300  1.0000
  C   C2031     1.0  0.55743  0.48625  0.19601  1.0000
  Fe  Fe348     1.0  0.69813  0.50393  0.10791  1.0000
  C   C2032     1.0  0.52938  0.90817  0.05865  1.0000
  H   H2050     1.0  0.53674  0.58452  0.29959  1.0000
  S   S696      1.0  0.71202  0.52814  0.09571  1.0000
  H   H2051     1.0  0.63218  0.51322  0.16547  1.0000
  C   C2033     1.0  0.71297  0.86130  0.17271  1.0000
  H   H2052     1.0  0.65783  0.86597  0.08665  1.0000
  C   C2034     1.0  0.55123  0.49453  0.22598  1.0000
  H   H2053     1.0  0.49642  0.94423  0.19993  1.0000
  H   H2054     1.0  0.64948  0.48795  0.07937  1.0000
  C   C2035     1.0  0.53173  0.91301  0.24585  1.0000
  H   H2055     1.0  0.52542  0.89845  0.05247  1.0000
  Fe  Fe349     1.0  0.73271  0.47653  0.09645  1.0000
  S   S697      1.0  0.69732  0.50134  0.98836  1.0000
  C   C2036     1.0  0.61859  0.86425  0.28199  1.0000
  N   N174      1.0  0.71196  0.63461  0.24575  1.0000
  H   H2056     1.0  0.52948  0.96777  0.07752  1.0000
  C   C2037     1.0  0.70351  0.61942  0.28305  1.0000
  H   H2057     1.0  0.63769  0.86389  0.22245  1.0000
  C   C2038     1.0  0.64677  0.97321  0.03439  1.0000
  H   H2058     1.0  0.52440  0.47591  0.22301  1.0000
  H   H2059     1.0  0.72902  0.84019  0.18996  1.0000
  C   C2039     1.0  0.66189  0.48609  0.06822  1.0000
  H   H2060     1.0  0.62913  0.50921  0.12281  1.0000
  C   C2040     1.0  0.65619  0.49205  0.11811  1.0000
  H   H2061     1.0  0.68098  0.79106  0.29579  1.0000
  H   H2062     1.0  0.52132  0.91837  0.20406  1.0000
  S   S698      1.0  0.73106  0.84693  0.29685  1.0000
  Fe  Fe350     1.0  0.54031  0.48795  0.27676  1.0000
  H   H2063     1.0  0.54434  0.90828  0.05357  1.0000
  C   C2041     1.0  0.52138  0.96098  0.08983  1.0000
  H   H2064     1.0  0.49646  0.89437  0.26557  1.0000
  S   S699      1.0  0.71295  0.84220  0.25632  1.0000
  S   S700      1.0  0.72515  0.85319  0.15268  1.0000
  C   C2042     1.0  0.49875  0.96213  0.04451  1.0000
  S   S701      1.0  0.55262  0.49837  0.29490  1.0000
  C   C2043     1.0  0.59646  0.51125  0.17068  1.0000
  C   C2044     1.0  0.70618  0.50987  0.00290  1.0000
  C   C2045     1.0  0.71079  0.49820  0.01900  1.0000
  C   C2046     1.0  0.71675  0.50493  0.03148  1.0000
  C   C2047     1.0  0.71828  0.52334  0.02784  1.0000
  C   C2048     1.0  0.71417  0.53491  0.01147  1.0000
  C   C2049     1.0  0.70799  0.52823  0.99906  1.0000
  H   H2065     1.0  0.50975  0.96090  0.19943  1.0000
  H   H2066     1.0  0.71890  0.93350  0.13561  1.0000
  H   H2067     1.0  0.49201  0.93692  0.13420  1.0000
  H   H2068     1.0  0.70443  0.53734  0.98668  1.0000
  C   C2050     1.0  0.61018  0.47949  0.16790  1.0000
  H   H2069     1.0  0.73245  0.68408  0.12164  1.0000
  C   C2051     1.0  0.52156  0.92174  0.21693  1.0000
  S   S702      1.0  0.58461  0.95733  0.05688  1.0000
  C   C2052     1.0  0.50604  0.49260  0.20553  1.0000
  H   H2070     1.0  0.72292  0.65448  0.22358  1.0000
  C   C2053     1.0  0.62751  0.48218  0.12057  1.0000
  C   C2054     1.0  0.52687  0.94221  0.09652  1.0000
  C   C2055     1.0  0.51628  0.93361  0.11262  1.0000
  C   C2056     1.0  0.50015  0.94367  0.12186  1.0000
  C   C2057     1.0  0.70360  0.74299  0.28415  1.0000
  H   H2071     1.0  0.70243  0.93626  0.16759  1.0000
  H   H2072     1.0  0.52046  0.91909  0.11787  1.0000
  H   H2073     1.0  0.66098  0.49891  0.03237  1.0000
  C   C2058     1.0  0.52099  0.93571  0.03592  1.0000
  Fe  Fe351     1.0  0.72883  0.90626  0.09871  1.0000
  H   H2074     1.0  0.49387  0.89071  0.23523  1.0000
  H   H2075     1.0  0.66624  0.52911  0.01389  1.0000
  S   S703      1.0  0.54781  0.96704  0.03870  1.0000
  H   H2076     1.0  0.53951  0.89602  0.22553  1.0000
  C   C2059     1.0  0.65510  0.90828  0.08000  1.0000
  C   C2060     1.0  0.66642  0.91371  0.06303  1.0000
  C   C2061     1.0  0.65870  0.92125  0.04730  1.0000
  C   C2062     1.0  0.63960  0.92382  0.04855  1.0000
  C   C2063     1.0  0.62824  0.91888  0.06561  1.0000
  C   C2064     1.0  0.63600  0.91099  0.08125  1.0000
  H   H2077     1.0  0.68111  0.91202  0.06196  1.0000
  H   H2078     1.0  0.66754  0.92515  0.03414  1.0000
  H   H2079     1.0  0.61350  0.92078  0.06671  1.0000
  H   H2080     1.0  0.62716  0.90687  0.09435  1.0000
  C   C2065     1.0  0.69515  0.87443  0.20514  1.0000
  C   C2066     1.0  0.68986  0.88337  0.18841  1.0000
  C   C2067     1.0  0.69874  0.87681  0.17221  1.0000
  H   H2081     1.0  0.67894  0.89545  0.18794  1.0000
  H   H2082     1.0  0.69457  0.88377  0.15939  1.0000
  H   H2083     1.0  0.58782  0.51272  0.16047  1.0000
  C   C2068     1.0  0.64555  0.48562  0.16308  1.0000
  C   C2069     1.0  0.72260  0.92302  0.14726  1.0000
  C   C2070     1.0  0.69042  0.83444  0.06988  1.0000
  C   C2071     1.0  0.63688  0.49581  0.12059  1.0000
  H   H2084     1.0  0.66968  0.85227  0.20744  1.0000
  C   C2072     1.0  0.51048  0.48350  0.22256  1.0000
  H   H2085     1.0  0.73419  0.75536  0.29088  1.0000
  H   H2086     1.0  0.68715  0.87870  0.07053  1.0000
  C   C2073     1.0  0.71322  0.84737  0.04541  1.0000
  C   C2074     1.0  0.54936  0.90198  0.97334  1.0000
  C   C2075     1.0  0.70225  0.63832  0.27718  1.0000
  H   H2087     1.0  0.60077  0.90768  0.96845  1.0000
  H   H2088     1.0  0.54790  0.48851  0.00971  1.0000
  S   S704      1.0  0.51185  0.87469  0.29622  1.0000
  H   H2089     1.0  0.69370  0.80384  0.21714  1.0000
  H   H2090     1.0  0.63673  0.81109  0.25840  1.0000
  H   H2091     1.0  0.72703  0.71098  0.07568  1.0000
  C   C2076     1.0  0.50103  0.95126  0.20856  1.0000
  C   C2077     1.0  0.54015  0.93472  0.97276  1.0000
  H   H2092     1.0  0.71341  0.85184  0.21840  1.0000
  H   H2093     1.0  0.50313  0.95475  0.24173  1.0000
  N   N175      1.0  0.67088  0.82532  0.22399  1.0000
  H   H2094     1.0  0.54373  0.65593  0.29265  1.0000
  S   S705      1.0  0.70460  0.89987  0.12108  1.0000
  H   H2095     1.0  0.53933  0.90310  0.25553  1.0000
  H   H2096     1.0  0.65935  0.48839  0.16052  1.0000
  H   H2097     1.0  0.71828  0.57549  0.13633  1.0000
  N   N176      1.0  0.51855  0.92670  0.05388  1.0000
  H   H2098     1.0  0.51182  0.48334  0.98409  1.0000
  C   C2078     1.0  0.69778  0.77630  0.27493  1.0000
  H   H2099     1.0  0.67657  0.54247  0.06115  1.0000
  C   C2079     1.0  0.55902  0.91559  0.99411  1.0000
  C   C2080     1.0  0.54995  0.93297  0.98655  1.0000
  H   H2100     1.0  0.52745  0.90315  0.07379  1.0000
  H   H2101     1.0  0.56664  0.91409  0.00472  1.0000
  C   C2081     1.0  0.70650  0.64576  0.25837  1.0000
  C   C2082     1.0  0.70671  0.86414  0.05106  1.0000
  H   H2102     1.0  0.69933  0.82288  0.22279  1.0000
  C   C2083     1.0  0.63484  0.83810  0.24112  1.0000
  H   H2103     1.0  0.70573  0.66046  0.25396  1.0000
  S   S706      1.0  0.72403  0.68887  0.97514  1.0000
  S   S707      1.0  0.65855  0.54050  0.96922  1.0000
  H   H2104     1.0  0.67003  0.51254  0.07958  1.0000
  H   H2105     1.0  0.72495  0.84587  0.03408  1.0000
  H   H2106     1.0  0.71388  0.75779  0.25713  1.0000
  N   N177      1.0  0.68376  0.85112  0.07497  1.0000
  C   C2084     1.0  0.66818  0.85339  0.09049  1.0000
  H   H2107     1.0  0.70995  0.72961  0.28089  1.0000
  H   H2108     1.0  0.67432  0.55104  0.02817  1.0000
  H   H2109     1.0  0.54641  0.51371  0.20099  1.0000
  C   C2085     1.0  0.67131  0.53801  0.03642  1.0000
  C   C2086     1.0  0.55752  0.47623  0.23383  1.0000
  C   C2087     1.0  0.51112  0.95353  0.03095  1.0000
  H   H2110     1.0  0.71344  0.87568  0.04425  1.0000
  H   H2111     1.0  0.56973  0.90557  0.29679  1.0000
  C   C2088     1.0  0.68729  0.77772  0.29248  1.0000
  C   C2089     1.0  0.64369  0.82007  0.24689  1.0000
  C   C2090     1.0  0.71589  0.64274  0.22609  1.0000
  C   C2091     1.0  0.71309  0.61604  0.25136  1.0000
  S   S708      1.0  0.51904  0.51374  0.27158  1.0000
  H   H2112     1.0  0.63148  0.86610  0.27263  1.0000
  C   C2092     1.0  0.69192  0.86575  0.06598  1.0000
  H   H2113     1.0  0.61262  0.48513  0.12269  1.0000
  S   S709      1.0  0.53179  0.55229  0.29030  1.0000
  H   H2114     1.0  0.56606  0.88676  0.99313  1.0000
  Fe  Fe352     1.0  0.72105  0.87122  0.12532  1.0000
  C   C2093     1.0  0.53182  0.90903  0.22903  1.0000
  Fe  Fe353     1.0  0.69483  0.89175  0.09952  1.0000
  H   H2115     1.0  0.50422  0.92779  0.08147  1.0000
  C   C2094     1.0  0.63008  0.49968  0.16572  1.0000
  H   H2116     1.0  0.48682  0.95936  0.07352  1.0000
  S   S710      1.0  0.66752  0.50880  0.11971  1.0000
  C   C2095     1.0  0.70576  0.75893  0.27071  1.0000
  C   C2096     1.0  0.66235  0.84305  0.21831  1.0000
  C   C2097     1.0  0.71346  0.92459  0.16517  1.0000
  N   N178      1.0  0.73315  0.70913  0.10185  1.0000
  H   H2117     1.0  0.71070  0.81903  0.05112  1.0000
  H   H2118     1.0  0.54634  0.50478  0.23448  1.0000
  C   C2098     1.0  0.49616  0.95274  0.06276  1.0000
  S   S711      1.0  0.70938  0.86233  0.10564  1.0000
  S   S712      1.0  0.70538  0.68177  0.29424  1.0000
  H   H2119     1.0  0.66888  0.80007  0.24321  1.0000
  C   C2099     1.0  0.71803  0.85221  0.18949  1.0000
  C   C2100     1.0  0.64421  0.84970  0.22674  1.0000
  C   C2101     1.0  0.66186  0.81390  0.23819  1.0000
  C   C2102     1.0  0.50519  0.97100  0.09899  1.0000
  S   S713      1.0  0.72108  0.48768  0.12233  1.0000
  H   H2120     1.0  0.57924  0.92474  0.29757  1.0000
  S   S714      1.0  0.55672  0.49275  0.17254  1.0000
  H   H2121     1.0  0.69334  0.82521  0.20082  1.0000
  H   H2122     1.0  0.71765  0.60717  0.24138  1.0000
  C   C2103     1.0  0.71851  0.91099  0.17992  1.0000
  H   H2123     1.0  0.60029  0.52472  0.16900  1.0000
  C   C2104     1.0  0.73150  0.56618  0.13615  1.0000
  C   C2105     1.0  0.66613  0.47474  0.11517  1.0000
  H   H2124     1.0  0.70808  0.70821  0.09520  1.0000
  H   H2125     1.0  0.72537  0.63265  0.21804  1.0000
  H   H2126     1.0  0.70953  0.48397  0.02197  1.0000
  H   H2127     1.0  0.70286  0.64753  0.22085  1.0000
  H   H2128     1.0  0.72409  0.54689  0.12430  1.0000
  H   H2129     1.0  0.70032  0.61355  0.29765  1.0000
  N   N179      1.0  0.61268  0.49650  0.16802  1.0000
  H   H2130     1.0  0.71016  0.59342  0.27450  1.0000
  S   S715      1.0  0.56448  0.87589  0.27936  1.0000
  C   C2106     1.0  0.51141  0.94205  0.23792  1.0000
  N   N180      1.0  0.66507  0.50400  0.05712  1.0000
  C   C2107     1.0  0.66388  0.50857  0.03895  1.0000
  C   C2108     1.0  0.66916  0.51613  0.06517  1.0000
  C   C2109     1.0  0.66679  0.52570  0.02840  1.0000
  C   C2110     1.0  0.67260  0.53320  0.05490  1.0000
  H   H2131     1.0  0.73013  0.79907  0.09729  1.0000
  C   C2111     1.0  0.48770  0.90493  0.25768  1.0000
  H   H2132     1.0  0.59638  0.47707  0.16961  1.0000
  C   C2112     1.0  0.52147  0.92964  0.25034  1.0000
  C   C2113     1.0  0.54914  0.55605  0.29960  1.0000
  H   H2133     1.0  0.71127  0.91186  0.19391  1.0000
  H   H2134     1.0  0.72030  0.49581  0.04382  1.0000
  Fe  Fe354     1.0  0.73312  0.87160  0.08437  1.0000
  H   H2135     1.0  0.65247  0.96141  0.02788  1.0000
  H   H2136     1.0  0.59370  0.90535  0.28806  1.0000
  H   H2137     1.0  0.62400  0.96166  0.05175  1.0000
  H   H2138     1.0  0.65972  0.47710  0.05993  1.0000
  N   N181      1.0  0.51139  0.93793  0.22155  1.0000
  C   C2114     1.0  0.63060  0.97344  0.04791  1.0000
  C   C2115     1.0  0.72319  0.70419  0.09033  1.0000
  H   H2139     1.0  0.72698  0.68918  0.09051  1.0000
  S   S716      1.0  0.68924  0.82702  0.29707  1.0000
  Fe  Fe355     1.0  0.52963  0.52296  0.29216  1.0000
  Fe  Fe356     1.0  0.53810  0.87979  0.30060  1.0000
  H   H2140     1.0  0.72338  0.60433  0.09293  1.0000
  H   H2141     1.0  0.51717  0.47541  0.25593  1.0000
  H   H2142     1.0  0.49392  0.48212  0.26740  1.0000
  H   H2143     1.0  0.70718  0.88283  0.29801  1.0000
  H   H2144     1.0  0.67402  0.47881  0.07453  1.0000
  H   H2145     1.0  0.51349  0.96075  0.01671  1.0000
  S   S717      1.0  0.72449  0.53232  0.04392  1.0000
  H   H2146     1.0  0.73263  0.69396  0.00765  1.0000
  C   C2116     1.0  0.73151  0.70709  0.97952  1.0000
  H   H2147     1.0  0.55465  0.47498  0.98183  1.0000
  C   C2117     1.0  0.73258  0.89590  0.17648  1.0000
  C   C2118     1.0  0.73477  0.55002  0.12931  1.0000
  C   C2119     1.0  0.73289  0.76683  0.29730  1.0000
  C   C2120     1.0  0.58190  0.90960  0.29904  1.0000
  C   C2121     1.0  0.73389  0.79868  0.29414  1.0000
  C   C2122     1.0  0.54438  0.47538  0.01069  1.0000
  C   C2123     1.0  0.50260  0.47509  0.25617  1.0000
  Fe  Fe357     1.0  0.50101  0.50015  0.29652  1.0000
  C   C2124     1.0  0.48619  0.90286  0.24047  1.0000
  C   C2125     1.0  0.61829  0.85738  0.30074  1.0000
  C   C2126     1.0  0.66479  0.47952  0.52602  1.0000
  C   C2127     1.0  0.57538  0.56215  0.31643  1.0000
  H   H2148     1.0  0.59488  0.87724  0.36587  1.0000
  N   N182      1.0  0.51955  0.66806  0.30959  1.0000
  S   S718      1.0  0.55338  0.95264  0.45221  1.0000
  C   C2128     1.0  0.51121  0.66676  0.62920  1.0000
  H   H2149     1.0  0.49900  0.88188  0.38986  1.0000
  H   H2150     1.0  0.67221  0.51291  0.51575  1.0000
  H   H2151     1.0  0.69145  0.96300  0.59294  1.0000
  C   C2129     1.0  0.64521  0.65758  0.31587  1.0000
  H   H2152     1.0  0.56262  0.89002  0.36129  1.0000
  Fe  Fe358     1.0  0.51890  0.89624  0.33440  1.0000
  S   S719      1.0  0.53272  0.86762  0.33078  1.0000
  S   S720      1.0  0.52262  0.90297  0.36013  1.0000
  H   H2153     1.0  0.71753  0.75789  0.61936  1.0000
  C   C2130     1.0  0.60334  0.89416  0.31984  1.0000
  Fe  Fe359     1.0  0.71042  0.65813  0.31761  1.0000
  H   H2154     1.0  0.60355  0.75023  0.60372  1.0000
  S   S721      1.0  0.69576  0.63432  0.32769  1.0000
  H   H2155     1.0  0.53956  0.96290  0.33074  1.0000
  H   H2156     1.0  0.73334  0.74268  0.33816  1.0000
  H   H2157     1.0  0.62112  0.64030  0.36673  1.0000
  H   H2158     1.0  0.65089  0.64423  0.37242  1.0000
  C   C2131     1.0  0.48639  0.67354  0.31520  1.0000
  C   C2132     1.0  0.66394  0.65478  0.31653  1.0000
  C   C2133     1.0  0.66390  0.51048  0.52999  1.0000
  H   H2159     1.0  0.72752  0.73636  0.31959  1.0000
  C   C2134     1.0  0.69313  0.74442  0.30171  1.0000
  S   S722      1.0  0.71426  0.62056  0.55960  1.0000
  H   H2160     1.0  0.51607  0.73880  0.50651  1.0000
  S   S723      1.0  0.49107  0.89331  0.33225  1.0000
  H   H2161     1.0  0.49693  0.83903  0.30693  1.0000
  C   C2135     1.0  0.48750  0.83038  0.31544  1.0000
  H   H2162     1.0  0.57836  0.51802  0.36186  1.0000
  H   H2163     1.0  0.72202  0.77819  0.33883  1.0000
  S   S724      1.0  0.50280  0.90322  0.54458  1.0000
  C   C2136     1.0  0.56538  0.52296  0.35722  1.0000
  H   H2164     1.0  0.49372  0.79998  0.49446  1.0000
  H   H2165     1.0  0.56226  0.55023  0.36162  1.0000
  Fe  Fe360     1.0  0.50032  0.91031  0.57208  1.0000
  S   S725      1.0  0.52528  0.90426  0.58533  1.0000
  C   C2137     1.0  0.50834  0.74657  0.51696  1.0000
  C   C2138     1.0  0.51010  0.65730  0.61624  1.0000
  Fe  Fe361     1.0  0.58481  0.59021  0.34071  1.0000
  S   S726      1.0  0.56312  0.59200  0.36629  1.0000
  S   S727      1.0  0.59090  0.56479  0.32871  1.0000
  Fe  Fe362     1.0  0.59527  0.62605  0.34049  1.0000
  S   S728      1.0  0.57435  0.63079  0.36619  1.0000
  Fe  Fe363     1.0  0.53206  0.48602  0.31806  1.0000
  Fe  Fe364     1.0  0.58384  0.60077  0.37673  1.0000
  S   S729      1.0  0.58681  0.58823  0.40595  1.0000
  Fe  Fe365     1.0  0.55552  0.62171  0.35351  1.0000
  S   S730      1.0  0.52551  0.63436  0.35417  1.0000
  S   S731      1.0  0.60644  0.59659  0.35214  1.0000
  S   S732      1.0  0.57555  0.61933  0.32687  1.0000
  Fe  Fe366     1.0  0.55429  0.70826  0.60534  1.0000
  H   H2166     1.0  0.58815  0.53388  0.31578  1.0000
  H   H2167     1.0  0.71044  0.90973  0.30855  1.0000
  H   H2168     1.0  0.58922  0.53336  0.53431  1.0000
  H   H2169     1.0  0.71663  0.78677  0.62895  1.0000
  H   H2170     1.0  0.60520  0.64142  0.59239  1.0000
  C   C2139     1.0  0.55619  0.54120  0.35704  1.0000
  Fe  Fe367     1.0  0.66891  0.59763  0.49196  1.0000
  S   S733      1.0  0.64511  0.62134  0.48899  1.0000
  S   S734      1.0  0.69766  0.60167  0.49022  1.0000
  Fe  Fe368     1.0  0.64592  0.56956  0.49377  1.0000
  S   S735      1.0  0.62012  0.59086  0.49145  1.0000
  S   S736      1.0  0.64869  0.53993  0.49240  1.0000
  Fe  Fe369     1.0  0.63852  0.60740  0.46959  1.0000
  S   S737      1.0  0.63250  0.62292  0.44189  1.0000
  Fe  Fe370     1.0  0.62890  0.60285  0.51110  1.0000
  S   S738      1.0  0.60799  0.61158  0.53548  1.0000
  S   S739      1.0  0.66383  0.58529  0.47051  1.0000
  S   S740      1.0  0.65321  0.57988  0.51548  1.0000
  Fe  Fe371     1.0  0.53380  0.72642  0.57424  1.0000
  S   S741      1.0  0.54299  0.70187  0.56095  1.0000
  C   C2140     1.0  0.48567  0.69235  0.31251  1.0000
  N   N183      1.0  0.54023  0.54777  0.35043  1.0000
  Fe  Fe372     1.0  0.57053  0.70022  0.56730  1.0000
  S   S742      1.0  0.59620  0.69301  0.54631  1.0000
  H   H2171     1.0  0.52291  0.57230  0.33930  1.0000
  S   S743      1.0  0.56201  0.72653  0.57797  1.0000
  C   C2141     1.0  0.50204  0.69890  0.30835  1.0000
  H   H2172     1.0  0.56488  0.49719  0.35083  1.0000
  S   S744      1.0  0.50978  0.51127  0.31673  1.0000
  C   C2142     1.0  0.51938  0.81280  0.53922  1.0000
  N   N184      1.0  0.67126  0.77351  0.62789  1.0000
  H   H2173     1.0  0.49084  0.65946  0.35871  1.0000
  H   H2174     1.0  0.61437  0.68792  0.34538  1.0000
  H   H2175     1.0  0.52713  0.73406  0.53544  1.0000
  N   N185      1.0  0.72803  0.76496  0.31601  1.0000
  C   C2143     1.0  0.60496  0.63430  0.53812  1.0000
  C   C2144     1.0  0.59076  0.64065  0.55198  1.0000
  C   C2145     1.0  0.58760  0.65888  0.55409  1.0000
  C   C2146     1.0  0.59897  0.67070  0.54270  1.0000
  C   C2147     1.0  0.61322  0.66436  0.52887  1.0000
  C   C2148     1.0  0.61617  0.64620  0.52656  1.0000
  H   H2176     1.0  0.58210  0.63150  0.56107  1.0000
  H   H2177     1.0  0.57649  0.66364  0.56471  1.0000
  H   H2178     1.0  0.62206  0.67346  0.52001  1.0000
  H   H2179     1.0  0.62729  0.64143  0.51601  1.0000
  C   C2149     1.0  0.60143  0.85545  0.31283  1.0000
  H   H2180     1.0  0.61602  0.47942  0.55610  1.0000
  C   C2150     1.0  0.57695  0.54497  0.31226  1.0000
  H   H2181     1.0  0.49810  0.84196  0.50622  1.0000
  S   S745      1.0  0.57209  0.97150  0.40099  1.0000
  H   H2182     1.0  0.49940  0.80453  0.37281  1.0000
  C   C2151     1.0  0.49242  0.75964  0.51383  1.0000
  C   C2152     1.0  0.57109  0.89934  0.33206  1.0000
  C   C2153     1.0  0.49908  0.76073  0.37114  1.0000
  H   H2183     1.0  0.51187  0.78215  0.35208  1.0000
  C   C2154     1.0  0.61851  0.61433  0.43232  1.0000
  C   C2155     1.0  0.61837  0.62007  0.41349  1.0000
  C   C2156     1.0  0.60818  0.61254  0.40533  1.0000
  C   C2157     1.0  0.59801  0.59937  0.41604  1.0000
  C   C2158     1.0  0.59781  0.59397  0.43493  1.0000
  C   C2159     1.0  0.60812  0.60135  0.44304  1.0000
  H   H2184     1.0  0.62649  0.63003  0.40519  1.0000
  H   H2185     1.0  0.60844  0.61658  0.39074  1.0000
  H   H2186     1.0  0.58991  0.58381  0.44325  1.0000
  H   H2187     1.0  0.60804  0.59693  0.45754  1.0000
  C   C2160     1.0  0.52015  0.65803  0.35388  1.0000
  C   C2161     1.0  0.50168  0.66717  0.35595  1.0000
  C   C2162     1.0  0.49718  0.68632  0.35403  1.0000
  C   C2163     1.0  0.51113  0.69641  0.35008  1.0000
  C   C2164     1.0  0.52959  0.68722  0.34848  1.0000
  C   C2165     1.0  0.53411  0.66806  0.35033  1.0000
  C   C2166     1.0  0.65402  0.76797  0.62848  1.0000
  H   H2188     1.0  0.64121  0.94227  0.61290  1.0000
  H   H2189     1.0  0.54841  0.66113  0.34856  1.0000
  H   H2190     1.0  0.55974  0.58981  0.31468  1.0000
  C   C2167     1.0  0.61500  0.53689  0.51555  1.0000
  C   C2168     1.0  0.63001  0.52896  0.50338  1.0000
  C   C2169     1.0  0.60040  0.97214  0.44001  1.0000
  S   S746      1.0  0.52541  0.71002  0.60236  1.0000
  H   H2191     1.0  0.61448  0.55031  0.51806  1.0000
  Fe  Fe373     1.0  0.53706  0.68536  0.58950  1.0000
  C   C2170     1.0  0.53512  0.94741  0.61205  1.0000
  C   C2171     1.0  0.54775  0.93080  0.61133  1.0000
  C   C2172     1.0  0.54457  0.91766  0.60315  1.0000
  C   C2173     1.0  0.52873  0.92100  0.59569  1.0000
  C   C2174     1.0  0.51599  0.93750  0.59668  1.0000
  C   C2175     1.0  0.51919  0.95065  0.60482  1.0000
  H   H2192     1.0  0.56007  0.92817  0.61688  1.0000
  H   H2193     1.0  0.55454  0.90500  0.60236  1.0000
  H   H2194     1.0  0.50370  0.94017  0.59112  1.0000
  H   H2195     1.0  0.54058  0.57589  0.34867  1.0000
  C   C2176     1.0  0.70992  0.61524  0.54023  1.0000
  H   H2196     1.0  0.62108  0.87969  0.33894  1.0000
  C   C2177     1.0  0.71956  0.61008  0.50896  1.0000
  C   C2178     1.0  0.70208  0.60686  0.50962  1.0000
  C   C2179     1.0  0.68852  0.60777  0.52565  1.0000
  C   C2180     1.0  0.69251  0.61181  0.54096  1.0000
  C   C2181     1.0  0.72099  0.89736  0.30948  1.0000
  H   H2197     1.0  0.67507  0.60515  0.52627  1.0000
  H   H2198     1.0  0.68219  0.61214  0.55350  1.0000
  H   H2199     1.0  0.54045  0.69496  0.34542  1.0000
  S   S747      1.0  0.51307  0.75209  0.56664  1.0000
  H   H2200     1.0  0.49704  0.63771  0.61104  1.0000
  S   S748      1.0  0.53858  0.96416  0.62230  1.0000
  C   C2182     1.0  0.63808  0.49451  0.54425  1.0000
  C   C2183     1.0  0.54153  0.51811  0.34453  1.0000
  C   C2184     1.0  0.67252  0.63817  0.32608  1.0000
  C   C2185     1.0  0.66241  0.62434  0.33478  1.0000
  C   C2186     1.0  0.64366  0.62721  0.33427  1.0000
  C   C2187     1.0  0.63498  0.64388  0.32490  1.0000
  H   H2201     1.0  0.62584  0.96845  0.59192  1.0000
  H   H2202     1.0  0.50448  0.75113  0.36189  1.0000
  H   H2203     1.0  0.66903  0.61144  0.34214  1.0000
  H   H2204     1.0  0.63591  0.61658  0.34125  1.0000
  C   C2188     1.0  0.59227  0.88396  0.35229  1.0000
  H   H2205     1.0  0.53160  0.69167  0.30405  1.0000
  C   C2189     1.0  0.55776  0.86403  0.61666  1.0000
  C   C2190     1.0  0.59435  0.74534  0.61625  1.0000
  H   H2206     1.0  0.59750  0.95810  0.44578  1.0000
  H   H2207     1.0  0.64216  0.50540  0.49082  1.0000
  H   H2208     1.0  0.48965  0.72900  0.38317  1.0000
  C   C2191     1.0  0.73438  0.67421  0.63258  1.0000
  C   C2192     1.0  0.63288  0.97274  0.43826  1.0000
  C   C2193     1.0  0.58281  0.81503  0.62095  1.0000
  C   C2194     1.0  0.53285  0.95013  0.46841  1.0000
  C   C2195     1.0  0.53371  0.93903  0.48584  1.0000
  C   C2196     1.0  0.51758  0.93804  0.49947  1.0000
  H   H2209     1.0  0.63946  0.70561  0.33255  1.0000
  H   H2210     1.0  0.67001  0.96870  0.40303  1.0000
  C   C2197     1.0  0.64198  0.69222  0.34144  1.0000
  H   H2211     1.0  0.54692  0.93151  0.48895  1.0000
  H   H2212     1.0  0.53620  0.64105  0.31416  1.0000
  H   H2213     1.0  0.56092  0.47830  0.57823  1.0000
  C   C2198     1.0  0.56379  0.54188  0.30403  1.0000
  C   C2199     1.0  0.50487  0.75416  0.54667  1.0000
  S   S749      1.0  0.50595  0.72052  0.34603  1.0000
  C   C2200     1.0  0.62787  0.68217  0.34879  1.0000
  H   H2214     1.0  0.61700  0.48865  0.50690  1.0000
  C   C2201     1.0  0.53993  0.95615  0.35968  1.0000
  C   C2202     1.0  0.53703  0.94317  0.37597  1.0000
  C   C2203     1.0  0.53164  0.92695  0.37591  1.0000
  C   C2204     1.0  0.52901  0.92367  0.35962  1.0000
  C   C2205     1.0  0.53188  0.93667  0.34332  1.0000
  C   C2206     1.0  0.53739  0.95284  0.34336  1.0000
  H   H2215     1.0  0.53898  0.94561  0.38860  1.0000
  H   H2216     1.0  0.52946  0.91693  0.38856  1.0000
  H   H2217     1.0  0.52975  0.93433  0.33074  1.0000
  C   C2207     1.0  0.52149  0.79645  0.53336  1.0000
  C   C2208     1.0  0.64041  0.96682  0.59177  1.0000
  H   H2218     1.0  0.48683  0.82437  0.49077  1.0000
  H   H2219     1.0  0.51017  0.96923  0.51867  1.0000
  H   H2220     1.0  0.73006  0.60911  0.49663  1.0000
  Fe  Fe374     1.0  0.50526  0.86534  0.32692  1.0000
  C   C2209     1.0  0.62625  0.62625  0.57413  1.0000
  H   H2221     1.0  0.65575  0.75958  0.61803  1.0000
  H   H2222     1.0  0.50972  0.81406  0.48000  1.0000
  S   S750      1.0  0.56530  0.68186  0.59506  1.0000
  H   H2223     1.0  0.67635  0.66129  0.35955  1.0000
  H   H2224     1.0  0.53120  0.49460  0.59437  1.0000
  H   H2225     1.0  0.57004  0.86980  0.61574  1.0000
  H   H2226     1.0  0.67843  0.47954  0.51739  1.0000
  S   S751      1.0  0.52653  0.90878  0.30446  1.0000
  H   H2227     1.0  0.60113  0.85011  0.32734  1.0000
  C   C2210     1.0  0.72248  0.97381  0.39772  1.0000
  H   H2228     1.0  0.63036  0.50653  0.54978  1.0000
  H   H2229     1.0  0.51845  0.92998  0.51306  1.0000
  C   C2211     1.0  0.61615  0.65495  0.36782  1.0000
  C   C2212     1.0  0.57126  0.72691  0.63234  1.0000
  C   C2213     1.0  0.64157  0.62715  0.55974  1.0000
  C   C2214     1.0  0.64558  0.67621  0.55262  1.0000
  C   C2215     1.0  0.61627  0.50210  0.50928  1.0000
  C   C2216     1.0  0.58309  0.73341  0.61615  1.0000
  S   S752      1.0  0.58400  0.49749  0.53429  1.0000
  C   C2217     1.0  0.67062  0.78926  0.63356  1.0000
  H   H2230     1.0  0.51660  0.78401  0.51331  1.0000
  C   C2218     1.0  0.64902  0.95218  0.60362  1.0000
  H   H2231     1.0  0.66062  0.67395  0.54662  1.0000
  H   H2232     1.0  0.67161  0.66555  0.30983  1.0000
  C   C2219     1.0  0.49634  0.79081  0.37716  1.0000
  C   C2220     1.0  0.57904  0.83425  0.61662  1.0000
  S   S753      1.0  0.71209  0.67538  0.33652  1.0000
  S   S754      1.0  0.61119  0.64845  0.32527  1.0000
  N   N186      1.0  0.61958  0.97116  0.42994  1.0000
  C   C2221     1.0  0.51111  0.82928  0.52927  1.0000
  C   C2222     1.0  0.53280  0.53646  0.34432  1.0000
  C   C2223     1.0  0.62990  0.47919  0.54796  1.0000
  C   C2224     1.0  0.64824  0.65778  0.36385  1.0000
  H   H2233     1.0  0.55350  0.86827  0.60312  1.0000
  N   N187      1.0  0.63939  0.65876  0.56053  1.0000
  H   H2234     1.0  0.65976  0.64427  0.54164  1.0000
  S   S755      1.0  0.59347  0.95252  0.61920  1.0000
  C   C2225     1.0  0.53750  0.65543  0.30745  1.0000
  H   H2235     1.0  0.67056  0.69240  0.33970  1.0000
  S   S756      1.0  0.49101  0.84273  0.34504  1.0000
  C   C2226     1.0  0.68486  0.76178  0.30581  1.0000
  H   H2236     1.0  0.48542  0.69432  0.57957  1.0000
  H   H2237     1.0  0.50932  0.96343  0.60541  1.0000
  H   H2238     1.0  0.67670  0.76292  0.31938  1.0000
  C   C2227     1.0  0.72602  0.77961  0.32401  1.0000
  C   C2228     1.0  0.73272  0.86614  0.30457  1.0000
  C   C2229     1.0  0.62419  0.65806  0.57449  1.0000
  C   C2230     1.0  0.68786  0.76233  0.62280  1.0000
  C   C2231     1.0  0.55793  0.51136  0.35094  1.0000
  H   H2239     1.0  0.50400  0.64686  0.31617  1.0000
  H   H2240     1.0  0.64293  0.78011  0.62558  1.0000
  H   H2241     1.0  0.48645  0.96636  0.47497  1.0000
  N   N188      1.0  0.64145  0.56775  0.42876  1.0000
  C   C2232     1.0  0.63293  0.56435  0.41658  1.0000
  C   C2233     1.0  0.63771  0.55968  0.44697  1.0000
  C   C2234     1.0  0.61984  0.55306  0.42266  1.0000
  C   C2235     1.0  0.62465  0.54838  0.45352  1.0000
  C   C2236     1.0  0.61561  0.54513  0.44128  1.0000
  C   C2237     1.0  0.65516  0.57959  0.42219  1.0000
  H   H2242     1.0  0.63565  0.57091  0.40218  1.0000
  H   H2243     1.0  0.64459  0.56220  0.45660  1.0000
  H   H2244     1.0  0.61249  0.55112  0.41308  1.0000
  H   H2245     1.0  0.62143  0.54236  0.46804  1.0000
  H   H2246     1.0  0.60517  0.53671  0.44624  1.0000
  H   H2247     1.0  0.65499  0.58722  0.43283  1.0000
  H   H2248     1.0  0.66917  0.57121  0.41870  1.0000
  H   H2249     1.0  0.65204  0.59018  0.40994  1.0000
  C   C2238     1.0  0.72600  0.96161  0.38580  1.0000
  H   H2250     1.0  0.60452  0.66021  0.36040  1.0000
  H   H2251     1.0  0.70975  0.74874  0.33462  1.0000
  H   H2252     1.0  0.50880  0.47776  0.57265  1.0000
  S   S757      1.0  0.52268  0.66190  0.59364  1.0000
  H   H2253     1.0  0.63853  0.67051  0.30861  1.0000
  C   C2239     1.0  0.53061  0.56681  0.35068  1.0000
  C   C2240     1.0  0.56871  0.80576  0.63093  1.0000
  C   C2241     1.0  0.51490  0.79678  0.51778  1.0000
  C   C2242     1.0  0.67721  0.96394  0.59224  1.0000
  C   C2243     1.0  0.72455  0.74734  0.32766  1.0000
  H   H2254     1.0  0.59010  0.84137  0.60897  1.0000
  H   H2255     1.0  0.71511  0.95526  0.38504  1.0000
  C   C2244     1.0  0.50054  0.94811  0.49566  1.0000
  N   N189      1.0  0.65526  0.49457  0.53329  1.0000
  H   H2256     1.0  0.67294  0.50828  0.53995  1.0000
  H   H2257     1.0  0.61678  0.67032  0.57976  1.0000
  H   H2258     1.0  0.50938  0.84210  0.53372  1.0000
  C   C2245     1.0  0.66753  0.95075  0.60393  1.0000
  H   H2259     1.0  0.56501  0.52851  0.30115  1.0000
  C   C2246     1.0  0.57420  0.89102  0.34972  1.0000
  C   C2247     1.0  0.49879  0.81286  0.49264  1.0000
  C   C2248     1.0  0.49962  0.95866  0.47802  1.0000
  C   C2249     1.0  0.50338  0.77825  0.36552  1.0000
  C   C2250     1.0  0.72900  0.79666  0.31321  1.0000
  C   C2251     1.0  0.64230  0.96730  0.40238  1.0000
  H   H2260     1.0  0.64808  0.61532  0.55343  1.0000
  C   C2252     1.0  0.66268  0.66742  0.35668  1.0000
  H   H2261     1.0  0.65336  0.52329  0.53122  1.0000
  C   C2253     1.0  0.54795  0.57345  0.30314  1.0000
  N   N190      1.0  0.50608  0.81289  0.50859  1.0000
  N   N191      1.0  0.58556  0.90063  0.31737  1.0000
  C   C2254     1.0  0.50466  0.82909  0.51378  1.0000
  C   C2255     1.0  0.64802  0.64361  0.55306  1.0000
  C   C2256     1.0  0.60696  0.88550  0.33727  1.0000
  H   H2262     1.0  0.54704  0.65908  0.31418  1.0000
  H   H2263     1.0  0.64306  0.68456  0.56329  1.0000
  H   H2264     1.0  0.53577  0.50920  0.33951  1.0000
  C   C2257     1.0  0.61751  0.64177  0.58162  1.0000
  H   H2265     1.0  0.52413  0.81270  0.55146  1.0000
  C   C2258     1.0  0.51896  0.68650  0.30689  1.0000
  H   H2266     1.0  0.52029  0.54167  0.33883  1.0000
  H   H2267     1.0  0.54648  0.87030  0.62691  1.0000
  C   C2259     1.0  0.51456  0.74380  0.53337  1.0000
  N   N192      1.0  0.63114  0.66516  0.35979  1.0000
  C   C2260     1.0  0.56096  0.57648  0.31166  1.0000
  C   C2261     1.0  0.65948  0.68477  0.34544  1.0000
  C   C2262     1.0  0.54776  0.83494  0.63188  1.0000
  C   C2263     1.0  0.60072  0.52729  0.52473  1.0000
  H   H2268     1.0  0.61084  0.65589  0.38249  1.0000
  H   H2269     1.0  0.55699  0.90464  0.33017  1.0000
  H   H2270     1.0  0.61487  0.89499  0.30822  1.0000
  H   H2271     1.0  0.62081  0.61371  0.57902  1.0000
  C   C2264     1.0  0.53650  0.48029  0.59976  1.0000
  H   H2272     1.0  0.57197  0.85944  0.31582  1.0000
  H   H2273     1.0  0.72920  0.91594  0.42250  1.0000
  C   C2265     1.0  0.60136  0.50982  0.52168  1.0000
  C   C2266     1.0  0.63057  0.51160  0.50022  1.0000
  H   H2274     1.0  0.63782  0.68421  0.54174  1.0000
  N   N193      1.0  0.56676  0.64751  0.52094  1.0000
  C   C2267     1.0  0.55633  0.66148  0.52946  1.0000
  C   C2268     1.0  0.56453  0.62980  0.52818  1.0000
  C   C2269     1.0  0.54373  0.65777  0.54601  1.0000
  C   C2270     1.0  0.55217  0.62561  0.54478  1.0000
  C   C2271     1.0  0.54179  0.63971  0.55379  1.0000
  C   C2272     1.0  0.58010  0.65160  0.50375  1.0000
  H   H2275     1.0  0.55810  0.67553  0.52380  1.0000
  H   H2276     1.0  0.57289  0.61871  0.52149  1.0000
  H   H2277     1.0  0.53577  0.66874  0.55304  1.0000
  H   H2278     1.0  0.55097  0.61147  0.55081  1.0000
  H   H2279     1.0  0.53242  0.63668  0.56690  1.0000
  H   H2280     1.0  0.59181  0.63973  0.50215  1.0000
  H   H2281     1.0  0.57324  0.65487  0.49183  1.0000
  H   H2282     1.0  0.58627  0.66334  0.50363  1.0000
  C   C2273     1.0  0.51574  0.95974  0.46445  1.0000
  C   C2274     1.0  0.70442  0.76709  0.62281  1.0000
  H   H2283     1.0  0.50165  0.71344  0.30682  1.0000
  H   H2284     1.0  0.52794  0.78352  0.54097  1.0000
  C   C2275     1.0  0.50356  0.66150  0.31365  1.0000
  Fe  Fe375     1.0  0.70964  0.69869  0.31234  1.0000
  C   C2276     1.0  0.58488  0.86080  0.30634  1.0000
  H   H2285     1.0  0.58376  0.72903  0.60362  1.0000
  S   S758      1.0  0.63840  0.85272  0.30973  1.0000
  S   S759      1.0  0.69071  0.72475  0.31893  1.0000
  H   H2286     1.0  0.52086  0.56762  0.36403  1.0000
  C   C2277     1.0  0.72347  0.61437  0.52420  1.0000
  N   N194      1.0  0.56169  0.84394  0.62211  1.0000
  Fe  Fe376     1.0  0.49992  0.90300  0.30182  1.0000
  C   C2278     1.0  0.65122  0.97177  0.42874  1.0000
  C   C2279     1.0  0.71913  0.88216  0.30346  1.0000
  C   C2280     1.0  0.49784  0.64516  0.62099  1.0000
  H   H2287     1.0  0.68839  0.74940  0.61915  1.0000
  H   H2288     1.0  0.67419  0.93977  0.61354  1.0000
  H   H2289     1.0  0.66172  0.97345  0.43514  1.0000
  H   H2290     1.0  0.72732  0.80837  0.31950  1.0000
  C   C2281     1.0  0.70390  0.78327  0.62829  1.0000
  H   H2291     1.0  0.64572  0.96554  0.38824  1.0000
  H   H2292     1.0  0.51494  0.96824  0.45103  1.0000
  H   H2293     1.0  0.61355  0.96720  0.40566  1.0000
  C   C2282     1.0  0.59376  0.75090  0.63251  1.0000
  H   H2294     1.0  0.52099  0.67571  0.62585  1.0000
  S   S760      1.0  0.60795  0.76589  0.63226  1.0000
  C   C2283     1.0  0.62413  0.96822  0.41233  1.0000
  H   H2295     1.0  0.51314  0.47775  0.62209  1.0000
  H   H2296     1.0  0.48824  0.88063  0.42354  1.0000
  C   C2284     1.0  0.48839  0.87417  0.39768  1.0000
  H   H2297     1.0  0.48876  0.72588  0.57850  1.0000
  H   H2298     1.0  0.72056  0.68097  0.63061  1.0000
  N   N195      1.0  0.48769  0.75601  0.38773  1.0000
  H   H2299     1.0  0.53148  0.97033  0.50268  1.0000
  C   C2285     1.0  0.65590  0.96912  0.41066  1.0000
  S   S761      1.0  0.55721  0.71171  0.63271  1.0000
  H   H2300     1.0  0.49456  0.74286  0.60728  1.0000
  H   H2301     1.0  0.59659  0.80729  0.61676  1.0000
  S   S762      1.0  0.48593  0.76386  0.49252  1.0000
  H   H2302     1.0  0.48558  0.86532  0.37423  1.0000
  C   C2286     1.0  0.48881  0.76704  0.54369  1.0000
  C   C2287     1.0  0.68691  0.79444  0.63373  1.0000
  C   C2288     1.0  0.62152  0.53751  0.91385  1.0000
  H   H2303     1.0  0.50219  0.84411  0.91383  1.0000
  Fe  Fe377     1.0  0.51392  0.90720  0.91288  1.0000
  S   S763      1.0  0.50504  0.89665  0.94325  1.0000
  S   S764      1.0  0.50164  0.93576  0.89952  1.0000
  Fe  Fe378     1.0  0.53947  0.87131  0.90643  1.0000
  S   S765      1.0  0.53320  0.85786  0.93609  1.0000
  S   S766      1.0  0.55829  0.85807  0.88348  1.0000
  S   S767      1.0  0.52743  0.48750  0.89859  1.0000
  Fe  Fe379     1.0  0.53514  0.88447  0.94212  1.0000
  C   C2289     1.0  0.51334  0.93518  0.83505  1.0000
  S   S768      1.0  0.50983  0.88270  0.90452  1.0000
  S   S769      1.0  0.54416  0.89690  0.91234  1.0000
  Fe  Fe380     1.0  0.54268  0.49165  0.91834  1.0000
  H   H2304     1.0  0.69679  0.64196  0.94316  1.0000
  C   C2290     1.0  0.50994  0.58826  0.89301  1.0000
  Fe  Fe381     1.0  0.52773  0.51720  0.88585  1.0000
  S   S770      1.0  0.55464  0.51171  0.86621  1.0000
  C   C2291     1.0  0.69755  0.62928  0.93907  1.0000
  S   S771      1.0  0.51905  0.61431  0.83186  1.0000
  H   H2305     1.0  0.63693  0.47786  0.93448  1.0000
  Fe  Fe382     1.0  0.56734  0.51422  0.88862  1.0000
  S   S772      1.0  0.58860  0.53201  0.88231  1.0000
  C   C2292     1.0  0.58376  0.88835  0.64597  1.0000
  S   S773      1.0  0.54027  0.52187  0.90723  1.0000
  C   C2293     1.0  0.49595  0.59007  0.85029  1.0000
  H   H2306     1.0  0.57138  0.91797  0.91527  1.0000
  C   C2294     1.0  0.49527  0.48209  0.84685  1.0000
  Fe  Fe383     1.0  0.67225  0.56145  0.94764  1.0000
  Fe  Fe384     1.0  0.55558  0.48225  0.88044  1.0000
  C   C2295     1.0  0.62611  0.78562  0.73437  1.0000
  N   N196      1.0  0.66653  0.63990  0.91071  1.0000
  H   H2307     1.0  0.53583  0.92814  0.70383  1.0000
  H   H2308     1.0  0.49512  0.58961  0.89786  1.0000
  C   C2296     1.0  0.67380  0.66895  0.90965  1.0000
  S   S774      1.0  0.56787  0.93326  0.65724  1.0000
  N   N197      1.0  0.62750  0.76702  0.73985  1.0000
  H   H2309     1.0  0.53761  0.79557  0.86197  1.0000
  Fe  Fe385     1.0  0.57454  0.95230  0.67142  1.0000
  S   S775      1.0  0.56350  0.94979  0.70197  1.0000
  S   S776      1.0  0.60488  0.94606  0.65961  1.0000
  Fe  Fe386     1.0  0.57404  0.76077  0.86408  1.0000
  S   S777      1.0  0.58825  0.73114  0.86769  1.0000
  H   H2310     1.0  0.55599  0.93884  0.84908  1.0000
  Fe  Fe387     1.0  0.57979  0.76512  0.82280  1.0000
  S   S778      1.0  0.59503  0.73612  0.82282  1.0000
  S   S779      1.0  0.57520  0.78636  0.79738  1.0000
  Fe  Fe388     1.0  0.57267  0.72917  0.84720  1.0000
  Fe  Fe389     1.0  0.60927  0.74056  0.84321  1.0000
  S   S780      1.0  0.64017  0.73198  0.84048  1.0000
  S   S781      1.0  0.55631  0.75801  0.84588  1.0000
  S   S782      1.0  0.59613  0.77037  0.84088  1.0000
  Fe  Fe390     1.0  0.62404  0.78896  0.67986  1.0000
  S   S783      1.0  0.61316  0.80205  0.65417  1.0000
  S   S784      1.0  0.65161  0.79164  0.68333  1.0000
  Fe  Fe391     1.0  0.58945  0.77446  0.69967  1.0000
  S   S785      1.0  0.57530  0.78585  0.67559  1.0000
  S   S786      1.0  0.57900  0.75640  0.72650  1.0000
  Fe  Fe392     1.0  0.60284  0.77611  0.65847  1.0000
  S   S787      1.0  0.50058  0.65877  0.80068  1.0000
  Fe  Fe393     1.0  0.58655  0.81102  0.67291  1.0000
  S   S788      1.0  0.56906  0.83888  0.66523  1.0000
  S   S789      1.0  0.61599  0.76211  0.68267  1.0000
  S   S790      1.0  0.59839  0.80056  0.69841  1.0000
  C   C2297     1.0  0.61956  0.76995  0.77151  1.0000
  C   C2298     1.0  0.49329  0.96274  0.82297  1.0000
  C   C2299     1.0  0.64835  0.49608  0.91030  1.0000
  C   C2300     1.0  0.67683  0.65314  0.90248  1.0000
  H   H2311     1.0  0.66155  0.62717  0.89134  1.0000
  N   N198      1.0  0.51863  0.80746  0.88348  1.0000
  H   H2312     1.0  0.64925  0.75980  0.64227  1.0000
  H   H2313     1.0  0.65785  0.68332  0.93111  1.0000
  C   C2301     1.0  0.50664  0.83390  0.90524  1.0000
  H   H2314     1.0  0.56896  0.94386  0.93012  1.0000
  H   H2315     1.0  0.56167  0.72737  0.66119  1.0000
  H   H2316     1.0  0.58143  0.74862  0.66132  1.0000
  C   C2302     1.0  0.57503  0.77799  0.77807  1.0000
  C   C2303     1.0  0.57704  0.75919  0.77896  1.0000
  C   C2304     1.0  0.57815  0.75268  0.76307  1.0000
  C   C2305     1.0  0.57720  0.76495  0.74625  1.0000
  C   C2306     1.0  0.57491  0.78376  0.74544  1.0000
  C   C2307     1.0  0.57383  0.79027  0.76131  1.0000
  H   H2317     1.0  0.57791  0.74971  0.79183  1.0000
  H   H2318     1.0  0.58000  0.73811  0.76370  1.0000
  H   H2319     1.0  0.57357  0.79337  0.73268  1.0000
  H   H2320     1.0  0.57216  0.80484  0.76057  1.0000
  H   H2321     1.0  0.60248  0.88195  0.95354  1.0000
  H   H2322     1.0  0.63431  0.50798  0.87002  1.0000
  C   C2308     1.0  0.60087  0.85222  0.65858  1.0000
  C   C2309     1.0  0.58206  0.85626  0.65816  1.0000
  C   C2310     1.0  0.57353  0.87433  0.65181  1.0000
  H   H2323     1.0  0.66388  0.52371  0.89204  1.0000
  H   H2324     1.0  0.62857  0.79190  0.71987  1.0000
  C   C2311     1.0  0.66328  0.96818  0.64270  1.0000
  H   H2325     1.0  0.51624  0.56056  0.90814  1.0000
  H   H2326     1.0  0.62561  0.86312  0.65323  1.0000
  C   C2312     1.0  0.70054  0.74675  0.66701  1.0000
  C   C2313     1.0  0.70335  0.76197  0.67211  1.0000
  C   C2314     1.0  0.68819  0.77540  0.67779  1.0000
  C   C2315     1.0  0.67022  0.77370  0.67823  1.0000
  C   C2316     1.0  0.66744  0.75821  0.67365  1.0000
  H   H2327     1.0  0.57800  0.87536  0.93226  1.0000
  H   H2328     1.0  0.52057  0.95243  0.80855  1.0000
  H   H2329     1.0  0.69043  0.78737  0.68133  1.0000
  H   H2330     1.0  0.65373  0.75669  0.67401  1.0000
  C   C2317     1.0  0.66017  0.67116  0.92534  1.0000
  C   C2318     1.0  0.60253  0.88438  0.64661  1.0000
  N   N199      1.0  0.49337  0.64102  0.71877  1.0000
  C   C2319     1.0  0.70149  0.50067  0.89602  1.0000
  C   C2320     1.0  0.71433  0.51208  0.88822  1.0000
  H   H2331     1.0  0.54285  0.57964  0.84039  1.0000
  H   H2332     1.0  0.53683  0.54953  0.85881  1.0000
  H   H2333     1.0  0.69068  0.50378  0.90752  1.0000
  C   C2321     1.0  0.66247  0.71901  0.89325  1.0000
  C   C2322     1.0  0.67468  0.71867  0.87630  1.0000
  C   C2323     1.0  0.66774  0.72200  0.86018  1.0000
  C   C2324     1.0  0.64863  0.72562  0.86099  1.0000
  C   C2325     1.0  0.63655  0.72513  0.87806  1.0000
  C   C2326     1.0  0.64345  0.72181  0.89414  1.0000
  H   H2334     1.0  0.68937  0.71668  0.87549  1.0000
  H   H2335     1.0  0.67716  0.72235  0.84699  1.0000
  H   H2336     1.0  0.62185  0.72784  0.87887  1.0000
  H   H2337     1.0  0.63396  0.72201  0.90724  1.0000
  C   C2327     1.0  0.62408  0.75916  0.75815  1.0000
  C   C2328     1.0  0.53518  0.96355  0.84621  1.0000
  C   C2329     1.0  0.53249  0.72139  0.83381  1.0000
  S   S791      1.0  0.56350  0.77312  0.88955  1.0000
  C   C2330     1.0  0.61111  0.86625  0.65271  1.0000
  Fe  Fe394     1.0  0.69271  0.53417  0.92358  1.0000
  H   H2338     1.0  0.72335  0.60274  0.90861  1.0000
  H   H2339     1.0  0.61350  0.48657  0.88678  1.0000
  C   C2331     1.0  0.52901  0.91014  0.67044  1.0000
  Fe  Fe395     1.0  0.49498  0.63732  0.82624  1.0000
  C   C2332     1.0  0.51003  0.80286  0.90147  1.0000
  C   C2333     1.0  0.59816  0.53073  0.90131  1.0000
  C   C2334     1.0  0.61251  0.53998  0.89924  1.0000
  S   S792      1.0  0.55107  0.88266  0.96402  1.0000
  C   C2335     1.0  0.59229  0.51967  0.91822  1.0000
  H   H2340     1.0  0.61698  0.54866  0.88620  1.0000
  H   H2341     1.0  0.63289  0.54428  0.91208  1.0000
  H   H2342     1.0  0.58115  0.51259  0.91997  1.0000
  C   C2336     1.0  0.48746  0.61037  0.72897  1.0000
  C   C2337     1.0  0.49254  0.57284  0.86046  1.0000
  C   C2338     1.0  0.65935  0.51772  0.88250  1.0000
  C   C2339     1.0  0.51410  0.59257  0.84308  1.0000
  S   S793      1.0  0.69993  0.67918  0.93895  1.0000
  H   H2343     1.0  0.53255  0.92082  0.95528  1.0000
  Fe  Fe396     1.0  0.48561  0.67891  0.81878  1.0000
  H   H2344     1.0  0.69984  0.58367  0.92448  1.0000
  C   C2340     1.0  0.62418  0.48032  0.91161  1.0000
  C   C2341     1.0  0.56054  0.83426  0.88554  1.0000
  C   C2342     1.0  0.55435  0.82313  0.90231  1.0000
  C   C2343     1.0  0.55563  0.80432  0.90342  1.0000
  C   C2344     1.0  0.56298  0.79655  0.88775  1.0000
  C   C2345     1.0  0.56933  0.80762  0.87100  1.0000
  C   C2346     1.0  0.56821  0.82641  0.86993  1.0000
  H   H2345     1.0  0.54847  0.82900  0.91442  1.0000
  H   H2346     1.0  0.55068  0.79582  0.91642  1.0000
  H   H2347     1.0  0.57493  0.80180  0.85881  1.0000
  H   H2348     1.0  0.57303  0.83497  0.85691  1.0000
  H   H2349     1.0  0.52653  0.92567  0.83380  1.0000
  H   H2350     1.0  0.68432  0.61920  0.89687  1.0000
  C   C2347     1.0  0.51533  0.83849  0.88688  1.0000
  H   H2351     1.0  0.53717  0.73395  0.83245  1.0000
  H   H2352     1.0  0.68031  0.73296  0.66419  1.0000
  H   H2353     1.0  0.63582  0.96277  0.64888  1.0000
  S   S794      1.0  0.49471  0.70569  0.81530  1.0000
  S   S795      1.0  0.50278  0.53691  0.87714  1.0000
  S   S796      1.0  0.70056  0.54366  0.94550  1.0000
  C   C2348     1.0  0.61800  0.78892  0.76605  1.0000
  C   C2349     1.0  0.49216  0.60924  0.74572  1.0000
  H   H2354     1.0  0.55905  0.87746  0.65133  1.0000
  H   H2355     1.0  0.50289  0.92158  0.86239  1.0000
  C   C2350     1.0  0.50831  0.47513  0.83255  1.0000
  C   C2351     1.0  0.58189  0.74449  0.64869  1.0000
  H   H2356     1.0  0.52158  0.95980  0.70078  1.0000
  C   C2352     1.0  0.52971  0.49161  0.83650  1.0000
  H   H2357     1.0  0.50050  0.62369  0.76209  1.0000
  C   C2353     1.0  0.51540  0.94664  0.87978  1.0000
  C   C2354     1.0  0.53274  0.93751  0.87190  1.0000
  C   C2355     1.0  0.54269  0.94604  0.85524  1.0000
  C   C2356     1.0  0.49289  0.65803  0.70485  1.0000
  C   C2357     1.0  0.54158  0.70478  0.84292  1.0000
  H   H2358     1.0  0.53833  0.92375  0.87837  1.0000
  H   H2359     1.0  0.49097  0.59712  0.75648  1.0000
  H   H2360     1.0  0.61366  0.79747  0.77632  1.0000
  C   C2358     1.0  0.53402  0.91076  0.68655  1.0000
  Fe  Fe397     1.0  0.65417  0.53116  0.94538  1.0000
  H   H2361     1.0  0.66823  0.95628  0.65250  1.0000
  H   H2362     1.0  0.54335  0.49495  0.83304  1.0000
  C   C2359     1.0  0.57074  0.73244  0.64861  1.0000
  C   C2360     1.0  0.53537  0.68856  0.84464  1.0000
  N   N200      1.0  0.52358  0.94353  0.68107  1.0000
  C   C2361     1.0  0.51718  0.60259  0.88048  1.0000
  C   C2362     1.0  0.64973  0.65761  0.93364  1.0000
  H   H2363     1.0  0.67176  0.51069  0.87388  1.0000
  C   C2363     1.0  0.69930  0.59623  0.92876  1.0000
  H   H2364     1.0  0.64016  0.74194  0.73061  1.0000
  C   C2364     1.0  0.56755  0.58130  0.87114  1.0000
  C   C2365     1.0  0.51760  0.72164  0.82600  1.0000
  C   C2366     1.0  0.51180  0.70531  0.82719  1.0000
  S   S797      1.0  0.54726  0.97335  0.82465  1.0000
  H   H2365     1.0  0.53377  0.96762  0.67794  1.0000
  C   C2367     1.0  0.54081  0.57015  0.89171  1.0000
  C   C2368     1.0  0.52567  0.47984  0.82747  1.0000
  H   H2366     1.0  0.59689  0.50836  0.94573  1.0000
  C   C2369     1.0  0.52879  0.57777  0.84594  1.0000
  C   C2370     1.0  0.51872  0.94304  0.66522  1.0000
  H   H2367     1.0  0.55001  0.55735  0.89593  1.0000
  S   S798      1.0  0.66652  0.59045  0.95211  1.0000
  C   C2371     1.0  0.55618  0.96959  0.71164  1.0000
  H   H2368     1.0  0.60750  0.83835  0.66366  1.0000
  H   H2369     1.0  0.50803  0.78892  0.90733  1.0000
  C   C2372     1.0  0.60121  0.51730  0.93280  1.0000
  N   N201      1.0  0.61929  0.76676  0.89696  1.0000
  C   C2373     1.0  0.63629  0.76321  0.90141  1.0000
  C   C2374     1.0  0.61765  0.77098  0.87896  1.0000
  C   C2375     1.0  0.65224  0.76364  0.88761  1.0000
  C   C2376     1.0  0.63333  0.77133  0.86482  1.0000
  C   C2377     1.0  0.65072  0.76755  0.86922  1.0000
  C   C2378     1.0  0.60259  0.76578  0.91137  1.0000
  H   H2370     1.0  0.63776  0.75933  0.91565  1.0000
  H   H2371     1.0  0.60416  0.77366  0.87553  1.0000
  H   H2372     1.0  0.66574  0.76000  0.89123  1.0000
  H   H2373     1.0  0.63208  0.77383  0.85058  1.0000
  H   H2374     1.0  0.66304  0.76704  0.85843  1.0000
  H   H2375     1.0  0.59308  0.77939  0.91035  1.0000
  H   H2376     1.0  0.59528  0.75563  0.90964  1.0000
  H   H2377     1.0  0.60574  0.76155  0.92537  1.0000
  H   H2378     1.0  0.53143  0.89717  0.66612  1.0000
  C   C2379     1.0  0.57694  0.93046  0.93489  1.0000
  S   S799      1.0  0.66540  0.55378  0.92400  1.0000
  C   C2380     1.0  0.51003  0.95024  0.82091  1.0000
  H   H2379     1.0  0.51078  0.73446  0.81869  1.0000
  C   C2381     1.0  0.61608  0.52587  0.93055  1.0000
  H   H2380     1.0  0.68629  0.80665  0.63876  1.0000
  C   C2382     1.0  0.52131  0.92637  0.65968  1.0000
  C   C2383     1.0  0.52180  0.57194  0.89874  1.0000
  C   C2384     1.0  0.63533  0.50100  0.88400  1.0000
  S   S800      1.0  0.72701  0.63809  0.91173  1.0000
  C   C2385     1.0  0.50821  0.96438  0.87107  1.0000
  H   H2381     1.0  0.60256  0.87378  0.92417  1.0000
  H   H2382     1.0  0.71943  0.47473  0.96386  1.0000
  C   C2386     1.0  0.49943  0.66488  0.64650  1.0000
  C   C2387     1.0  0.62352  0.48884  0.89340  1.0000
  C   C2388     1.0  0.62129  0.79685  0.74736  1.0000
  H   H2383     1.0  0.51362  0.79492  0.86392  1.0000
  C   C2389     1.0  0.71253  0.60711  0.91970  1.0000
  H   H2384     1.0  0.73193  0.72371  0.95238  1.0000
  H   H2385     1.0  0.65191  0.52941  0.87356  1.0000
  H   H2386     1.0  0.57216  0.59448  0.86458  1.0000
  H   H2387     1.0  0.68768  0.65140  0.89046  1.0000
  H   H2388     1.0  0.55308  0.95396  0.73940  1.0000
  H   H2389     1.0  0.61843  0.75344  0.72391  1.0000
  H   H2390     1.0  0.54054  0.89828  0.69471  1.0000
  C   C2390     1.0  0.68431  0.61845  0.94808  1.0000
  C   C2391     1.0  0.52054  0.68881  0.83676  1.0000
  H   H2391     1.0  0.54233  0.67570  0.85172  1.0000
  H   H2392     1.0  0.63928  0.65907  0.94601  1.0000
  H   H2393     1.0  0.52823  0.82864  0.86193  1.0000
  H   H2394     1.0  0.66487  0.61198  0.91294  1.0000
  C   C2392     1.0  0.58892  0.88321  0.92440  1.0000
  S   S801      1.0  0.72110  0.68978  0.89533  1.0000
  H   H2395     1.0  0.72627  0.50601  0.95620  1.0000
  C   C2393     1.0  0.68493  0.60211  0.94271  1.0000
  H   H2396     1.0  0.57060  0.57266  0.86064  1.0000
  C   C2394     1.0  0.68255  0.74475  0.66808  1.0000
  C   C2395     1.0  0.52539  0.56068  0.85637  1.0000
  H   H2397     1.0  0.57580  0.57403  0.88184  1.0000
  H   H2398     1.0  0.68203  0.67939  0.90319  1.0000
  S   S802      1.0  0.56159  0.70348  0.85102  1.0000
  H   H2399     1.0  0.58700  0.88797  0.90995  1.0000
  H   H2400     1.0  0.69255  0.47651  0.89480  1.0000
  N   N202      1.0  0.54463  0.71555  0.78679  1.0000
  C   C2396     1.0  0.55909  0.71156  0.79561  1.0000
  C   C2397     1.0  0.53701  0.70178  0.78520  1.0000
  C   C2398     1.0  0.56591  0.69345  0.80362  1.0000
  C   C2399     1.0  0.54351  0.68351  0.79301  1.0000
  C   C2400     1.0  0.55800  0.67937  0.80235  1.0000
  C   C2401     1.0  0.53747  0.73462  0.77866  1.0000
  H   H2401     1.0  0.56493  0.72244  0.79722  1.0000
  H   H2402     1.0  0.52530  0.70495  0.77855  1.0000
  H   H2403     1.0  0.57669  0.69051  0.81148  1.0000
  H   H2404     1.0  0.53692  0.67275  0.79238  1.0000
  H   H2405     1.0  0.56271  0.66535  0.80905  1.0000
  H   H2406     1.0  0.52223  0.73707  0.78006  1.0000
  H   H2407     1.0  0.54017  0.74441  0.78575  1.0000
  H   H2408     1.0  0.54409  0.73774  0.76386  1.0000
  H   H2409     1.0  0.51944  0.50774  0.85745  1.0000
  S   S803      1.0  0.62843  0.52030  0.94836  1.0000
  H   H2410     1.0  0.61982  0.81162  0.74294  1.0000
  H   H2411     1.0  0.50117  0.65188  0.73816  1.0000
  H   H2412     1.0  0.51784  0.92616  0.64685  1.0000
  C   C2402     1.0  0.50726  0.55816  0.86368  1.0000
  C   C2403     1.0  0.72950  0.49248  0.86605  1.0000
  C   C2404     1.0  0.52120  0.82504  0.87611  1.0000
  C   C2405     1.0  0.49756  0.62411  0.74884  1.0000
  Fe  Fe398     1.0  0.50373  0.87107  0.93477  1.0000
  C   C2406     1.0  0.57827  0.91571  0.92662  1.0000
  H   H2413     1.0  0.61646  0.76377  0.78602  1.0000
  H   H2414     1.0  0.63936  0.76197  0.71275  1.0000
  H   H2415     1.0  0.62452  0.74452  0.76251  1.0000
  C   C2407     1.0  0.71149  0.62381  0.92463  1.0000
  H   H2416     1.0  0.54154  0.61110  0.86304  1.0000
  Fe  Fe399     1.0  0.59846  0.96969  0.63669  1.0000
  C   C2408     1.0  0.65301  0.64203  0.92602  1.0000
  C   C2409     1.0  0.63156  0.75552  0.72611  1.0000
  H   H2417     1.0  0.51616  0.67616  0.83773  1.0000
  H   H2418     1.0  0.50803  0.61509  0.87537  1.0000
  C   C2410     1.0  0.52181  0.96130  0.68592  1.0000
  Fe  Fe400     1.0  0.69927  0.70381  0.91589  1.0000
  C   C2411     1.0  0.50394  0.81600  0.91262  1.0000
  S   S804      1.0  0.68101  0.51089  0.94306  1.0000
  H   H2419     1.0  0.50004  0.65501  0.69107  1.0000
  H   H2420     1.0  0.71718  0.76367  0.67123  1.0000
  C   C2412     1.0  0.66942  0.62381  0.90250  1.0000
  H   H2421     1.0  0.50888  0.97078  0.68287  1.0000
  H   H2422     1.0  0.51801  0.85224  0.88116  1.0000
  C   C2413     1.0  0.53126  0.92769  0.69166  1.0000
  S   S805      1.0  0.67020  0.71830  0.91320  1.0000
  C   C2414     1.0  0.51625  0.49854  0.85054  1.0000
  C   C2415     1.0  0.59482  0.91014  0.95639  1.0000
  Fe  Fe401     1.0  0.72286  0.66577  0.91898  1.0000
  H   H2423     1.0  0.64506  0.63137  0.93273  1.0000
  C   C2416     1.0  0.53622  0.60024  0.87355  1.0000
  H   H2424     1.0  0.65757  0.49922  0.91727  1.0000
  H   H2425     1.0  0.52702  0.77955  0.88003  1.0000
  N   N203      1.0  0.54776  0.58418  0.87926  1.0000
  C   C2417     1.0  0.52440  0.79374  0.87177  1.0000
  H   H2426     1.0  0.51326  0.95566  0.65646  1.0000
  C   C2418     1.0  0.49989  0.93294  0.85118  1.0000
  C   C2419     1.0  0.58535  0.92763  0.94982  1.0000
  C   C2420     1.0  0.51798  0.97273  0.85428  1.0000
  H   H2427     1.0  0.49727  0.81239  0.92694  1.0000
  N   N204      1.0  0.64733  0.50469  0.89256  1.0000
  S   S806      1.0  0.71358  0.53111  0.89737  1.0000
  C   C2421     1.0  0.55212  0.96755  0.73082  1.0000
  S   S807      1.0  0.71914  0.71564  0.92462  1.0000
  C   C2422     1.0  0.49793  0.64006  0.73519  1.0000
  S   S808      1.0  0.57102  0.48417  0.90121  1.0000
  S   S809      1.0  0.71916  0.73077  0.65789  1.0000
  C   C2423     1.0  0.71663  0.48111  0.87386  1.0000
  N   N205      1.0  0.49939  0.49356  0.85570  1.0000
  S   S810      1.0  0.53673  0.48431  0.94931  1.0000
  Fe  Fe402     1.0  0.68634  0.52206  0.96517  1.0000
  H   H2428     1.0  0.50002  0.67266  0.65626  1.0000
  Fe  Fe403     1.0  0.72159  0.68987  0.94610  1.0000
  C   C2424     1.0  0.72828  0.50801  0.87316  1.0000
  H   H2429     1.0  0.60396  0.95980  0.69370  1.0000
  C   C2425     1.0  0.53983  0.91928  0.96617  1.0000
  C   C2426     1.0  0.70253  0.48530  0.88875  1.0000
  H   H2430     1.0  0.49488  0.97159  0.87715  1.0000
  H   H2431     1.0  0.57721  0.90216  0.64066  1.0000
  N   N206      1.0  0.58786  0.89865  0.93297  1.0000
  S   S811      1.0  0.61537  0.90191  0.64001  1.0000
  C   C2427     1.0  0.63671  0.48388  0.92013  1.0000
  C   C2428     1.0  0.59575  0.89566  0.94790  1.0000
  H   H2432     1.0  0.65746  0.79764  0.63857  1.0000
  H   H2433     1.0  0.67332  0.62295  0.95899  1.0000
  H   H2434     1.0  0.58391  0.93882  0.95675  1.0000
  Fe  Fe404     1.0  0.59759  0.92941  0.64324  1.0000
  C   C2429     1.0  0.48820  0.62644  0.71555  1.0000
  C   C2430     1.0  0.72671  0.47991  0.95014  1.0000
  H   H2435     1.0  0.49971  0.66786  0.70785  1.0000
  H   H2436     1.0  0.49198  0.49979  0.88244  1.0000
  H   H2437     1.0  0.59667  0.96948  0.72353  1.0000
  C   C2431     1.0  0.48666  0.65335  0.65101  1.0000
  C   C2432     1.0  0.48609  0.64319  0.63840  1.0000
  H   H2438     1.0  0.53616  0.47392  0.81694  1.0000
  C   C2433     1.0  0.73051  0.49753  0.94586  1.0000
  C   C2434     1.0  0.64487  0.97185  0.64066  1.0000
  C   C2435     1.0  0.73482  0.72240  0.96574  1.0000
  H   H2439     1.0  0.53304  0.94814  0.96691  1.0000
  C   C2436     1.0  0.48562  0.50104  0.87051  1.0000
  H   H2440     1.0  0.54015  0.80864  0.64465  1.0000
  Fe  Fe405     1.0  0.56404  0.95763  0.63445  1.0000
  H   H2441     1.0  0.57149  0.79086  0.63446  1.0000
  H   H2442     1.0  0.53405  0.84262  0.63634  1.0000
  C   C2437     1.0  0.55109  0.81574  0.63656  1.0000
  C   C2438     1.0  0.89520  0.38520  0.01341  1.0000
  S   S812      1.0  0.94895  0.42173  0.18988  1.0000
  Fe  Fe406     1.0  0.97213  0.43688  0.13901  1.0000
  H   H2443     1.0  0.93380  0.22813  0.26928  1.0000
  C   C2439     1.0  0.91377  0.08583  0.24581  1.0000
  Fe  Fe407     1.0  0.94591  0.41354  0.16474  1.0000
  S   S813      1.0  0.92912  0.39254  0.16595  1.0000
  C   C2440     1.0  0.92344  0.23810  0.27609  1.0000
  C   C2441     1.0  0.95821  0.46390  0.21928  1.0000
  S   S814      1.0  0.94132  0.44240  0.14864  1.0000
  C   C2442     1.0  0.96395  0.38297  0.12442  1.0000
  S   S815      1.0  0.78554  0.02626  0.09667  1.0000
  Fe  Fe408     1.0  0.80884  0.00322  0.10405  1.0000
  H   H2444     1.0  0.77307  0.02794  0.15947  1.0000
  C   C2443     1.0  0.77105  0.20369  0.01057  1.0000
  S   S816      1.0  0.75786  0.19090  0.05790  1.0000
  S   S817      1.0  0.87523  0.16750  0.27057  1.0000
  H   H2445     1.0  0.89663  0.23558  0.25380  1.0000
  H   H2446     1.0  0.85523  0.98813  0.29698  1.0000
  S   S818      1.0  0.85293  0.20728  0.28136  1.0000
  Fe  Fe409     1.0  0.85278  0.19042  0.26127  1.0000
  S   S819      1.0  0.85610  0.20051  0.23052  1.0000
  H   H2447     1.0  0.76751  0.46544  0.06953  1.0000
  S   S820      1.0  0.82993  0.17687  0.27938  1.0000
  Fe  Fe410     1.0  0.87947  0.02887  0.20783  1.0000
  S   S821      1.0  0.87955  0.00550  0.23219  1.0000
  S   S822      1.0  0.88348  0.02546  0.17861  1.0000
  Fe  Fe411     1.0  0.87331  0.05770  0.23092  1.0000
  S   S823      1.0  0.87243  0.03690  0.25733  1.0000
  S   S824      1.0  0.87239  0.08803  0.22744  1.0000
  Fe  Fe412     1.0  0.89666  0.02000  0.24159  1.0000
  Fe  Fe413     1.0  0.85537  0.02419  0.24585  1.0000
  S   S825      1.0  0.82934  0.01572  0.26387  1.0000
  S   S826      1.0  0.89893  0.04168  0.21591  1.0000
  S   S827      1.0  0.85396  0.04665  0.22073  1.0000
  H   H2448     1.0  0.95263  0.37083  0.27687  1.0000
  C   C2444     1.0  0.87426  0.40581  0.99498  1.0000
  H   H2449     1.0  0.83104  0.45825  0.09787  1.0000
  Fe  Fe414     1.0  0.78322  0.12508  0.04931  1.0000
  S   S828      1.0  0.78868  0.15214  0.03181  1.0000
  S   S829      1.0  0.80658  0.10337  0.05867  1.0000
  C   C2445     1.0  0.90742  0.07041  0.25724  1.0000
  H   H2450     1.0  0.97385  0.42623  0.08268  1.0000
  Fe  Fe415     1.0  0.77080  0.14811  0.01455  1.0000
  S   S830      1.0  0.77547  0.15285  0.98364  1.0000
  Fe  Fe416     1.0  0.76206  0.16393  0.04906  1.0000
  H   H2451     1.0  0.91660  0.35239  0.01608  1.0000
  S   S831      1.0  0.76765  0.11999  0.03055  1.0000
  S   S832      1.0  0.75795  0.13715  0.06809  1.0000
  Fe  Fe417     1.0  0.78779  0.23281  0.16448  1.0000
  S   S833      1.0  0.81318  0.22466  0.14379  1.0000
  S   S834      1.0  0.78503  0.22560  0.19528  1.0000
  C   C2446     1.0  0.84201  0.97910  0.26182  1.0000
  Fe  Fe418     1.0  0.79386  0.21843  0.12936  1.0000
  S   S835      1.0  0.79978  0.19210  0.11899  1.0000
  Fe  Fe419     1.0  0.80609  0.25367  0.12837  1.0000
  S   S836      1.0  0.82906  0.26914  0.11399  1.0000
  S   S837      1.0  0.76899  0.22395  0.15151  1.0000
  S   S838      1.0  0.78194  0.26235  0.15017  1.0000
  Fe  Fe420     1.0  0.84438  0.36388  0.10561  1.0000
  S   S839      1.0  0.83853  0.36866  0.07742  1.0000
  S   S840      1.0  0.82618  0.34761  0.12823  1.0000
  Fe  Fe421     1.0  0.87590  0.38472  0.09287  1.0000
  S   S841      1.0  0.87286  0.39048  0.06349  1.0000
  S   S842      1.0  0.89758  0.39885  0.09552  1.0000
  Fe  Fe422     1.0  0.84254  0.39719  0.07476  1.0000
  S   S843      1.0  0.82681  0.42308  0.06010  1.0000
  Fe  Fe423     1.0  0.86925  0.36151  0.06879  1.0000
  S   S844      1.0  0.88286  0.34261  0.04887  1.0000
  S   S845      1.0  0.84555  0.39336  0.10385  1.0000
  S   S846      1.0  0.87512  0.35474  0.09726  1.0000
  N   N207      1.0  0.90327  0.37599  0.99933  1.0000
  H   H2452     1.0  0.93786  0.05702  0.28526  1.0000
  C   C2447     1.0  0.95387  0.37225  0.12019  1.0000
  C   C2448     1.0  0.76052  0.07418  0.03846  1.0000
  C   C2449     1.0  0.81033  0.30298  0.08019  1.0000
  H   H2453     1.0  0.83066  0.43707  0.09190  1.0000
  C   C2450     1.0  0.80340  0.42879  0.07035  1.0000
  C   C2451     1.0  0.77632  0.42142  0.09297  1.0000
  C   C2452     1.0  0.79763  0.04850  0.12891  1.0000
  C   C2453     1.0  0.87433  0.34852  0.02852  1.0000
  C   C2454     1.0  0.88280  0.33871  0.01443  1.0000
  C   C2455     1.0  0.87720  0.34424  0.99746  1.0000
  C   C2456     1.0  0.86290  0.35941  0.99467  1.0000
  C   C2457     1.0  0.85394  0.36870  0.00905  1.0000
  C   C2458     1.0  0.85971  0.36335  0.02592  1.0000
  H   H2454     1.0  0.89409  0.32717  0.01643  1.0000
  H   H2455     1.0  0.88425  0.33705  0.98643  1.0000
  H   H2456     1.0  0.84289  0.38047  0.00693  1.0000
  H   H2457     1.0  0.85314  0.37105  0.03667  1.0000
  H   H2458     1.0  0.79997  0.45619  0.05398  1.0000
  C   C2459     1.0  0.75336  0.17327  0.12496  1.0000
  C   C2460     1.0  0.79419  0.07143  0.02957  1.0000
  H   H2459     1.0  0.97833  0.37594  0.23447  1.0000
  H   H2460     1.0  0.80240  0.40247  0.08848  1.0000
  C   C2461     1.0  0.93761  0.08046  0.26313  1.0000
  C   C2462     1.0  0.82731  0.29138  0.11745  1.0000
  C   C2463     1.0  0.81243  0.29949  0.12963  1.0000
  C   C2464     1.0  0.81196  0.31693  0.13269  1.0000
  C   C2465     1.0  0.82610  0.32650  0.12322  1.0000
  C   C2466     1.0  0.84065  0.31864  0.11060  1.0000
  C   C2467     1.0  0.84141  0.30100  0.10797  1.0000
  H   H2461     1.0  0.80149  0.29222  0.13697  1.0000
  H   H2462     1.0  0.80066  0.32300  0.14244  1.0000
  H   H2463     1.0  0.85165  0.32591  0.10327  1.0000
  H   H2464     1.0  0.85299  0.29477  0.09858  1.0000
  C   C2468     1.0  0.88280  0.39656  0.98059  1.0000
  C   C2469     1.0  0.80402  0.17073  0.97889  1.0000
  H   H2465     1.0  0.79456  0.06051  0.04220  1.0000
  C   C2470     1.0  0.94611  0.37854  0.10457  1.0000
  H   H2466     1.0  0.80229  0.16766  0.99365  1.0000
  H   H2467     1.0  0.95181  0.43508  0.09590  1.0000
  C   C2471     1.0  0.77119  0.19155  0.07335  1.0000
  C   C2472     1.0  0.76878  0.20779  0.07970  1.0000
  C   C2473     1.0  0.77799  0.20826  0.09325  1.0000
  C   C2474     1.0  0.78972  0.19247  0.10052  1.0000
  C   C2475     1.0  0.79256  0.17637  0.09377  1.0000
  C   C2476     1.0  0.78332  0.17589  0.08021  1.0000
  N   N208      1.0  0.84011  0.29003  0.16100  1.0000
  H   H2468     1.0  0.77573  0.22073  0.09832  1.0000
  H   H2469     1.0  0.80166  0.16413  0.09928  1.0000
  H   H2470     1.0  0.78532  0.16331  0.07535  1.0000
  C   C2477     1.0  0.82781  0.99240  0.26906  1.0000
  C   C2478     1.0  0.93874  0.03229  0.24332  1.0000
  S   S847      1.0  0.98092  0.04638  0.25613  1.0000
  Fe  Fe424     1.0  0.76541  0.25276  0.13530  1.0000
  C   C2479     1.0  0.88054  0.40021  0.01147  1.0000
  C   C2480     1.0  0.74089  0.08837  0.01648  1.0000
  H   H2471     1.0  0.93416  0.10266  0.23990  1.0000
  H   H2472     1.0  0.95486  0.38891  0.25667  1.0000
  S   S848      1.0  0.98331  0.44440  0.10859  1.0000
  C   C2481     1.0  0.83622  0.20845  0.22097  1.0000
  C   C2482     1.0  0.83818  0.21269  0.20179  1.0000
  C   C2483     1.0  0.82256  0.21823  0.19375  1.0000
  C   C2484     1.0  0.80489  0.21966  0.20487  1.0000
  C   C2485     1.0  0.80293  0.21566  0.22405  1.0000
  C   C2486     1.0  0.81856  0.21004  0.23210  1.0000
  H   H2473     1.0  0.85184  0.21138  0.19315  1.0000
  H   H2474     1.0  0.82421  0.22103  0.17899  1.0000
  H   H2475     1.0  0.78927  0.21680  0.23272  1.0000
  H   H2476     1.0  0.81694  0.20696  0.24691  1.0000
  H   H2477     1.0  0.83262  0.06838  0.12943  1.0000
  S   S849      1.0  0.78905  0.24669  0.11206  1.0000
  C   C2487     1.0  0.95237  0.04159  0.24349  1.0000
  H   H2478     1.0  0.95320  0.05481  0.23448  1.0000
  C   C2488     1.0  0.80994  0.06059  0.12320  1.0000
  C   C2489     1.0  0.82274  0.45117  0.09295  1.0000
  C   C2490     1.0  0.96469  0.03398  0.25545  1.0000
  H   H2479     1.0  0.85973  0.31221  0.03794  1.0000
  S   S850      1.0  0.87694  0.98763  0.07815  1.0000
  C   C2491     1.0  0.79209  0.46705  0.10609  1.0000
  C   C2492     1.0  0.85554  0.11528  0.27743  1.0000
  C   C2493     1.0  0.86233  0.12495  0.26000  1.0000
  C   C2494     1.0  0.86719  0.11649  0.24474  1.0000
  C   C2495     1.0  0.86536  0.09831  0.24683  1.0000
  C   C2496     1.0  0.85857  0.08860  0.26425  1.0000
  C   C2497     1.0  0.85368  0.09709  0.27953  1.0000
  H   H2480     1.0  0.86392  0.13891  0.25831  1.0000
  H   H2481     1.0  0.87256  0.12399  0.23130  1.0000
  H   H2482     1.0  0.85696  0.07464  0.26594  1.0000
  Fe  Fe425     1.0  0.84946  0.98523  0.09726  1.0000
  H   H2483     1.0  0.87374  0.40713  0.02285  1.0000
  H   H2484     1.0  0.86810  0.30847  0.05886  1.0000
  H   H2485     1.0  0.74347  0.23029  0.11857  1.0000
  C   C2498     1.0  0.90906  0.04421  0.28307  1.0000
  C   C2499     1.0  0.95018  0.00742  0.26659  1.0000
  S   S851      1.0  0.83318  0.00737  0.11277  1.0000
  C   C2500     1.0  0.79163  0.04746  0.08552  1.0000
  C   C2501     1.0  0.81013  0.04918  0.08003  1.0000
  C   C2502     1.0  0.81462  0.06646  0.07196  1.0000
  C   C2503     1.0  0.80064  0.08201  0.06923  1.0000
  C   C2504     1.0  0.78215  0.08028  0.07466  1.0000
  C   C2505     1.0  0.77766  0.06303  0.08291  1.0000
  H   H2486     1.0  0.82098  0.03721  0.08197  1.0000
  H   H2487     1.0  0.82895  0.06777  0.06766  1.0000
  H   H2488     1.0  0.77130  0.09227  0.07264  1.0000
  H   H2489     1.0  0.76333  0.06177  0.08741  1.0000
  C   C2506     1.0  0.84245  0.99643  0.16879  1.0000
  C   C2507     1.0  0.85402  0.00537  0.15392  1.0000
  C   C2508     1.0  0.86617  0.01480  0.15703  1.0000
  C   C2509     1.0  0.86681  0.01530  0.17500  1.0000
  C   C2510     1.0  0.85489  0.00678  0.18985  1.0000
  C   C2511     1.0  0.84276  0.99733  0.18673  1.0000
  H   H2490     1.0  0.85388  0.00477  0.14005  1.0000
  H   H2491     1.0  0.87533  0.02146  0.14552  1.0000
  H   H2492     1.0  0.85526  0.00718  0.20376  1.0000
  C   C2512     1.0  0.90355  0.98710  0.11774  1.0000
  C   C2513     1.0  0.91785  0.39561  0.14761  1.0000
  C   C2514     1.0  0.91867  0.41091  0.13326  1.0000
  C   C2515     1.0  0.91112  0.41233  0.11795  1.0000
  C   C2516     1.0  0.90283  0.39839  0.11674  1.0000
  C   C2517     1.0  0.90129  0.38339  0.13139  1.0000
  C   C2518     1.0  0.90880  0.38202  0.14681  1.0000
  H   H2493     1.0  0.92553  0.42144  0.13370  1.0000
  H   H2494     1.0  0.91234  0.42397  0.10667  1.0000
  H   H2495     1.0  0.89503  0.37252  0.13051  1.0000
  H   H2496     1.0  0.90807  0.37017  0.15790  1.0000
  C   C2519     1.0  0.93081  0.06521  0.27439  1.0000
  C   C2520     1.0  0.89199  0.25164  0.28568  1.0000
  H   H2497     1.0  0.96516  0.42300  0.25048  1.0000
  H   H2498     1.0  0.78156  0.02022  0.13787  1.0000
  H   H2499     1.0  0.78742  0.04982  0.12084  1.0000
  C   C2521     1.0  0.79343  0.44648  0.06494  1.0000
  C   C2522     1.0  0.82826  0.29773  0.07044  1.0000
  H   H2500     1.0  0.96962  0.41993  0.21811  1.0000
  C   C2523     1.0  0.94821  0.39573  0.09359  1.0000
  N   N209      1.0  0.77170  0.20753  0.99074  1.0000
  Fe  Fe426     1.0  0.85234  0.15524  0.29031  1.0000
  H   H2501     1.0  0.91002  0.21517  0.26561  1.0000
  C   C2524     1.0  0.89745  0.38166  0.98297  1.0000
  C   C2525     1.0  0.96119  0.38097  0.26856  1.0000
  C   C2526     1.0  0.97874  0.41763  0.24317  1.0000
  H   H2502     1.0  0.91627  0.99548  0.14359  1.0000
  H   H2503     1.0  0.85535  0.27047  0.14443  1.0000
  C   C2527     1.0  0.92899  0.09084  0.24878  1.0000
  S   S852      1.0  0.74440  0.16214  0.03032  1.0000
  H   H2504     1.0  0.86366  0.29891  0.16284  1.0000
  H   H2505     1.0  0.76187  0.06779  0.05247  1.0000
  Fe  Fe427     1.0  0.94710  0.45023  0.17265  1.0000
  H   H2506     1.0  0.89122  0.99034  0.11138  1.0000
  C   C2528     1.0  0.92906  0.24922  0.28476  1.0000
  C   C2529     1.0  0.80059  0.43485  0.11637  1.0000
  C   C2530     1.0  0.96379  0.01674  0.26680  1.0000
  H   H2507     1.0  0.94117  0.40092  0.08213  1.0000
  H   H2508     1.0  0.86197  0.28989  0.05284  1.0000
  H   H2509     1.0  0.83309  0.04480  0.15837  1.0000
  H   H2510     1.0  0.75499  0.09859  0.98913  1.0000
  N   N210      1.0  0.83926  0.31042  0.06245  1.0000
  C   C2531     1.0  0.78564  0.02240  0.15001  1.0000
  S   S853      1.0  0.90124  0.18540  0.29688  1.0000
  C   C2532     1.0  0.82319  0.04595  0.14994  1.0000
  C   C2533     1.0  0.85340  0.30230  0.15390  1.0000
  H   H2511     1.0  0.90694  0.09373  0.23467  1.0000
  C   C2534     1.0  0.90163  0.98077  0.16822  1.0000
  H   H2512     1.0  0.84159  0.33841  0.05750  1.0000
  H   H2513     1.0  0.89965  0.38057  0.02647  1.0000
  H   H2514     1.0  0.93186  0.36510  0.99810  1.0000
  C   C2535     1.0  0.93749  0.01527  0.25501  1.0000
  N   N211      1.0  0.80469  0.45095  0.10538  1.0000
  H   H2515     1.0  0.84630  0.31692  0.15330  1.0000
  N   N212      1.0  0.79850  0.03510  0.14440  1.0000
  C   C2536     1.0  0.84340  0.27390  0.15503  1.0000
  C   C2537     1.0  0.82488  0.29440  0.17419  1.0000
  H   H2516     1.0  0.80945  0.07092  0.11064  1.0000
  H   H2517     1.0  0.77245  0.21586  0.01512  1.0000
  H   H2518     1.0  0.97337  0.01072  0.27596  1.0000
  H   H2519     1.0  0.80469  0.06597  0.01828  1.0000
  N   N213      1.0  0.98019  0.37150  0.26265  1.0000
  H   H2520     1.0  0.79818  0.08353  0.03194  1.0000
  H   H2521     1.0  0.95154  0.35940  0.12936  1.0000
  C   C2538     1.0  0.89713  0.26294  0.29452  1.0000
  H   H2522     1.0  0.83372  0.99056  0.19829  1.0000
  S   S854      1.0  0.91985  0.00388  0.25593  1.0000
  H   H2523     1.0  0.97353  0.40846  0.11652  1.0000
  C   C2539     1.0  0.75648  0.09142  0.00295  1.0000
  S   S855      1.0  0.80165  0.98134  0.12867  1.0000
  C   C2540     1.0  0.77395  0.08558  0.00749  1.0000
  H   H2524     1.0  0.78597  0.08845  0.99702  1.0000
  S   S856      1.0  0.82554  0.98336  0.08615  1.0000
  H   H2525     1.0  0.94932  0.99420  0.27561  1.0000
  C   C2541     1.0  0.91858  0.36028  0.00165  1.0000
  H   H2526     1.0  0.79218  0.00868  0.15701  1.0000
  C   C2542     1.0  0.81230  0.28261  0.18155  1.0000
  H   H2527     1.0  0.96193  0.45719  0.23281  1.0000
  C   C2543     1.0  0.95916  0.42476  0.08722  1.0000
  H   H2528     1.0  0.83346  0.24939  0.15677  1.0000
  Fe  Fe428     1.0  0.87380  0.18331  0.29211  1.0000
  H   H2529     1.0  0.79005  0.32542  0.08982  1.0000
  H   H2530     1.0  0.87744  0.25234  0.28653  1.0000
  H   H2531     1.0  0.92017  0.03398  0.28910  1.0000
  H   H2532     1.0  0.76970  0.41170  0.10382  1.0000
  C   C2544     1.0  0.77509  0.45180  0.07382  1.0000
  C   C2545     1.0  0.76655  0.43935  0.08799  1.0000
  H   H2533     1.0  0.85389  0.98312  0.25204  1.0000
  H   H2534     1.0  0.91939  0.35052  0.99277  1.0000
  H   H2535     1.0  0.94977  0.08391  0.26530  1.0000
  H   H2536     1.0  0.75612  0.19282  0.13934  1.0000
  H   H2537     1.0  0.89762  0.04861  0.29424  1.0000
  C   C2546     1.0  0.81679  0.18152  0.96814  1.0000
  C   C2547     1.0  0.74895  0.19048  0.12982  1.0000
  C   C2548     1.0  0.79480  0.41619  0.08431  1.0000
  H   H2538     1.0  0.90362  0.37422  0.97188  1.0000
  C   C2549     1.0  0.91578  0.26168  0.29404  1.0000
  C   C2550     1.0  0.74504  0.17042  0.11192  1.0000
  H   H2539     1.0  0.75771  0.20000  0.01859  1.0000
  C   C2551     1.0  0.82290  0.05918  0.13375  1.0000
  S   S857      1.0  0.97759  0.44751  0.16149  1.0000
  C   C2552     1.0  0.74285  0.07994  0.03441  1.0000
  Fe  Fe429     1.0  0.74264  0.13422  0.04773  1.0000
  H   H2540     1.0  0.78239  0.19210  0.01416  1.0000
  Fe  Fe430     1.0  0.82738  0.98396  0.13607  1.0000
  H   H2541     1.0  0.95485  0.45364  0.21326  1.0000
  H   H2542     1.0  0.88670  0.22292  0.27584  1.0000
  C   C2553     1.0  0.96594  0.40001  0.11303  1.0000
  C   C2554     1.0  0.78380  0.21782  0.97906  1.0000
  H   H2543     1.0  0.82229  0.30717  0.17895  1.0000
  H   H2544     1.0  0.80191  0.29275  0.08702  1.0000
  N   N214      1.0  0.83009  0.16686  0.21735  1.0000
  C   C2555     1.0  0.84578  0.16450  0.20411  1.0000
  C   C2556     1.0  0.81322  0.17347  0.21255  1.0000
  C   C2557     1.0  0.84485  0.16915  0.18546  1.0000
  C   C2558     1.0  0.81178  0.17831  0.19405  1.0000
  C   C2559     1.0  0.82772  0.17615  0.18044  1.0000
  C   C2560     1.0  0.83137  0.16151  0.23678  1.0000
  H   H2545     1.0  0.85914  0.15916  0.20796  1.0000
  H   H2546     1.0  0.80077  0.17550  0.22301  1.0000
  H   H2547     1.0  0.85734  0.16742  0.17500  1.0000
  H   H2548     1.0  0.79843  0.18416  0.19030  1.0000
  H   H2549     1.0  0.82678  0.18003  0.16602  1.0000
  H   H2550     1.0  0.83168  0.14655  0.24169  1.0000
  H   H2551     1.0  0.84409  0.16469  0.23883  1.0000
  H   H2552     1.0  0.81957  0.16922  0.24543  1.0000
  H   H2553     1.0  0.93759  0.37069  0.10155  1.0000
  H   H2554     1.0  0.75945  0.21995  0.07441  1.0000
  H   H2555     1.0  0.97679  0.99757  0.23449  1.0000
  C   C2561     1.0  0.85817  0.30489  0.05254  1.0000
  H   H2556     1.0  0.86074  0.30114  0.13962  1.0000
  C   C2562     1.0  0.83280  0.32842  0.06378  1.0000
  H   H2557     1.0  0.80137  0.99716  0.28730  1.0000
  N   N215      1.0  0.95793  0.40627  0.09799  1.0000
  H   H2558     1.0  0.83346  0.28334  0.06988  1.0000
  S   S858      1.0  0.97646  0.40752  0.15375  1.0000
  H   H2559     1.0  0.81002  0.34836  0.07487  1.0000
  C   C2563     1.0  0.81543  0.26627  0.17536  1.0000
  C   C2564     1.0  0.83105  0.26188  0.16198  1.0000
  H   H2560     1.0  0.81100  0.02377  0.16775  1.0000
  H   H2561     1.0  0.80018  0.28612  0.19194  1.0000
  H   H2562     1.0  0.92913  0.03837  0.23424  1.0000
  C   C2565     1.0  0.80374  0.32127  0.08185  1.0000
  C   C2566     1.0  0.81073  0.03402  0.15515  1.0000
  H   H2563     1.0  0.89570  0.06653  0.25470  1.0000
  C   C2567     1.0  0.81498  0.33412  0.07353  1.0000
  H   H2564     1.0  0.80571  0.25707  0.18086  1.0000
  Fe  Fe431     1.0  0.97910  0.41851  0.17730  1.0000
  N   N216      1.0  0.91605  0.06022  0.27118  1.0000
  N   N217      1.0  0.97348  0.47197  0.20698  1.0000
  H   H2565     1.0  0.77981  0.42166  0.13620  1.0000
  C   C2568     1.0  0.98125  0.41595  0.22485  1.0000
  H   H2566     1.0  0.79277  0.22325  0.98441  1.0000
  H   H2567     1.0  0.86250  0.41702  0.99352  1.0000
  H   H2568     1.0  0.81045  0.42204  0.11569  1.0000
  H   H2569     1.0  0.91287  0.97972  0.05528  1.0000
  N   N218      1.0  0.77580  0.07681  0.02501  1.0000
  C   C2569     1.0  0.77030  0.45085  0.12868  1.0000
  C   C2570     1.0  0.81241  0.98694  0.28164  1.0000
  C   C2571     1.0  0.90652  0.98634  0.14913  1.0000
  C   C2572     1.0  0.78331  0.43454  0.12809  1.0000
  H   H2570     1.0  0.90392  0.03697  0.27506  1.0000
  H   H2571     1.0  0.84836  0.08960  0.29299  1.0000
  H   H2572     1.0  0.95295  0.42797  0.07488  1.0000
  H   H2573     1.0  0.75661  0.45075  0.13720  1.0000
  C   C2573     1.0  0.76116  0.19980  0.98393  1.0000
  H   H2574     1.0  0.82482  0.18673  0.97474  1.0000
  H   H2575     1.0  0.94355  0.24778  0.28480  1.0000
  Fe  Fe432     1.0  0.83197  0.19148  0.30059  1.0000
  S   S859      1.0  0.85710  0.36816  0.97296  1.0000
  H   H2576     1.0  0.82093  0.45825  0.07880  1.0000
  H   H2577     1.0  0.91397  0.97616  0.11161  1.0000
  H   H2578     1.0  0.75235  0.19075  0.99308  1.0000
  H   H2579     1.0  0.96101  0.39092  0.27701  1.0000
  S   S860      1.0  0.74402  0.44607  0.10020  1.0000
  C   C2574     1.0  0.77476  0.46724  0.11778  1.0000
  S   S861      1.0  0.82736  0.98419  0.16536  1.0000
  H   H2580     1.0  0.90930  0.99981  0.11402  1.0000
  S   S862      1.0  0.84923  0.12574  0.29666  1.0000
  H   H2581     1.0  0.90727  0.98583  0.17725  1.0000
  H   H2582     1.0  0.76382  0.16252  0.13062  1.0000
  H   H2583     1.0  0.96958  0.37842  0.13683  1.0000
  N   N219      1.0  0.90509  0.23932  0.27677  1.0000
  C   C2575     1.0  0.89936  0.22778  0.26743  1.0000
  S   S863      1.0  0.92968  0.47327  0.18655  1.0000
  N   N220      1.0  0.89852  0.98100  0.13773  1.0000
  H   H2584     1.0  0.74890  0.15739  0.10743  1.0000
  S   S864      1.0  0.73816  0.26839  0.12831  1.0000
  C   C2576     1.0  0.79328  0.16429  0.97048  1.0000
  N   N221      1.0  0.73641  0.20439  0.12208  1.0000
  H   H2585     1.0  0.87758  0.40036  0.96795  1.0000
  H   H2586     1.0  0.83510  0.01809  0.30072  1.0000
  S   S865      1.0  0.76222  0.02250  0.61876  1.0000
  H   H2587     1.0  0.82728  0.11647  0.59972  1.0000
  C   C2577     1.0  0.91937  0.20227  0.31239  1.0000
  H   H2588     1.0  0.75033  0.17740  0.46678  1.0000
  H   H2589     1.0  0.93375  0.42267  0.61792  1.0000
  S   S866      1.0  0.77747  0.16591  0.39884  1.0000
  C   C2578     1.0  0.74832  0.08107  0.62887  1.0000
  H   H2590     1.0  0.75340  0.16425  0.58437  1.0000
  H   H2591     1.0  0.94950  0.18382  0.63107  1.0000
  C   C2579     1.0  0.92229  0.36173  0.56546  1.0000
  H   H2592     1.0  0.80455  0.01931  0.32208  1.0000
  H   H2593     1.0  0.89758  0.24375  0.41508  1.0000
  S   S867      1.0  0.75442  0.01109  0.57314  1.0000
  H   H2594     1.0  0.81807  0.14327  0.33710  1.0000
  C   C2580     1.0  0.80880  0.33263  0.54958  1.0000
  S   S868      1.0  0.74885  0.23932  0.52656  1.0000
  H   H2595     1.0  0.78783  0.19004  0.42680  1.0000
  C   C2581     1.0  0.75301  0.16563  0.35197  1.0000
  C   C2582     1.0  0.95516  0.29089  0.40352  1.0000
  H   H2596     1.0  0.73680  0.35723  0.53237  1.0000
  S   S869      1.0  0.93512  0.26667  0.35887  1.0000
  C   C2583     1.0  0.78321  0.14654  0.35300  1.0000
  C   C2584     1.0  0.97065  0.25958  0.56336  1.0000
  H   H2597     1.0  0.93178  0.19354  0.30651  1.0000
  C   C2585     1.0  0.75063  0.24140  0.59860  1.0000
  C   C2586     1.0  0.88745  0.22495  0.32744  1.0000
  H   H2598     1.0  0.96336  0.32230  0.55503  1.0000
  H   H2599     1.0  0.81476  0.16191  0.31835  1.0000
  C   C2587     1.0  0.83084  0.00551  0.30885  1.0000
  H   H2600     1.0  0.96546  0.34084  0.32326  1.0000
  C   C2588     1.0  0.84215  0.98847  0.30674  1.0000
  H   H2601     1.0  0.96763  0.36098  0.40097  1.0000
  H   H2602     1.0  0.82089  0.08530  0.61243  1.0000
  Fe  Fe433     1.0  0.77112  0.24527  0.50180  1.0000
  S   S870      1.0  0.79319  0.22333  0.51320  1.0000
  S   S871      1.0  0.76941  0.24653  0.47245  1.0000
  Fe  Fe434     1.0  0.75739  0.26021  0.53696  1.0000
  S   S872      1.0  0.77820  0.23957  0.55113  1.0000
  H   H2603     1.0  0.76483  0.23736  0.43998  1.0000
  Fe  Fe435     1.0  0.79832  0.24541  0.52464  1.0000
  S   S873      1.0  0.82688  0.24481  0.52821  1.0000
  Fe  Fe436     1.0  0.77149  0.21919  0.53869  1.0000
  S   S874      1.0  0.76652  0.19104  0.55357  1.0000
  S   S875      1.0  0.77805  0.26803  0.51118  1.0000
  H   H2604     1.0  0.96517  0.16793  0.58914  1.0000
  H   H2605     1.0  0.74039  0.21443  0.62607  1.0000
  C   C2589     1.0  0.91028  0.42818  0.58868  1.0000
  Fe  Fe437     1.0  0.92504  0.32419  0.49480  1.0000
  S   S876      1.0  0.90934  0.30250  0.51197  1.0000
  S   S877      1.0  0.92249  0.34898  0.50667  1.0000
  Fe  Fe438     1.0  0.93658  0.30611  0.46130  1.0000
  S   S878      1.0  0.92188  0.28297  0.47582  1.0000
  S   S879      1.0  0.95001  0.30957  0.43112  1.0000
  Fe  Fe439     1.0  0.89892  0.30457  0.48651  1.0000
  S   S880      1.0  0.86938  0.30815  0.48409  1.0000
  Fe  Fe440     1.0  0.93387  0.28310  0.49971  1.0000
  H   H2606     1.0  0.79094  0.31420  0.56535  1.0000
  S   S881      1.0  0.91268  0.32782  0.47025  1.0000
  S   S882      1.0  0.95051  0.30462  0.48438  1.0000
  C   C2590     1.0  0.77982  0.20046  0.34908  1.0000
  S   S883      1.0  0.90606  0.24438  0.33960  1.0000
  C   C2591     1.0  0.85837  0.28959  0.49478  1.0000
  C   C2592     1.0  0.84015  0.29086  0.49327  1.0000
  C   C2593     1.0  0.83053  0.27680  0.50291  1.0000
  C   C2594     1.0  0.83915  0.26146  0.51412  1.0000
  C   C2595     1.0  0.85756  0.25997  0.51521  1.0000
  C   C2596     1.0  0.86720  0.27399  0.50549  1.0000
  H   H2607     1.0  0.83332  0.30292  0.48491  1.0000
  H   H2608     1.0  0.81637  0.27802  0.50198  1.0000
  H   H2609     1.0  0.86425  0.24811  0.52389  1.0000
  H   H2610     1.0  0.88127  0.27293  0.50671  1.0000
  C   C2597     1.0  0.79512  0.09153  0.60324  1.0000
  H   H2611     1.0  0.76557  0.23550  0.59474  1.0000
  C   C2598     1.0  0.77032  0.17921  0.61388  1.0000
  C   C2599     1.0  0.77893  0.19270  0.60133  1.0000
  C   C2600     1.0  0.77845  0.19584  0.58265  1.0000
  C   C2601     1.0  0.76892  0.18589  0.57655  1.0000
  C   C2602     1.0  0.76080  0.17198  0.58902  1.0000
  C   C2603     1.0  0.76157  0.16857  0.60768  1.0000
  H   H2612     1.0  0.78606  0.20065  0.60604  1.0000
  H   H2613     1.0  0.78565  0.20581  0.57298  1.0000
  H   H2614     1.0  0.97670  0.12100  0.63180  1.0000
  Fe  Fe441     1.0  0.74683  0.17259  0.40969  1.0000
  C   C2604     1.0  0.95699  0.25803  0.40839  1.0000
  N   N222      1.0  0.90555  0.26471  0.42328  1.0000
  C   C2605     1.0  0.95326  0.28959  0.42244  1.0000
  C   C2606     1.0  0.95358  0.27244  0.43424  1.0000
  C   C2607     1.0  0.95536  0.25671  0.42725  1.0000
  H   H2615     1.0  0.95266  0.27122  0.44876  1.0000
  H   H2616     1.0  0.95539  0.24349  0.43648  1.0000
  C   C2608     1.0  0.97214  0.36259  0.51967  1.0000
  C   C2609     1.0  0.95479  0.37408  0.52233  1.0000
  C   C2610     1.0  0.93988  0.37009  0.51757  1.0000
  C   C2611     1.0  0.94210  0.35436  0.51046  1.0000
  C   C2612     1.0  0.95947  0.34283  0.50767  1.0000
  C   C2613     1.0  0.80805  0.98988  0.33052  1.0000
  H   H2617     1.0  0.95274  0.38597  0.52824  1.0000
  H   H2618     1.0  0.92648  0.37905  0.51972  1.0000
  H   H2619     1.0  0.96124  0.33066  0.50224  1.0000
  H   H2620     1.0  0.73606  0.02020  0.46852  1.0000
  H   H2621     1.0  0.82114  0.14520  0.57685  1.0000
  C   C2614     1.0  0.77043  0.40749  0.62403  1.0000
  H   H2622     1.0  0.75097  0.18541  0.32673  1.0000
  H   H2623     1.0  0.81056  0.13989  0.31783  1.0000
  C   C2615     1.0  0.75673  0.30457  0.54502  1.0000
  C   C2616     1.0  0.76137  0.32038  0.54718  1.0000
  C   C2617     1.0  0.81026  0.18172  0.34977  1.0000
  C   C2618     1.0  0.75907  0.18639  0.48699  1.0000
  H   H2624     1.0  0.76299  0.29908  0.53270  1.0000
  H   H2625     1.0  0.77131  0.32697  0.53652  1.0000
  C   C2619     1.0  0.74073  0.22500  0.44787  1.0000
  H   H2626     1.0  0.77377  0.44731  0.59288  1.0000
  C   C2620     1.0  0.77636  0.43631  0.60444  1.0000
  C   C2621     1.0  0.76697  0.42170  0.60911  1.0000
  S   S884      1.0  0.74976  0.42253  0.59714  1.0000
  Fe  Fe442     1.0  0.73802  0.39702  0.60207  1.0000
  H   H2627     1.0  0.79202  0.07797  0.60913  1.0000
  S   S885      1.0  0.98200  0.26111  0.58008  1.0000
  C   C2622     1.0  0.95391  0.34680  0.56637  1.0000
  C   C2623     1.0  0.78621  0.19984  0.47598  1.0000
  C   C2624     1.0  0.75984  0.17421  0.33408  1.0000
  C   C2625     1.0  0.73529  0.30364  0.57429  1.0000
  C   C2626     1.0  0.73763  0.23229  0.48269  1.0000
  C   C2627     1.0  0.76475  0.15166  0.36149  1.0000
  H   H2628     1.0  0.76953  0.10235  0.59379  1.0000
  C   C2628     1.0  0.97851  0.33119  0.32262  1.0000
  H   H2629     1.0  0.79989  0.34446  0.55475  1.0000
  H   H2630     1.0  0.73842  0.23837  0.56999  1.0000
  C   C2629     1.0  0.90322  0.46120  0.58649  1.0000
  C   C2630     1.0  0.91022  0.24874  0.41454  1.0000
  H   H2631     1.0  0.94051  0.37175  0.57632  1.0000
  C   C2631     1.0  0.89256  0.42720  0.59930  1.0000
  Fe  Fe443     1.0  0.93418  0.24682  0.34214  1.0000
  H   H2632     1.0  0.78378  0.17590  0.31233  1.0000
  C   C2632     1.0  0.73658  0.98205  0.39858  1.0000
  C   C2633     1.0  0.93904  0.36107  0.57011  1.0000
  C   C2634     1.0  0.90275  0.34986  0.55223  1.0000
  H   H2633     1.0  0.89118  0.35084  0.56429  1.0000
  C   C2635     1.0  0.78745  0.19658  0.45850  1.0000
  C   C2636     1.0  0.93479  0.33428  0.55388  1.0000
  C   C2637     1.0  0.88613  0.21198  0.31792  1.0000
  C   C2638     1.0  0.78660  0.12274  0.58727  1.0000
  C   C2639     1.0  0.73636  0.04841  0.45485  1.0000
  C   C2640     1.0  0.88568  0.46011  0.59754  1.0000
  H   H2634     1.0  0.91984  0.26984  0.30151  1.0000
  C   C2641     1.0  0.75709  0.04534  0.62172  1.0000
  N   N223      1.0  0.77481  0.18837  0.45539  1.0000
  H   H2635     1.0  0.76525  0.98392  0.38878  1.0000
  S   S886      1.0  0.85289  0.16880  0.31290  1.0000
  H   H2636     1.0  0.98007  0.46418  0.46967  1.0000
  C   C2642     1.0  0.77343  0.19182  0.36723  1.0000
  H   H2637     1.0  0.93407  0.21653  0.32324  1.0000
  S   S887      1.0  0.75920  0.34770  0.56509  1.0000
  C   C2643     1.0  0.78544  0.17802  0.37665  1.0000
  C   C2644     1.0  0.80394  0.17320  0.36798  1.0000
  H   H2638     1.0  0.81334  0.16264  0.37525  1.0000
  H   H2639     1.0  0.75915  0.19563  0.37375  1.0000
  H   H2640     1.0  0.75469  0.15826  0.61738  1.0000
  C   C2645     1.0  0.98441  0.45619  0.45849  1.0000
  C   C2646     1.0  0.74341  0.05850  0.61400  1.0000
  S   S888      1.0  0.74816  0.98206  0.61257  1.0000
  C   C2647     1.0  0.97452  0.34704  0.51215  1.0000
  H   H2641     1.0  0.89383  0.30614  0.44726  1.0000
  Fe  Fe444     1.0  0.74177  0.36263  0.58752  1.0000
  S   S889      1.0  0.95805  0.30529  0.32711  1.0000
  H   H2642     1.0  0.79885  0.15295  0.57094  1.0000
  C   C2648     1.0  0.90213  0.20070  0.31025  1.0000
  Fe  Fe445     1.0  0.75387  0.98106  0.58279  1.0000
  C   C2649     1.0  0.81363  0.00618  0.32071  1.0000
  N   N224      1.0  0.92033  0.34843  0.55745  1.0000
  Fe  Fe446     1.0  0.95836  0.27497  0.33627  1.0000
  C   C2650     1.0  0.78876  0.43701  0.61491  1.0000
  C   C2651     1.0  0.91097  0.28079  0.41390  1.0000
  H   H2643     1.0  0.91872  0.28194  0.39985  1.0000
  H   H2644     1.0  0.91174  0.30845  0.41512  1.0000
  H   H2645     1.0  0.91993  0.23755  0.42162  1.0000
  C   C2652     1.0  0.95479  0.25777  0.53465  1.0000
  C   C2653     1.0  0.75228  0.23699  0.46854  1.0000
  Fe  Fe447     1.0  0.74653  0.01241  0.60314  1.0000
  C   C2654     1.0  0.90474  0.22675  0.32926  1.0000
  S   S890      1.0  0.96176  0.41494  0.53831  1.0000
  H   H2646     1.0  0.97811  0.40392  0.50303  1.0000
  C   C2655     1.0  0.82515  0.33450  0.53673  1.0000
  S   S891      1.0  0.82011  0.47138  0.61398  1.0000
  S   S892      1.0  0.97330  0.42748  0.57146  1.0000
  H   H2647     1.0  0.88388  0.27695  0.46399  1.0000
  S   S893      1.0  0.80497  0.20465  0.31666  1.0000
  C   C2656     1.0  0.79814  0.19517  0.34015  1.0000
  H   H2648     1.0  0.80132  0.15281  0.59377  1.0000
  C   C2657     1.0  0.81140  0.09558  0.60492  1.0000
  N   N225      1.0  0.78984  0.15520  0.33555  1.0000
  S   S894      1.0  0.92591  0.40774  0.58506  1.0000
  N   N226      1.0  0.80273  0.12653  0.58874  1.0000
  C   C2658     1.0  0.81498  0.11327  0.59760  1.0000
  H   H2649     1.0  0.73878  0.17011  0.35857  1.0000
  C   C2659     1.0  0.91048  0.46276  0.63107  1.0000
  Fe  Fe448     1.0  0.98380  0.38968  0.54234  1.0000
  H   H2650     1.0  0.90039  0.36222  0.54123  1.0000
  H   H2651     1.0  0.93637  0.45530  0.61258  1.0000
  C   C2660     1.0  0.76072  0.18333  0.46935  1.0000
  H   H2652     1.0  0.77651  0.13343  0.58095  1.0000
  S   S895      1.0  0.73598  0.16475  0.44002  1.0000
  H   H2653     1.0  0.96952  0.43727  0.49068  1.0000
  H   H2654     1.0  0.74755  0.18291  0.49786  1.0000
  H   H2655     1.0  0.79568  0.44848  0.61136  1.0000
  H   H2656     1.0  0.96006  0.28869  0.55711  1.0000
  C   C2661     1.0  0.95178  0.33326  0.55828  1.0000
  C   C2662     1.0  0.95712  0.27512  0.39648  1.0000
  S   S896      1.0  0.95791  0.23839  0.40012  1.0000
  C   C2663     1.0  0.77605  0.18507  0.43703  1.0000
  S   S897      1.0  0.98047  0.25446  0.34894  1.0000
  C   C2664     1.0  0.89702  0.29456  0.44046  1.0000
  H   H2657     1.0  0.77038  0.21092  0.34175  1.0000
  N   N227      1.0  0.81468  0.30054  0.54880  1.0000
  C   C2665     1.0  0.80375  0.31544  0.55550  1.0000
  C   C2666     1.0  0.83088  0.30220  0.53649  1.0000
  C   C2667     1.0  0.83633  0.31917  0.53017  1.0000
  C   C2668     1.0  0.97888  0.31251  0.32427  1.0000
  C   C2669     1.0  0.80850  0.28297  0.55376  1.0000
  H   H2658     1.0  0.83961  0.29038  0.53141  1.0000
  H   H2659     1.0  0.84904  0.32041  0.52005  1.0000
  H   H2660     1.0  0.82035  0.27122  0.55520  1.0000
  H   H2661     1.0  0.79829  0.28176  0.56696  1.0000
  H   H2662     1.0  0.80207  0.28163  0.54276  1.0000
  C   C2670     1.0  0.74349  0.29633  0.55846  1.0000
  C   C2671     1.0  0.80619  0.14527  0.58224  1.0000
  C   C2672     1.0  0.95323  0.27472  0.53924  1.0000
  H   H2663     1.0  0.90269  0.33783  0.54660  1.0000
  S   S898      1.0  0.95412  0.22391  0.35555  1.0000
  C   C2673     1.0  0.96375  0.24174  0.54477  1.0000
  S   S899      1.0  0.94714  0.25631  0.51539  1.0000
  C   C2674     1.0  0.92070  0.21525  0.32187  1.0000
  C   C2675     1.0  0.91554  0.44523  0.58207  1.0000
  H   H2664     1.0  0.88842  0.41404  0.60437  1.0000
  H   H2665     1.0  0.96479  0.22860  0.54138  1.0000
  H   H2666     1.0  0.73596  0.07742  0.44549  1.0000
  H   H2667     1.0  0.76318  0.39622  0.62779  1.0000
  H   H2668     1.0  0.91096  0.37314  0.56805  1.0000
  Fe  Fe449     1.0  0.97585  0.23558  0.33311  1.0000
  C   C2676     1.0  0.89597  0.26323  0.44107  1.0000
  C   C2677     1.0  0.90693  0.29590  0.42239  1.0000
  Fe  Fe450     1.0  0.95467  0.40996  0.56912  1.0000
  H   H2669     1.0  0.79467  0.99020  0.33978  1.0000
  H   H2670     1.0  0.86671  0.44220  0.61211  1.0000
  Fe  Fe451     1.0  0.98262  0.42981  0.54082  1.0000
  S   S900      1.0  0.97546  0.38362  0.57300  1.0000
  H   H2671     1.0  0.73611  0.05489  0.60542  1.0000
  C   C2678     1.0  0.75364  0.23356  0.45104  1.0000
  H   H2672     1.0  0.77049  0.19767  0.50378  1.0000
  C   C2679     1.0  0.78257  0.10520  0.59446  1.0000
  C   C2680     1.0  0.96104  0.27559  0.55370  1.0000
  S   S901      1.0  0.75401  0.36829  0.60882  1.0000
  C   C2681     1.0  0.79206  0.42295  0.62998  1.0000
  H   H2673     1.0  0.93344  0.32400  0.54704  1.0000
  C   C2682     1.0  0.75428  0.97777  0.38783  1.0000
  H   H2674     1.0  0.97930  0.19419  0.62363  1.0000
  C   C2683     1.0  0.97179  0.24266  0.55898  1.0000
  H   H2675     1.0  0.96716  0.34644  0.56941  1.0000
  H   H2676     1.0  0.82910  0.34780  0.53181  1.0000
  H   H2677     1.0  0.89182  0.25043  0.44859  1.0000
  H   H2678     1.0  0.82449  0.17782  0.34320  1.0000
  H   H2679     1.0  0.76327  0.19229  0.43187  1.0000
  C   C2684     1.0  0.89145  0.27815  0.44987  1.0000
  H   H2680     1.0  0.92917  0.44609  0.57380  1.0000
  H   H2681     1.0  0.95461  0.30414  0.39434  1.0000
  H   H2682     1.0  0.94630  0.28714  0.53146  1.0000
  S   S902      1.0  0.95563  0.25704  0.31836  1.0000
  H   H2683     1.0  0.97889  0.23026  0.56649  1.0000
  Fe  Fe452     1.0  0.95703  0.24473  0.37015  1.0000
  C   C2685     1.0  0.97855  0.33805  0.38717  1.0000
  H   H2684     1.0  0.95837  0.27625  0.38189  1.0000
  H   H2685     1.0  0.87277  0.21081  0.31641  1.0000
  H   H2686     1.0  0.87506  0.23378  0.33320  1.0000
  C   C2686     1.0  0.80921  0.14972  0.32679  1.0000
  H   H2687     1.0  0.77788  0.17014  0.43749  1.0000
  H   H2688     1.0  0.79580  0.20702  0.47822  1.0000
  H   H2689     1.0  0.79233  0.13602  0.36069  1.0000
  C   C2687     1.0  0.77839  0.16875  0.32601  1.0000
  C   C2688     1.0  0.77192  0.19470  0.49030  1.0000
  H   H2690     1.0  0.91718  0.25196  0.39985  1.0000
  H   H2691     1.0  0.79831  0.20111  0.44737  1.0000
  C   C2689     1.0  0.88029  0.44312  0.60375  1.0000
  H   H2692     1.0  0.73581  0.07030  0.50829  1.0000
  H   H2693     1.0  0.96810  0.33040  0.39556  1.0000
  H   H2694     1.0  0.75979  0.14523  0.37558  1.0000
  H   H2695     1.0  0.73627  0.23509  0.49612  1.0000
  C   C2690     1.0  0.76644  0.05010  0.63290  1.0000
  H   H2696     1.0  0.95456  0.14256  0.61380  1.0000
  H   H2697     1.0  0.74729  0.25451  0.58876  1.0000
  H   H2698     1.0  0.74773  0.24476  0.61245  1.0000
  C   C2691     1.0  0.96888  0.14403  0.61070  1.0000
  S   S903      1.0  0.78182  0.12633  0.63197  1.0000
  C   C2692     1.0  0.73908  0.45177  0.63208  1.0000
  C   C2693     1.0  0.74015  0.31931  0.57658  1.0000
  H   H2699     1.0  0.74188  0.22240  0.43436  1.0000
  C   C2694     1.0  0.92463  0.45052  0.62218  1.0000
  C   C2695     1.0  0.97764  0.18147  0.63325  1.0000
  C   C2696     1.0  0.75307  0.32781  0.56295  1.0000
  C   C2697     1.0  0.97478  0.15836  0.59701  1.0000
  H   H2700     1.0  0.97284  0.45850  0.45133  1.0000
  S   S904      1.0  0.74246  0.10344  0.63323  1.0000
  C   C2698     1.0  0.92318  0.43219  0.62521  1.0000
  H   H2701     1.0  0.73739  0.04596  0.44123  1.0000
  H   H2702     1.0  0.97966  0.31428  0.36375  1.0000
  N   N228      1.0  0.73974  0.22823  0.59828  1.0000
  C   C2699     1.0  0.98131  0.13195  0.62087  1.0000
  S   S905      1.0  0.73622  0.27756  0.55529  1.0000
  C   C2700     1.0  0.98057  0.42885  0.48262  1.0000
  C   C2701     1.0  0.73904  0.07636  0.61758  1.0000
  C   C2702     1.0  0.97822  0.35536  0.39032  1.0000
  H   H2703     1.0  0.97049  0.97617  0.59216  1.0000
  H   H2704     1.0  0.98487  0.26645  0.49304  1.0000
  C   C2703     1.0  0.73546  0.06609  0.45724  1.0000
  C   C2704     1.0  0.73564  0.03401  0.47010  1.0000
  C   C2705     1.0  0.73567  0.21514  0.61363  1.0000
  H   H2705     1.0  0.73609  0.04643  0.51777  1.0000
  H   H2706     1.0  0.98493  0.29644  0.49962  1.0000
  H   H2707     1.0  0.88672  0.27203  0.30240  1.0000
  H   H2708     1.0  0.75037  0.14642  0.76410  1.0000
  Fe  Fe453     1.0  0.87140  0.32186  0.93205  1.0000
  Fe  Fe454     1.0  0.85985  0.19569  0.86953  1.0000
  S   S906      1.0  0.85022  0.22306  0.85240  1.0000
  S   S907      1.0  0.87805  0.17237  0.85649  1.0000
  Fe  Fe455     1.0  0.83726  0.20698  0.90524  1.0000
  S   S908      1.0  0.82533  0.23504  0.89083  1.0000
  S   S909      1.0  0.83321  0.20140  0.93618  1.0000
  Fe  Fe456     1.0  0.82226  0.22055  0.86996  1.0000
  S   S910      1.0  0.79787  0.22983  0.85585  1.0000
  Fe  Fe457     1.0  0.85418  0.23500  0.87474  1.0000
  S   S911      1.0  0.86839  0.25895  0.86903  1.0000
  S   S912      1.0  0.83152  0.19228  0.88589  1.0000
  S   S913      1.0  0.86643  0.20775  0.89025  1.0000
  H   H2709     1.0  0.86194  0.06069  0.69924  1.0000
  H   H2710     1.0  0.97666  0.31937  0.92370  1.0000
  C   C2706     1.0  0.75810  0.43102  0.78479  1.0000
  C   C2707     1.0  0.75639  0.44719  0.65638  1.0000
  C   C2708     1.0  0.74590  0.38412  0.83248  1.0000
  H   H2711     1.0  0.76444  0.44192  0.78567  1.0000
  H   H2712     1.0  0.75444  0.19585  0.95966  1.0000
  H   H2713     1.0  0.75444  0.22197  0.87060  1.0000
  S   S914      1.0  0.77304  0.16980  0.82910  1.0000
  H   H2714     1.0  0.94953  0.00303  0.66100  1.0000
  S   S915      1.0  0.93821  0.97421  0.64332  1.0000
  C   C2709     1.0  0.93748  0.15841  0.71967  1.0000
  H   H2715     1.0  0.74553  0.99262  0.64920  1.0000
  S   S916      1.0  0.89440  0.32926  0.90880  1.0000
  H   H2716     1.0  0.96948  0.11315  0.71904  1.0000
  Fe  Fe458     1.0  0.87958  0.35830  0.90878  1.0000
  S   S917      1.0  0.87697  0.37619  0.88117  1.0000
  S   S918      1.0  0.93800  0.32256  0.92726  1.0000
  Fe  Fe459     1.0  0.76727  0.41145  0.84350  1.0000
  S   S919      1.0  0.79481  0.41949  0.83718  1.0000
  S   S920      1.0  0.76646  0.38373  0.83914  1.0000
  H   H2717     1.0  0.91520  0.02121  0.70936  1.0000
  H   H2718     1.0  0.88067  0.26428  0.94950  1.0000
  Fe  Fe460     1.0  0.78051  0.44635  0.82281  1.0000
  Fe  Fe461     1.0  0.78430  0.43172  0.86239  1.0000
  S   S921      1.0  0.79935  0.42989  0.88461  1.0000
  S   S922      1.0  0.75362  0.43751  0.82732  1.0000
  C   C2710     1.0  0.86008  0.10265  0.65352  1.0000
  S   S923      1.0  0.76988  0.17629  0.63734  1.0000
  S   S924      1.0  0.96360  0.17403  0.83215  1.0000
  Fe  Fe462     1.0  0.76617  0.11716  0.68440  1.0000
  S   S925      1.0  0.78901  0.13234  0.67003  1.0000
  S   S926      1.0  0.75858  0.11264  0.71528  1.0000
  H   H2719     1.0  0.83610  0.14392  0.85106  1.0000
  H   H2720     1.0  0.85128  0.14066  0.68971  1.0000
  H   H2721     1.0  0.93093  0.04745  0.70266  1.0000
  S   S927      1.0  0.77720  0.09395  0.66892  1.0000
  S   S928      1.0  0.74664  0.13339  0.66588  1.0000
  Fe  Fe463     1.0  0.94206  0.08428  0.68381  1.0000
  S   S929      1.0  0.92162  0.08278  0.71054  1.0000
  S   S930      1.0  0.95901  0.05988  0.67185  1.0000
  S   S931      1.0  0.91211  0.12776  0.70078  1.0000
  Fe  Fe464     1.0  0.93263  0.10579  0.71435  1.0000
  S   S932      1.0  0.93440  0.10685  0.74292  1.0000
  Fe  Fe465     1.0  0.90287  0.10473  0.69477  1.0000
  H   H2722     1.0  0.74954  0.26906  0.78263  1.0000
  C   C2711     1.0  0.95427  0.02766  0.66629  1.0000
  C   C2712     1.0  0.94881  0.04047  0.67779  1.0000
  C   C2713     1.0  0.74598  0.23182  0.86168  1.0000
  C   C2714     1.0  0.84145  0.10116  0.65898  1.0000
  C   C2715     1.0  0.76203  0.06790  0.63651  1.0000
  N   N229      1.0  0.76732  0.41315  0.78753  1.0000
  C   C2716     1.0  0.86122  0.10208  0.68503  1.0000
  C   C2717     1.0  0.84269  0.10033  0.69047  1.0000
  C   C2718     1.0  0.83278  0.10004  0.67747  1.0000
  H   H2723     1.0  0.83589  0.09930  0.70479  1.0000
  H   H2724     1.0  0.81846  0.09872  0.68183  1.0000
  C   C2719     1.0  0.95274  0.11502  0.74592  1.0000
  H   H2725     1.0  0.96473  0.12987  0.77872  1.0000
  N   N230      1.0  0.97133  0.16824  0.71504  1.0000
  C   C2720     1.0  0.96608  0.12585  0.76589  1.0000
  H   H2726     1.0  0.74117  0.27637  0.83908  1.0000
  C   C2721     1.0  0.82123  0.41550  0.88323  1.0000
  C   C2722     1.0  0.82877  0.40892  0.89906  1.0000
  C   C2723     1.0  0.84592  0.39684  0.89849  1.0000
  C   C2724     1.0  0.85573  0.39160  0.88198  1.0000
  C   C2725     1.0  0.84838  0.39845  0.86605  1.0000
  C   C2726     1.0  0.83105  0.41026  0.86671  1.0000
  H   H2727     1.0  0.82122  0.41297  0.91187  1.0000
  H   H2728     1.0  0.85596  0.39438  0.85327  1.0000
  H   H2729     1.0  0.82540  0.41537  0.85443  1.0000
  H   H2730     1.0  0.75968  0.25374  0.86040  1.0000
  C   C2727     1.0  0.86479  0.22834  0.94486  1.0000
  H   H2731     1.0  0.96453  0.16762  0.74390  1.0000
  H   H2732     1.0  0.88411  0.10497  0.66214  1.0000
  C   C2728     1.0  0.96569  0.07405  0.76866  1.0000
  H   H2733     1.0  0.88064  0.02629  0.68393  1.0000
  H   H2734     1.0  0.94448  0.36536  0.96246  1.0000
  C   C2729     1.0  0.95199  0.07429  0.78458  1.0000
  Fe  Fe466     1.0  0.75002  0.17866  0.81326  1.0000
  H   H2735     1.0  0.95719  0.40639  0.88106  1.0000
  C   C2730     1.0  0.95027  0.33354  0.93634  1.0000
  C   C2731     1.0  0.94117  0.34650  0.94731  1.0000
  C   C2732     1.0  0.95147  0.35529  0.95405  1.0000
  C   C2733     1.0  0.77442  0.21330  0.95297  1.0000
  N   N231      1.0  0.74345  0.31651  0.72290  1.0000
  H   H2736     1.0  0.88063  0.06140  0.70933  1.0000
  C   C2734     1.0  0.75087  0.16457  0.73768  1.0000
  H   H2737     1.0  0.73699  0.28973  0.72790  1.0000
  C   C2735     1.0  0.75355  0.13156  0.74267  1.0000
  C   C2736     1.0  0.75535  0.13271  0.72379  1.0000
  C   C2737     1.0  0.75489  0.14982  0.71187  1.0000
  C   C2738     1.0  0.87941  0.25325  0.94362  1.0000
  C   C2739     1.0  0.93128  0.01042  0.68561  1.0000
  S   S933      1.0  0.91870  0.99305  0.68945  1.0000
  C   C2740     1.0  0.94559  0.01259  0.67022  1.0000
  C   C2741     1.0  0.89379  0.43893  0.64568  1.0000
  S   S934      1.0  0.80645  0.42414  0.64422  1.0000
  C   C2742     1.0  0.87578  0.05330  0.70194  1.0000
  C   C2743     1.0  0.93495  0.03790  0.69351  1.0000
  N   N232      1.0  0.88777  0.23740  0.91845  1.0000
  Fe  Fe467     1.0  0.93353  0.12578  0.67492  1.0000
  C   C2744     1.0  0.90180  0.17293  0.84975  1.0000
  C   C2745     1.0  0.91415  0.15844  0.84239  1.0000
  C   C2746     1.0  0.93315  0.15861  0.83693  1.0000
  C   C2747     1.0  0.93987  0.17331  0.83878  1.0000
  C   C2748     1.0  0.92749  0.18783  0.84608  1.0000
  C   C2749     1.0  0.90851  0.18766  0.85154  1.0000
  H   H2738     1.0  0.90904  0.14700  0.84100  1.0000
  H   H2739     1.0  0.94258  0.14735  0.83138  1.0000
  H   H2740     1.0  0.93260  0.19925  0.84750  1.0000
  H   H2741     1.0  0.89909  0.19894  0.85708  1.0000
  C   C2750     1.0  0.86401  0.27087  0.88700  1.0000
  C   C2751     1.0  0.85125  0.26653  0.90323  1.0000
  C   C2752     1.0  0.84846  0.27580  0.91765  1.0000
  C   C2753     1.0  0.85865  0.28922  0.91606  1.0000
  C   C2754     1.0  0.87136  0.29362  0.89980  1.0000
  C   C2755     1.0  0.87395  0.28454  0.88527  1.0000
  H   H2742     1.0  0.84364  0.25591  0.90479  1.0000
  H   H2743     1.0  0.87936  0.30383  0.89844  1.0000
  H   H2744     1.0  0.88390  0.28789  0.87276  1.0000
  C   C2756     1.0  0.79131  0.21302  0.84829  1.0000
  C   C2757     1.0  0.78163  0.21832  0.83389  1.0000
  C   C2758     1.0  0.77548  0.20523  0.82821  1.0000
  C   C2759     1.0  0.77922  0.18674  0.83679  1.0000
  C   C2760     1.0  0.78888  0.18146  0.85117  1.0000
  C   C2761     1.0  0.79491  0.19456  0.85694  1.0000
  H   H2745     1.0  0.77886  0.23259  0.82712  1.0000
  H   H2746     1.0  0.76816  0.20938  0.81700  1.0000
  H   H2747     1.0  0.79176  0.16716  0.85786  1.0000
  H   H2748     1.0  0.80212  0.19039  0.86820  1.0000
  Fe  Fe468     1.0  0.73934  0.18379  0.77639  1.0000
  H   H2749     1.0  0.81396  0.47227  0.83806  1.0000
  H   H2750     1.0  0.83864  0.27229  0.93021  1.0000
  C   C2762     1.0  0.81887  0.18593  0.94896  1.0000
  C   C2763     1.0  0.80857  0.17903  0.94048  1.0000
  H   H2751     1.0  0.81011  0.18236  0.92570  1.0000
  H   H2752     1.0  0.90794  0.39618  0.87110  1.0000
  C   C2764     1.0  0.74269  0.33146  0.72996  1.0000
  S   S935      1.0  0.79513  0.45661  0.79409  1.0000
  H   H2753     1.0  0.74991  0.30517  0.69872  1.0000
  C   C2765     1.0  0.82477  0.15366  0.67035  1.0000
  C   C2766     1.0  0.96848  0.11671  0.73208  1.0000
  Fe  Fe469     1.0  0.87166  0.35266  0.95032  1.0000
  H   H2754     1.0  0.85807  0.24428  0.96602  1.0000
  H   H2755     1.0  0.89944  0.25978  0.91905  1.0000
  H   H2756     1.0  0.75824  0.45249  0.90943  1.0000
  C   C2767     1.0  0.79581  0.16820  0.95124  1.0000
  S   S936      1.0  0.97856  0.12826  0.80922  1.0000
  C   C2768     1.0  0.80494  0.14958  0.70121  1.0000
  C   C2769     1.0  0.96918  0.37260  0.89856  1.0000
  H   H2757     1.0  0.94489  0.15843  0.69063  1.0000
  H   H2758     1.0  0.78777  0.39552  0.80177  1.0000
  H   H2759     1.0  0.93839  0.07229  0.78460  1.0000
  H   H2760     1.0  0.90250  0.24799  0.89181  1.0000
  H   H2761     1.0  0.74625  0.35958  0.72397  1.0000
  S   S937      1.0  0.88573  0.32298  0.95394  1.0000
  S   S938      1.0  0.77231  0.45948  0.84757  1.0000
  C   C2770     1.0  0.92518  0.37307  0.88508  1.0000
  C   C2771     1.0  0.98305  0.12293  0.73521  1.0000
  C   C2772     1.0  0.74707  0.46419  0.90555  1.0000
  C   C2773     1.0  0.81797  0.13695  0.72837  1.0000
  C   C2774     1.0  0.75466  0.33265  0.69250  1.0000
  S   S939      1.0  0.75804  0.42102  0.87025  1.0000
  H   H2762     1.0  0.79546  0.22845  0.95073  1.0000
  C   C2775     1.0  0.80253  0.14384  0.72031  1.0000
  H   H2763     1.0  0.82829  0.45121  0.84736  1.0000
  H   H2764     1.0  0.75683  0.36061  0.69033  1.0000
  H   H2765     1.0  0.85489  0.21955  0.95180  1.0000
  H   H2766     1.0  0.89919  0.07485  0.68189  1.0000
  H   H2767     1.0  0.74809  0.29352  0.74446  1.0000
  C   C2776     1.0  0.92615  0.02295  0.69736  1.0000
  S   S940      1.0  0.84164  0.45225  0.64838  1.0000
  C   C2777     1.0  0.73877  0.26244  0.84389  1.0000
  H   H2768     1.0  0.75414  0.11830  0.75188  1.0000
  C   C2778     1.0  0.75957  0.39950  0.78589  1.0000
  C   C2779     1.0  0.96602  0.16560  0.70026  1.0000
  Fe  Fe470     1.0  0.77052  0.14663  0.65023  1.0000
  C   C2780     1.0  0.83751  0.14192  0.69824  1.0000
  H   H2769     1.0  0.92453  0.15401  0.72161  1.0000
  C   C2781     1.0  0.91171  0.06145  0.65906  1.0000
  H   H2770     1.0  0.94512  0.07810  0.81262  1.0000
  H   H2771     1.0  0.93425  0.15915  0.74824  1.0000
  C   C2782     1.0  0.78530  0.22093  0.96002  1.0000
  S   S941      1.0  0.92242  0.10461  0.66760  1.0000
  H   H2772     1.0  0.92625  0.34962  0.95067  1.0000
  H   H2773     1.0  0.96485  0.02969  0.65400  1.0000
  N   N233      1.0  0.82230  0.14858  0.69043  1.0000
  S   S942      1.0  0.82889  0.10122  0.64265  1.0000
  C   C2783     1.0  0.97082  0.35136  0.94954  1.0000
  C   C2784     1.0  0.74759  0.34751  0.71840  1.0000
  Fe  Fe471     1.0  0.90742  0.33311  0.93037  1.0000
  N   N234      1.0  0.75070  0.45776  0.63928  1.0000
  H   H2774     1.0  0.98424  0.97433  0.71868  1.0000
  C   C2785     1.0  0.95161  0.11954  0.76282  1.0000
  H   H2775     1.0  0.93941  0.11832  0.77354  1.0000
  S   S943      1.0  0.85590  0.29940  0.93501  1.0000
  C   C2786     1.0  0.75136  0.14745  0.74961  1.0000
  S   S944      1.0  0.95496  0.10549  0.68890  1.0000
  C   C2787     1.0  0.86993  0.46092  0.80067  1.0000
  C   C2788     1.0  0.83559  0.13600  0.71730  1.0000
  C   C2789     1.0  0.88993  0.25069  0.92634  1.0000
  H   H2776     1.0  0.79281  0.15470  0.69512  1.0000
  H   H2777     1.0  0.96602  0.37553  0.91263  1.0000
  S   S945      1.0  0.74497  0.15909  0.79846  1.0000
  H   H2778     1.0  0.75233  0.17891  0.70953  1.0000
  H   H2779     1.0  0.75584  0.35831  0.82346  1.0000
  H   H2780     1.0  0.96267  0.07206  0.75626  1.0000
  C   C2790     1.0  0.95843  0.15921  0.65006  1.0000
  C   C2791     1.0  0.98292  0.07742  0.76853  1.0000
  H   H2781     1.0  0.81624  0.13221  0.74315  1.0000
  C   C2792     1.0  0.86990  0.10335  0.66651  1.0000
  C   C2793     1.0  0.74453  0.36995  0.82462  1.0000
  N   N235      1.0  0.84161  0.46660  0.82272  1.0000
  Fe  Fe472     1.0  0.75953  0.11152  0.64904  1.0000
  N   N236      1.0  0.83601  0.17060  0.83375  1.0000
  C   C2794     1.0  0.82622  0.16741  0.82254  1.0000
  C   C2795     1.0  0.83939  0.18775  0.83181  1.0000
  C   C2796     1.0  0.81911  0.18174  0.80931  1.0000
  C   C2797     1.0  0.83236  0.20242  0.81886  1.0000
  C   C2798     1.0  0.82210  0.19937  0.80758  1.0000
  C   C2799     1.0  0.84341  0.15556  0.84760  1.0000
  H   H2782     1.0  0.82328  0.15390  0.82416  1.0000
  H   H2783     1.0  0.84730  0.19021  0.84056  1.0000
  H   H2784     1.0  0.81062  0.17931  0.80105  1.0000
  H   H2785     1.0  0.83449  0.21612  0.81794  1.0000
  H   H2786     1.0  0.81609  0.21073  0.79786  1.0000
  H   H2787     1.0  0.84186  0.16034  0.86057  1.0000
  H   H2788     1.0  0.85838  0.15062  0.84253  1.0000
  N   N237      1.0  0.88856  0.05092  0.68451  1.0000
  C   C2800     1.0  0.88906  0.03644  0.67685  1.0000
  C   C2801     1.0  0.89952  0.06346  0.67575  1.0000
  H   H2789     1.0  0.82748  0.46812  0.77015  1.0000
  H   H2790     1.0  0.97879  0.98405  0.84886  1.0000
  H   H2791     1.0  0.91625  0.36359  0.88632  1.0000
  H   H2792     1.0  0.81209  0.16256  0.66596  1.0000
  C   C2802     1.0  0.95571  0.07769  0.80021  1.0000
  C   C2803     1.0  0.89903  0.23483  0.90039  1.0000
  C   C2804     1.0  0.73795  0.30002  0.73539  1.0000
  H   H2793     1.0  0.79642  0.40733  0.77870  1.0000
  S   S946      1.0  0.87280  0.10285  0.70187  1.0000
  H   H2794     1.0  0.73675  0.24062  0.79310  1.0000
  C   C2805     1.0  0.75271  0.16570  0.71881  1.0000
  S   S947      1.0  0.98368  0.36291  0.95728  1.0000
  N   N238      1.0  0.82712  0.35062  0.88559  1.0000
  C   C2806     1.0  0.81907  0.36564  0.89339  1.0000
  C   C2807     1.0  0.81933  0.34653  0.87321  1.0000
  C   C2808     1.0  0.80294  0.37721  0.88864  1.0000
  C   C2809     1.0  0.80322  0.35784  0.86812  1.0000
  C   C2810     1.0  0.79503  0.37327  0.87589  1.0000
  C   C2811     1.0  0.84391  0.33868  0.89101  1.0000
  H   H2795     1.0  0.82517  0.36879  0.90330  1.0000
  H   H2796     1.0  0.82553  0.33447  0.86720  1.0000
  H   H2797     1.0  0.79668  0.38921  0.89475  1.0000
  H   H2798     1.0  0.79703  0.35471  0.85823  1.0000
  H   H2799     1.0  0.78252  0.38209  0.87205  1.0000
  H   H2800     1.0  0.85035  0.32838  0.88214  1.0000
  H   H2801     1.0  0.85437  0.34697  0.88986  1.0000
  H   H2802     1.0  0.84063  0.33115  0.90546  1.0000
  S   S948      1.0  0.93754  0.15172  0.65415  1.0000
  Fe  Fe473     1.0  0.98343  0.15108  0.81978  1.0000
  H   H2803     1.0  0.73801  0.33111  0.74460  1.0000
  H   H2804     1.0  0.78878  0.14455  0.72879  1.0000
  C   C2812     1.0  0.86664  0.24210  0.95283  1.0000
  S   S949      1.0  0.85541  0.35076  0.93040  1.0000
  H   H2805     1.0  0.81911  0.45305  0.82722  1.0000
  C   C2813     1.0  0.87566  0.22605  0.92764  1.0000
  H   H2806     1.0  0.97442  0.35762  0.89941  1.0000
  H   H2807     1.0  0.75868  0.33318  0.67777  1.0000
  H   H2808     1.0  0.78755  0.16322  0.94468  1.0000
  C   C2814     1.0  0.96959  0.32948  0.93207  1.0000
  H   H2809     1.0  0.75611  0.15084  0.69730  1.0000
  C   C2815     1.0  0.92054  0.39139  0.87651  1.0000
  H   H2810     1.0  0.84774  0.13028  0.72332  1.0000
  H   H2811     1.0  0.89136  0.23007  0.89251  1.0000
  C   C2816     1.0  0.74016  0.43544  0.78145  1.0000
  H   H2812     1.0  0.78836  0.41932  0.79758  1.0000
  C   C2817     1.0  0.82498  0.46046  0.83443  1.0000
  S   S950      1.0  0.89455  0.36297  0.92836  1.0000
  S   S951      1.0  0.74831  0.18472  0.74586  1.0000
  C   C2818     1.0  0.74947  0.31689  0.70444  1.0000
  C   C2819     1.0  0.91253  0.04657  0.65130  1.0000
  Fe  Fe474     1.0  0.74662  0.44797  0.85357  1.0000
  C   C2820     1.0  0.90109  0.03401  0.66018  1.0000
  H   H2813     1.0  0.85058  0.44280  0.81073  1.0000
  H   H2814     1.0  0.90206  0.02201  0.65463  1.0000
  H   H2815     1.0  0.92091  0.07101  0.65253  1.0000
  S   S952      1.0  0.74715  0.20284  0.78992  1.0000
  C   C2821     1.0  0.93212  0.40346  0.87502  1.0000
  N   N239      1.0  0.89549  0.45682  0.64290  1.0000
  C   C2822     1.0  0.85363  0.45565  0.81147  1.0000
  C   C2823     1.0  0.75357  0.34808  0.69955  1.0000
  Fe  Fe475     1.0  0.79851  0.11072  0.65300  1.0000
  H   H2816     1.0  0.85160  0.39172  0.91080  1.0000
  H   H2817     1.0  0.91193  0.22459  0.90202  1.0000
  H   H2818     1.0  0.87461  0.03980  0.71124  1.0000
  H   H2819     1.0  0.92865  0.41774  0.86837  1.0000
  C   C2824     1.0  0.78591  0.40860  0.79152  1.0000
  N   N240      1.0  0.95263  0.37894  0.89056  1.0000
  C   C2825     1.0  0.94130  0.36707  0.89219  1.0000
  C   C2826     1.0  0.94820  0.39697  0.88222  1.0000
  H   H2820     1.0  0.77070  0.44821  0.65630  1.0000
  H   H2821     1.0  0.97501  0.16714  0.68680  1.0000
  H   H2822     1.0  0.74005  0.19964  0.85000  1.0000
  H   H2823     1.0  0.87414  0.21525  0.92167  1.0000
  H   H2824     1.0  0.78555  0.39715  0.64601  1.0000
  H   H2825     1.0  0.94470  0.35284  0.89898  1.0000
  H   H2826     1.0  0.73524  0.45882  0.90436  1.0000
  C   C2827     1.0  0.94291  0.16134  0.73461  1.0000
  H   H2827     1.0  0.77606  0.21494  0.93822  1.0000
  C   C2828     1.0  0.97298  0.14873  0.65846  1.0000
  C   C2829     1.0  0.74902  0.24982  0.85594  1.0000
  H   H2828     1.0  0.97136  0.13602  0.66804  1.0000
  H   H2829     1.0  0.75664  0.43233  0.65797  1.0000
  C   C2830     1.0  0.96002  0.16619  0.73205  1.0000
  C   C2831     1.0  0.98185  0.12754  0.75214  1.0000
  C   C2832     1.0  0.94901  0.16069  0.70233  1.0000
  S   S953      1.0  0.79765  0.47158  0.65680  1.0000
  H   H2830     1.0  0.74686  0.45234  0.66834  1.0000
  H   H2831     1.0  0.90610  0.41227  0.63880  1.0000
  H   H2832     1.0  0.87937  0.45233  0.79161  1.0000
  H   H2833     1.0  0.88159  0.43433  0.65449  1.0000
  H   H2834     1.0  0.98049  0.37962  0.88999  1.0000
  H   H2835     1.0  0.74192  0.02228  0.65984  1.0000
  H   H2836     1.0  0.82811  0.14105  0.66451  1.0000
  C   C2833     1.0  0.97316  0.08084  0.79965  1.0000
  H   H2837     1.0  0.75245  0.47182  0.89166  1.0000
  C   C2834     1.0  0.76225  0.20267  0.96498  1.0000
  C   C2835     1.0  0.90764  0.42634  0.63695  1.0000
  H   H2838     1.0  0.83619  0.16133  0.66442  1.0000
  H   H2839     1.0  0.76920  0.07141  0.64527  1.0000
  H   H2840     1.0  0.97585  0.08372  0.81178  1.0000
  H   H2841     1.0  0.87165  0.46301  0.66391  1.0000
  H   H2842     1.0  0.97978  0.00507  0.69788  1.0000
  H   H2843     1.0  0.76687  0.38533  0.78803  1.0000
  C   C2836     1.0  0.97984  0.33850  0.93850  1.0000
  C   C2837     1.0  0.88085  0.46998  0.65196  1.0000
  C   C2838     1.0  0.78304  0.40808  0.63437  1.0000
  H   H2844     1.0  0.86679  0.10364  0.63919  1.0000
  C   C2839     1.0  0.96075  0.17564  0.63757  1.0000
  H   H2845     1.0  0.92238  0.04449  0.63870  1.0000
  Fe  Fe476     1.0  0.81561  0.45092  0.64041  1.0000
  C   C2840     1.0  0.74186  0.40351  0.78206  1.0000
  H   H2846     1.0  0.77699  0.03992  0.63896  1.0000
  H   H2847     1.0  0.73554  0.39261  0.78119  1.0000
  H   H2848     1.0  0.74607  0.63996  0.27431  1.0000
  H   H2849     1.0  0.77227  0.68340  0.99431  1.0000
  C   C2841     1.0  0.74584  0.70186  0.12909  1.0000
  S   S954      1.0  0.75096  0.67701  0.25613  1.0000
  H   H2850     1.0  0.88315  0.62464  0.18199  1.0000
  S   S955      1.0  0.84548  0.96208  0.12136  1.0000
  C   C2842     1.0  0.98405  0.74970  0.06554  1.0000
  S   S956      1.0  0.82527  0.93144  0.28813  1.0000
  H   H2851     1.0  0.95261  0.82845  0.05737  1.0000
  H   H2852     1.0  0.89911  0.52619  0.17656  1.0000
  C   C2843     1.0  0.97284  0.60993  0.26980  1.0000
  C   C2844     1.0  0.76074  0.65690  0.22897  1.0000
  C   C2845     1.0  0.79598  0.68859  0.28622  1.0000
  H   H2853     1.0  0.74587  0.94952  0.29513  1.0000
  S   S957      1.0  0.79529  0.61740  0.18013  1.0000
  Fe  Fe477     1.0  0.80192  0.59358  0.16609  1.0000
  S   S958      1.0  0.83145  0.57853  0.16002  1.0000
  Fe  Fe478     1.0  0.77045  0.71598  0.05137  1.0000
  S   S959      1.0  0.78961  0.72052  0.02400  1.0000
  Fe  Fe479     1.0  0.73631  0.67656  0.28566  1.0000
  Fe  Fe480     1.0  0.75946  0.75680  0.05241  1.0000
  S   S960      1.0  0.77785  0.76496  0.02513  1.0000
  H   H2854     1.0  0.80979  0.91040  0.27024  1.0000
  Fe  Fe481     1.0  0.76714  0.74423  0.01634  1.0000
  Fe  Fe482     1.0  0.79866  0.74053  0.03515  1.0000
  S   S961      1.0  0.82868  0.73822  0.03495  1.0000
  C   C2846     1.0  0.97127  0.90437  0.98556  1.0000
  S   S962      1.0  0.78113  0.73416  0.06321  1.0000
  H   H2855     1.0  0.90323  0.62444  0.15258  1.0000
  S   S963      1.0  0.91269  0.82327  0.98327  1.0000
  Fe  Fe483     1.0  0.93629  0.80063  0.97587  1.0000
  Fe  Fe484     1.0  0.93104  0.77827  0.01459  1.0000
  S   S964      1.0  0.90654  0.79870  0.02513  1.0000
  S   S965      1.0  0.94047  0.75177  0.03336  1.0000
  Fe  Fe485     1.0  0.89768  0.80070  0.99886  1.0000
  S   S966      1.0  0.86863  0.80443  0.99493  1.0000
  Fe  Fe486     1.0  0.92367  0.81946  0.00870  1.0000
  S   S967      1.0  0.92172  0.84352  0.02142  1.0000
  S   S968      1.0  0.92047  0.77819  0.98977  1.0000
  S   S969      1.0  0.94895  0.79886  0.99992  1.0000
  Fe  Fe487     1.0  0.94741  0.56638  0.18615  1.0000
  S   S970      1.0  0.92497  0.58683  0.17399  1.0000
  S   S971      1.0  0.96425  0.54359  0.17178  1.0000
  Fe  Fe488     1.0  0.94321  0.58639  0.21694  1.0000
  S   S972      1.0  0.92052  0.60880  0.20729  1.0000
  S   S973      1.0  0.95189  0.58243  0.24389  1.0000
  Fe  Fe489     1.0  0.90947  0.58600  0.20301  1.0000
  S   S974      1.0  0.87901  0.58659  0.21310  1.0000
  Fe  Fe490     1.0  0.93791  0.60783  0.17907  1.0000
  S   S975      1.0  0.94004  0.63206  0.15568  1.0000
  S   S976      1.0  0.93073  0.56351  0.21490  1.0000
  S   S977      1.0  0.96176  0.58747  0.18900  1.0000
  C   C2847     1.0  0.94035  0.86235  0.03379  1.0000
  C   C2848     1.0  0.95938  0.83797  0.01860  1.0000
  H   H2856     1.0  0.85726  0.95574  0.29971  1.0000
  H   H2857     1.0  0.95989  0.48586  0.15861  1.0000
  H   H2858     1.0  0.85197  0.95022  0.26175  1.0000
  Fe  Fe491     1.0  0.82030  0.96171  0.11149  1.0000
  S   S978      1.0  0.81593  0.93415  0.10997  1.0000
  C   C2849     1.0  0.83851  0.63225  0.17793  1.0000
  H   H2859     1.0  0.87015  0.52572  0.16785  1.0000
  C   C2850     1.0  0.73653  0.90770  0.14436  1.0000
  S   S979      1.0  0.78799  0.60891  0.14264  1.0000
  H   H2860     1.0  0.92802  0.64118  0.25352  1.0000
  C   C2851     1.0  0.82573  0.95498  0.28034  1.0000
  H   H2861     1.0  0.73769  0.55230  0.06698  1.0000
  C   C2852     1.0  0.73841  0.72577  0.09699  1.0000
  H   H2862     1.0  0.75040  0.61187  0.26218  1.0000
  S   S980      1.0  0.74141  0.59189  0.14895  1.0000
  C   C2853     1.0  0.76547  0.56460  0.08810  1.0000
  H   H2863     1.0  0.92418  0.65484  0.29385  1.0000
  C   C2854     1.0  0.91907  0.60233  0.29558  1.0000
  H   H2864     1.0  0.97359  0.64073  0.22932  1.0000
  C   C2855     1.0  0.75085  0.55069  0.07153  1.0000
  H   H2865     1.0  0.96633  0.76893  0.09941  1.0000
  H   H2866     1.0  0.97897  0.82203  0.07270  1.0000
  S   S981      1.0  0.98335  0.64331  0.26234  1.0000
  C   C2856     1.0  0.94195  0.84838  0.02438  1.0000
  H   H2867     1.0  0.91273  0.58893  0.27690  1.0000
  H   H2868     1.0  0.97292  0.73142  0.00888  1.0000
  C   C2857     1.0  0.92474  0.61777  0.29715  1.0000
  H   H2869     1.0  0.74173  0.92247  0.28016  1.0000
  C   C2858     1.0  0.75056  0.59281  0.09865  1.0000
  H   H2870     1.0  0.86169  0.62377  0.13606  1.0000
  H   H2871     1.0  0.85834  0.97096  0.05684  1.0000
  C   C2859     1.0  0.93462  0.64704  0.28413  1.0000
  H   H2872     1.0  0.92686  0.87028  0.03847  1.0000
  C   C2860     1.0  0.75449  0.65668  0.24785  1.0000
  S   S982      1.0  0.75719  0.51852  0.11890  1.0000
  C   C2861     1.0  0.73724  0.80590  0.08429  1.0000
  H   H2873     1.0  0.91775  0.61428  0.25012  1.0000
  C   C2862     1.0  0.84089  0.96044  0.26732  1.0000
  H   H2874     1.0  0.76357  0.66948  0.21966  1.0000
  C   C2863     1.0  0.74787  0.73070  0.10788  1.0000
  C   C2864     1.0  0.79413  0.93393  0.10622  1.0000
  C   C2865     1.0  0.78068  0.95001  0.10440  1.0000
  C   C2866     1.0  0.76340  0.94952  0.10139  1.0000
  C   C2867     1.0  0.75945  0.93300  0.10018  1.0000
  C   C2868     1.0  0.77293  0.91692  0.10195  1.0000
  C   C2869     1.0  0.79021  0.91738  0.10501  1.0000
  H   H2875     1.0  0.78359  0.96284  0.10525  1.0000
  H   H2876     1.0  0.75306  0.96202  0.09998  1.0000
  H   H2877     1.0  0.77016  0.90417  0.10076  1.0000
  H   H2878     1.0  0.80061  0.90493  0.10628  1.0000
  C   C2870     1.0  0.95704  0.64421  0.15479  1.0000
  C   C2871     1.0  0.96197  0.65715  0.13892  1.0000
  C   C2872     1.0  0.74698  0.73405  0.98610  1.0000
  H   H2879     1.0  0.86651  0.95789  0.03870  1.0000
  H   H2880     1.0  0.78205  0.68745  0.26535  1.0000
  C   C2873     1.0  0.97038  0.81188  0.07540  1.0000
  H   H2881     1.0  0.78123  0.70167  0.99711  1.0000
  H   H2882     1.0  0.79146  0.94087  0.27473  1.0000
  C   C2874     1.0  0.78017  0.66653  0.12193  1.0000
  H   H2883     1.0  0.96188  0.77858  0.03270  1.0000
  H   H2884     1.0  0.79696  0.68255  0.98822  1.0000
  H   H2885     1.0  0.98001  0.67614  0.12513  1.0000
  H   H2886     1.0  0.97849  0.72296  0.07919  1.0000
  C   C2875     1.0  0.75452  0.95132  0.28101  1.0000
  C   C2876     1.0  0.76673  0.90259  0.27496  1.0000
  H   H2887     1.0  0.85513  0.91735  0.10191  1.0000
  H   H2888     1.0  0.77902  0.53316  0.13492  1.0000
  H   H2889     1.0  0.75771  0.65640  0.09366  1.0000
  H   H2890     1.0  0.77849  0.65543  0.27823  1.0000
  C   C2877     1.0  0.89754  0.91852  0.07431  1.0000
  C   C2878     1.0  0.76244  0.55849  0.14215  1.0000
  C   C2879     1.0  0.84007  0.75601  0.02215  1.0000
  C   C2880     1.0  0.85840  0.75480  0.02326  1.0000
  C   C2881     1.0  0.86746  0.76945  0.01449  1.0000
  C   C2882     1.0  0.85818  0.78534  0.00455  1.0000
  C   C2883     1.0  0.84001  0.78639  0.00300  1.0000
  C   C2884     1.0  0.83093  0.77174  0.01183  1.0000
  H   H2891     1.0  0.86550  0.74264  0.03126  1.0000
  H   H2892     1.0  0.88147  0.76858  0.01578  1.0000
  H   H2893     1.0  0.83283  0.79868  0.99527  1.0000
  H   H2894     1.0  0.81682  0.77272  0.01085  1.0000
  C   C2885     1.0  0.84469  0.58117  0.17452  1.0000
  C   C2886     1.0  0.83619  0.58551  0.19172  1.0000
  C   C2887     1.0  0.84690  0.58717  0.20340  1.0000
  C   C2888     1.0  0.86614  0.58458  0.19793  1.0000
  C   C2889     1.0  0.87469  0.58014  0.18076  1.0000
  C   C2890     1.0  0.86396  0.57834  0.16911  1.0000
  H   H2895     1.0  0.82137  0.58721  0.19621  1.0000
  H   H2896     1.0  0.84023  0.59044  0.21675  1.0000
  H   H2897     1.0  0.88954  0.57772  0.17662  1.0000
  H   H2898     1.0  0.87059  0.57474  0.15590  1.0000
  H   H2899     1.0  0.88266  0.95563  0.10717  1.0000
  C   C2891     1.0  0.77201  0.67894  0.08664  1.0000
  C   C2892     1.0  0.78278  0.68778  0.09251  1.0000
  C   C2893     1.0  0.78676  0.68168  0.11016  1.0000
  H   H2900     1.0  0.78810  0.69930  0.08350  1.0000
  H   H2901     1.0  0.79478  0.68883  0.11476  1.0000
  C   C2894     1.0  0.94859  0.78608  0.08117  1.0000
  C   C2895     1.0  0.88401  0.91228  0.08892  1.0000
  S   S983      1.0  0.74617  0.87811  0.10455  1.0000
  C   C2896     1.0  0.93875  0.49326  0.18152  1.0000
  C   C2897     1.0  0.95394  0.49589  0.16725  1.0000
  C   C2898     1.0  0.96143  0.51164  0.16403  1.0000
  C   C2899     1.0  0.95367  0.52485  0.17500  1.0000
  C   C2900     1.0  0.93827  0.52238  0.18908  1.0000
  C   C2901     1.0  0.93088  0.50655  0.19239  1.0000
  C   C2902     1.0  0.98381  0.72584  0.01670  1.0000
  H   H2902     1.0  0.93239  0.53243  0.19770  1.0000
  H   H2903     1.0  0.91926  0.50441  0.20357  1.0000
  H   H2904     1.0  0.90931  0.93013  0.11084  1.0000
  S   S984      1.0  0.78346  0.66051  0.14464  1.0000
  S   S985      1.0  0.73740  0.93294  0.09685  1.0000
  C   C2903     1.0  0.96179  0.59900  0.24811  1.0000
  C   C2904     1.0  0.96454  0.61496  0.23505  1.0000
  H   H2905     1.0  0.87968  0.96545  0.13584  1.0000
  H   H2906     1.0  0.90338  0.93964  0.05066  1.0000
  H   H2907     1.0  0.94749  0.64184  0.28957  1.0000
  C   C2905     1.0  0.96605  0.59649  0.26542  1.0000
  H   H2908     1.0  0.96125  0.61701  0.22167  1.0000
  H   H2909     1.0  0.75962  0.79820  0.04176  1.0000
  C   C2906     1.0  0.75094  0.64035  0.25979  1.0000
  H   H2910     1.0  0.96397  0.58415  0.27554  1.0000
  C   C2907     1.0  0.96312  0.78221  0.09050  1.0000
  C   C2908     1.0  0.93064  0.80611  0.05860  1.0000
  H   H2911     1.0  0.76486  0.64547  0.12491  1.0000
  H   H2912     1.0  0.79529  0.47984  0.09743  1.0000
  C   C2909     1.0  0.75337  0.62441  0.25288  1.0000
  C   C2910     1.0  0.98038  0.64993  0.16793  1.0000
  C   C2911     1.0  0.89497  0.95540  0.09664  1.0000
  C   C2912     1.0  0.91013  0.94096  0.09871  1.0000
  C   C2913     1.0  0.87150  0.62656  0.17552  1.0000
  N   N241      1.0  0.85272  0.53539  0.19141  1.0000
  C   C2914     1.0  0.85186  0.54050  0.20753  1.0000
  C   C2915     1.0  0.86945  0.53000  0.18052  1.0000
  C   C2916     1.0  0.86801  0.54088  0.21281  1.0000
  C   C2917     1.0  0.88587  0.53022  0.18537  1.0000
  C   C2918     1.0  0.88509  0.53585  0.20156  1.0000
  C   C2919     1.0  0.83564  0.53497  0.18619  1.0000
  H   H2913     1.0  0.83862  0.54486  0.21613  1.0000
  H   H2914     1.0  0.96306  0.49827  0.21427  1.0000
  H   H2915     1.0  0.86728  0.54571  0.22519  1.0000
  H   H2916     1.0  0.74345  0.90653  0.13041  1.0000
  C   C2920     1.0  0.91641  0.60112  0.27858  1.0000
  H   H2917     1.0  0.92136  0.81963  0.05982  1.0000
  C   C2921     1.0  0.97424  0.79509  0.08735  1.0000
  C   C2922     1.0  0.73648  0.69735  0.11782  1.0000
  S   S986      1.0  0.96515  0.90997  0.03825  1.0000
  C   C2923     1.0  0.92711  0.95413  0.06922  1.0000
  Fe  Fe492     1.0  0.96803  0.91775  0.06356  1.0000
  H   H2918     1.0  0.85149  0.63152  0.20013  1.0000
  Fe  Fe493     1.0  0.76956  0.60696  0.19500  1.0000
  H   H2919     1.0  0.83166  0.52143  0.19220  1.0000
  H   H2920     1.0  0.74534  0.95732  0.27095  1.0000
  C   C2924     1.0  0.76593  0.66339  0.09820  1.0000
  H   H2921     1.0  0.95479  0.72441  0.06176  1.0000
  H   H2922     1.0  0.83729  0.53767  0.17098  1.0000
  C   C2925     1.0  0.76573  0.57839  0.09698  1.0000
  C   C2926     1.0  0.97148  0.62838  0.23942  1.0000
  C   C2927     1.0  0.92612  0.94015  0.08491  1.0000
  Fe  Fe494     1.0  0.76267  0.59915  0.16050  1.0000
  C   C2928     1.0  0.91917  0.61542  0.26351  1.0000
  C   C2929     1.0  0.76291  0.64101  0.22201  1.0000
  C   C2930     1.0  0.75561  0.82363  0.05087  1.0000
  H   H2923     1.0  0.93706  0.80648  0.04382  1.0000
  H   H2924     1.0  0.89411  0.62721  0.13254  1.0000
  C   C2931     1.0  0.95554  0.81541  0.06658  1.0000
  C   C2932     1.0  0.85954  0.62596  0.14994  1.0000
  C   C2933     1.0  0.88609  0.96963  0.14484  1.0000
  C   C2934     1.0  0.97917  0.76546  0.05247  1.0000
  H   H2925     1.0  0.78436  0.62767  0.29924  1.0000
  H   H2926     1.0  0.92203  0.79542  0.06311  1.0000
  N   N242      1.0  0.76553  0.93349  0.27751  1.0000
  H   H2927     1.0  0.84729  0.94559  0.07929  1.0000
  S   S987      1.0  0.75916  0.74961  0.98885  1.0000
  N   N243      1.0  0.87426  0.62464  0.15770  1.0000
  H   H2928     1.0  0.88763  0.89993  0.09890  1.0000
  H   H2929     1.0  0.97664  0.69914  0.02611  1.0000
  C   C2935     1.0  0.74303  0.71912  0.00015  1.0000
  C   C2936     1.0  0.89309  0.62007  0.14716  1.0000
  C   C2937     1.0  0.88859  0.96958  0.17561  1.0000
  C   C2938     1.0  0.97512  0.84149  0.02239  1.0000
  C   C2939     1.0  0.79486  0.91299  0.27209  1.0000
  C   C2940     1.0  0.74470  0.79647  0.06979  1.0000
  N   N244      1.0  0.81055  0.79175  0.05704  1.0000
  C   C2941     1.0  0.82722  0.79473  0.04635  1.0000
  C   C2942     1.0  0.79702  0.80619  0.06177  1.0000
  C   C2943     1.0  0.83058  0.81256  0.03974  1.0000
  C   C2944     1.0  0.79994  0.82422  0.05555  1.0000
  C   C2945     1.0  0.81680  0.82739  0.04435  1.0000
  C   C2946     1.0  0.80672  0.77312  0.06224  1.0000
  H   H2930     1.0  0.83796  0.78330  0.04267  1.0000
  H   H2931     1.0  0.78379  0.80386  0.07025  1.0000
  H   H2932     1.0  0.84370  0.81482  0.03082  1.0000
  H   H2933     1.0  0.78906  0.83567  0.05915  1.0000
  H   H2934     1.0  0.81913  0.84132  0.03916  1.0000
  H   H2935     1.0  0.81938  0.76265  0.06443  1.0000
  H   H2936     1.0  0.79609  0.77135  0.07509  1.0000
  H   H2937     1.0  0.80170  0.77025  0.05103  1.0000
  N   N245      1.0  0.87494  0.94444  0.06383  1.0000
  H   H2938     1.0  0.76212  0.55070  0.05913  1.0000
  C   C2947     1.0  0.89271  0.93469  0.06177  1.0000
  H   H2939     1.0  0.73903  0.78532  0.27123  1.0000
  C   C2948     1.0  0.75396  0.80533  0.05307  1.0000
  H   H2940     1.0  0.74643  0.71760  0.01339  1.0000
  H   H2941     1.0  0.95806  0.90617  0.99504  1.0000
  S   S988      1.0  0.75288  0.62371  0.17412  1.0000
  C   C2949     1.0  0.74538  0.57056  0.14240  1.0000
  H   H2942     1.0  0.97828  0.60009  0.14539  1.0000
  H   H2943     1.0  0.93813  0.65650  0.27077  1.0000
  C   C2950     1.0  0.78541  0.66185  0.28495  1.0000
  H   H2944     1.0  0.98283  0.62039  0.11471  1.0000
  C   C2951     1.0  0.78593  0.89906  0.27236  1.0000
  C   C2952     1.0  0.86149  0.93816  0.07785  1.0000
  S   S989      1.0  0.74925  0.49840  0.08269  1.0000
  H   H2945     1.0  0.89765  0.53661  0.20528  1.0000
  C   C2953     1.0  0.74811  0.83307  0.06539  1.0000
  H   H2946     1.0  0.76261  0.83053  0.03784  1.0000
  C   C2954     1.0  0.73906  0.82410  0.08214  1.0000
  S   S990      1.0  0.75941  0.60528  0.22557  1.0000
  H   H2947     1.0  0.95480  0.66002  0.12769  1.0000
  C   C2955     1.0  0.86584  0.92208  0.09067  1.0000
  C   C2956     1.0  0.89586  0.96941  0.08102  1.0000
  C   C2957     1.0  0.75195  0.53813  0.12875  1.0000
  H   H2948     1.0  0.77730  0.57755  0.10319  1.0000
  C   C2958     1.0  0.75609  0.87856  0.15542  1.0000
  S   S991      1.0  0.98253  0.94442  0.99551  1.0000
  H   H2949     1.0  0.77321  0.56178  0.14690  1.0000
  H   H2950     1.0  0.79974  0.96437  0.29742  1.0000
  H   H2951     1.0  0.76721  0.64144  0.20737  1.0000
  H   H2952     1.0  0.97333  0.51352  0.15310  1.0000
  C   C2959     1.0  0.75172  0.71858  0.12395  1.0000
  C   C2960     1.0  0.87015  0.96126  0.05044  1.0000
  C   C2961     1.0  0.95672  0.75160  0.04606  1.0000
  H   H2953     1.0  0.76331  0.96127  0.27999  1.0000
  H   H2954     1.0  0.91180  0.91120  0.07298  1.0000
  C   C2962     1.0  0.88083  0.96385  0.16387  1.0000
  C   C2963     1.0  0.97516  0.73497  0.06889  1.0000
  C   C2964     1.0  0.96156  0.73591  0.05916  1.0000
  C   C2965     1.0  0.81146  0.96831  0.28741  1.0000
  S   S992      1.0  0.74194  0.77376  0.07301  1.0000
  H   H2955     1.0  0.79385  0.88551  0.27077  1.0000
  C   C2966     1.0  0.96547  0.76645  0.04280  1.0000
  C   C2967     1.0  0.96616  0.64070  0.16938  1.0000
  H   H2956     1.0  0.93947  0.95360  0.05854  1.0000
  H   H2957     1.0  0.95452  0.87610  0.04553  1.0000
  Fe  Fe495     1.0  0.77945  0.63189  0.15804  1.0000
  H   H2958     1.0  0.96233  0.63082  0.18172  1.0000
  C   C2968     1.0  0.76570  0.54232  0.13532  1.0000
  C   C2969     1.0  0.95604  0.86582  0.03761  1.0000
  H   H2959     1.0  0.96073  0.82718  0.01133  1.0000
  S   S993      1.0  0.94418  0.92108  0.08751  1.0000
  S   S994      1.0  0.76479  0.68788  0.06560  1.0000
  H   H2960     1.0  0.82455  0.63501  0.18589  1.0000
  S   S995      1.0  0.74708  0.73809  0.04284  1.0000
  N   N246      1.0  0.78175  0.70122  0.96929  1.0000
  H   H2961     1.0  0.89710  0.60501  0.14786  1.0000
  H   H2962     1.0  0.82419  0.54600  0.19092  1.0000
  H   H2963     1.0  0.77702  0.55306  0.08747  1.0000
  N   N247      1.0  0.75057  0.56528  0.08090  1.0000
  S   S996      1.0  0.77737  0.58158  0.18279  1.0000
  H   H2964     1.0  0.76473  0.47997  0.11816  1.0000
  C   C2970     1.0  0.78742  0.68002  0.27755  1.0000
  Fe  Fe496     1.0  0.73609  0.51069  0.10768  1.0000
  C   C2971     1.0  0.92506  0.63056  0.26552  1.0000
  C   C2972     1.0  0.84146  0.62993  0.15988  1.0000
  C   C2973     1.0  0.97346  0.85545  0.03189  1.0000
  C   C2974     1.0  0.85360  0.63047  0.18587  1.0000
  C   C2975     1.0  0.77002  0.65717  0.11585  1.0000
  H   H2965     1.0  0.82980  0.63089  0.15371  1.0000
  S   S997      1.0  0.74987  0.85614  0.06209  1.0000
  H   H2966     1.0  0.88181  0.96871  0.04532  1.0000
  N   N248      1.0  0.92786  0.63150  0.28217  1.0000
  C   C2976     1.0  0.78438  0.93023  0.27471  1.0000
  H   H2967     1.0  0.79734  0.70278  0.28083  1.0000
  C   C2977     1.0  0.75901  0.62478  0.23396  1.0000
  H   H2968     1.0  0.75426  0.86628  0.16650  1.0000
  H   H2969     1.0  0.94066  0.77559  0.08296  1.0000
  N   N249      1.0  0.74118  0.89428  0.15885  1.0000
  H   H2970     1.0  0.75032  0.60318  0.10617  1.0000
  H   H2971     1.0  0.76963  0.88208  0.15433  1.0000
  H   H2972     1.0  0.87025  0.95561  0.16947  1.0000
  N   N250      1.0  0.94506  0.80250  0.06928  1.0000
  C   C2978     1.0  0.97407  0.48984  0.20620  1.0000
  H   H2973     1.0  0.75942  0.72201  0.13232  1.0000
  H   H2974     1.0  0.75602  0.87455  0.14246  1.0000
  H   H2975     1.0  0.74914  0.69213  0.14134  1.0000
  H   H2976     1.0  0.97621  0.60775  0.28311  1.0000
  C   C2979     1.0  0.78320  0.69168  0.98813  1.0000
  Fe  Fe497     1.0  0.98173  0.64263  0.29235  1.0000
  C   C2980     1.0  0.97550  0.62595  0.25687  1.0000
  C   C2981     1.0  0.73527  0.70570  0.99687  1.0000
  C   C2982     1.0  0.91205  0.96886  0.06739  1.0000
  H   H2977     1.0  0.88409  0.96584  0.19040  1.0000
  H   H2978     1.0  0.79252  0.72385  0.97081  1.0000
  C   C2983     1.0  0.97631  0.66621  0.13740  1.0000
  H   H2979     1.0  0.75308  0.53714  0.08096  1.0000
  H   H2980     1.0  0.75233  0.74378  0.10371  1.0000
  C   C2984     1.0  0.74246  0.73586  0.96904  1.0000
  H   H2981     1.0  0.75957  0.89178  0.27558  1.0000
  C   C2985     1.0  0.75669  0.92000  0.27750  1.0000
  N   N251      1.0  0.79176  0.65248  0.30056  1.0000
  H   H2982     1.0  0.94537  0.47449  0.22125  1.0000
  H   H2983     1.0  0.89112  0.77874  0.96829  1.0000
  H   H2984     1.0  0.73621  0.88525  0.18800  1.0000
  C   C2986     1.0  0.73579  0.78372  0.28609  1.0000
  H   H2985     1.0  0.73552  0.73528  0.08450  1.0000
  H   H2986     1.0  0.73595  0.81191  0.28561  1.0000
  C   C2987     1.0  0.73563  0.57941  0.08242  1.0000
  C   C2988     1.0  0.73538  0.59335  0.09135  1.0000
  Fe  Fe498     1.0  0.84849  0.69800  0.39858  1.0000
  S   S998      1.0  0.84325  0.72371  0.37732  1.0000
  S   S999      1.0  0.87753  0.68306  0.40068  1.0000
  Fe  Fe499     1.0  0.80830  0.70155  0.41780  1.0000
  S   S1000     1.0  0.79988  0.72750  0.39817  1.0000
  S   S1001     1.0  0.78466  0.69349  0.44026  1.0000
  Fe  Fe500     1.0  0.81855  0.71315  0.37628  1.0000
  S   S1002     1.0  0.80860  0.71782  0.34977  1.0000
  Fe  Fe501     1.0  0.82500  0.73564  0.40106  1.0000
  S   S1003     1.0  0.82221  0.76430  0.40535  1.0000
  S   S1004     1.0  0.82527  0.68626  0.39572  1.0000
  S   S1005     1.0  0.83199  0.71085  0.42255  1.0000
  S   S1006     1.0  0.75169  0.65202  0.54082  1.0000
  H   H2987     1.0  0.80932  0.90576  0.40437  1.0000
  S   S1007     1.0  0.86484  0.88927  0.59400  1.0000
  N   N252      1.0  0.96747  0.87817  0.46749  1.0000
  H   H2988     1.0  0.98378  0.97010  0.36434  1.0000
  S   S1008     1.0  0.84067  0.86013  0.59064  1.0000
  C   C2989     1.0  0.88799  0.80418  0.51870  1.0000
  Fe  Fe502     1.0  0.86658  0.87016  0.57532  1.0000
  S   S1009     1.0  0.87283  0.87936  0.54451  1.0000
  Fe  Fe503     1.0  0.84047  0.87721  0.61057  1.0000
  H   H2989     1.0  0.91709  0.59124  0.30736  1.0000
  S   S1010     1.0  0.88549  0.84699  0.58979  1.0000
  Fe  Fe504     1.0  0.79747  0.89638  0.34948  1.0000
  S   S1011     1.0  0.80667  0.87043  0.36917  1.0000
  H   H2990     1.0  0.78192  0.72180  0.32781  1.0000
  S   S1012     1.0  0.76924  0.91233  0.35907  1.0000
  Fe  Fe505     1.0  0.91168  0.82524  0.44853  1.0000
  S   S1013     1.0  0.88944  0.85012  0.45221  1.0000
  S   S1014     1.0  0.94096  0.82147  0.45203  1.0000
  Fe  Fe506     1.0  0.88560  0.80389  0.44245  1.0000
  S   S1015     1.0  0.86096  0.82669  0.44610  1.0000
  S   S1016     1.0  0.88691  0.77651  0.43581  1.0000
  Fe  Fe507     1.0  0.88035  0.84488  0.42853  1.0000
  S   S1017     1.0  0.87437  0.86728  0.40422  1.0000
  Fe  Fe508     1.0  0.87199  0.82994  0.46948  1.0000
  S   S1018     1.0  0.85384  0.83203  0.49740  1.0000
  S   S1019     1.0  0.90438  0.82182  0.42324  1.0000
  S   S1020     1.0  0.89491  0.80532  0.46745  1.0000
  C   C2990     1.0  0.75495  0.89957  0.41116  1.0000
  C   C2991     1.0  0.84841  0.95479  0.31373  1.0000
  C   C2992     1.0  0.94863  0.88556  0.46436  1.0000
  H   H2991     1.0  0.77827  0.63366  0.32156  1.0000
  C   C2993     1.0  0.97148  0.96241  0.59016  1.0000
  H   H2992     1.0  0.76230  0.66660  0.43055  1.0000
  N   N253      1.0  0.76890  0.63057  0.47489  1.0000
  C   C2994     1.0  0.82510  0.90717  0.53711  1.0000
  H   H2993     1.0  0.94303  0.88412  0.41751  1.0000
  H   H2994     1.0  0.94641  0.95817  0.60976  1.0000
  C   C2995     1.0  0.78368  0.63275  0.46066  1.0000
  H   H2995     1.0  0.82856  0.91267  0.58702  1.0000
  C   C2996     1.0  0.97996  0.80132  0.40956  1.0000
  H   H2996     1.0  0.84063  0.51004  0.57787  1.0000
  Fe  Fe509     1.0  0.74220  0.62650  0.55810  1.0000
  Fe  Fe510     1.0  0.76591  0.91603  0.33004  1.0000
  S   S1021     1.0  0.78796  0.63844  0.56035  1.0000
  H   H2997     1.0  0.93294  0.64765  0.36806  1.0000
  Fe  Fe511     1.0  0.80420  0.92421  0.31378  1.0000
  H   H2998     1.0  0.80876  0.56403  0.62002  1.0000
  Fe  Fe512     1.0  0.77553  0.61420  0.57630  1.0000
  S   S1022     1.0  0.79099  0.59557  0.59753  1.0000
  C   C2997     1.0  0.76639  0.68666  0.58815  1.0000
  H   H2999     1.0  0.80511  0.53163  0.62864  1.0000
  S   S1023     1.0  0.85812  0.80827  0.61292  1.0000
  S   S1024     1.0  0.81457  0.89422  0.62399  1.0000
  C   C2998     1.0  0.78294  0.70824  0.33644  1.0000
  S   S1025     1.0  0.97303  0.62039  0.31583  1.0000
  S   S1026     1.0  0.96156  0.66552  0.30397  1.0000
  Fe  Fe513     1.0  0.88142  0.86512  0.61003  1.0000
  H   H3000     1.0  0.78736  0.65936  0.36675  1.0000
  C   C2999     1.0  0.81425  0.92358  0.52988  1.0000
  C   C3000     1.0  0.78925  0.91779  0.55560  1.0000
  C   C3001     1.0  0.79287  0.89067  0.58040  1.0000
  H   H3001     1.0  0.80505  0.53170  0.57064  1.0000
  H   H3002     1.0  0.77636  0.94143  0.40681  1.0000
  H   H3003     1.0  0.76416  0.94419  0.60754  1.0000
  C   C3002     1.0  0.75936  0.70057  0.59834  1.0000
  C   C3003     1.0  0.78456  0.67698  0.58796  1.0000
  C   C3004     1.0  0.79542  0.68095  0.59831  1.0000
  C   C3005     1.0  0.78814  0.69455  0.60893  1.0000
  C   C3006     1.0  0.95062  0.87151  0.42439  1.0000
  H   H3004     1.0  0.78131  0.89893  0.58882  1.0000
  H   H3005     1.0  0.79026  0.66645  0.57987  1.0000
  C   C3007     1.0  0.95154  0.84034  0.44170  1.0000
  S   S1027     1.0  0.80126  0.69830  0.62316  1.0000
  H   H3006     1.0  0.92226  0.70328  0.33107  1.0000
  H   H3007     1.0  0.93362  0.70030  0.40447  1.0000
  C   C3008     1.0  0.77415  0.67842  0.34584  1.0000
  H   H3008     1.0  0.97659  0.91274  0.58443  1.0000
  C   C3009     1.0  0.75786  0.96534  0.37615  1.0000
  C   C3010     1.0  0.87946  0.81635  0.39165  1.0000
  C   C3011     1.0  0.97877  0.85399  0.43411  1.0000
  C   C3012     1.0  0.74900  0.65371  0.45732  1.0000
  H   H3009     1.0  0.76412  0.71453  0.61720  1.0000
  C   C3013     1.0  0.84074  0.80948  0.36395  1.0000
  C   C3014     1.0  0.90838  0.88702  0.62485  1.0000
  H   H3010     1.0  0.74626  0.94798  0.36584  1.0000
  C   C3015     1.0  0.79848  0.55991  0.61528  1.0000
  C   C3016     1.0  0.78733  0.57294  0.60424  1.0000
  C   C3017     1.0  0.77395  0.56762  0.59824  1.0000
  C   C3018     1.0  0.77193  0.54921  0.60312  1.0000
  H   H3011     1.0  0.79740  0.62503  0.46201  1.0000
  S   S1028     1.0  0.97381  0.64706  0.34370  1.0000
  H   H3012     1.0  0.76522  0.57766  0.58981  1.0000
  H   H3013     1.0  0.76162  0.54512  0.59839  1.0000
  H   H3014     1.0  0.86946  0.79282  0.54243  1.0000
  C   C3019     1.0  0.82496  0.87027  0.37931  1.0000
  C   C3020     1.0  0.83780  0.88152  0.37063  1.0000
  C   C3021     1.0  0.85268  0.88074  0.37864  1.0000
  C   C3022     1.0  0.85491  0.86860  0.39528  1.0000
  C   C3023     1.0  0.84198  0.85744  0.40404  1.0000
  C   C3024     1.0  0.82704  0.85826  0.39606  1.0000
  H   H3015     1.0  0.83660  0.89046  0.35750  1.0000
  H   H3016     1.0  0.86271  0.88931  0.37175  1.0000
  H   H3017     1.0  0.84349  0.84812  0.41690  1.0000
  H   H3018     1.0  0.81719  0.84945  0.40280  1.0000
  H   H3019     1.0  0.78773  0.94191  0.53397  1.0000
  H   H3020     1.0  0.81380  0.93926  0.56609  1.0000
  C   C3025     1.0  0.97000  0.83904  0.44242  1.0000
  H   H3021     1.0  0.84014  0.94425  0.31517  1.0000
  H   H3022     1.0  0.74317  0.94262  0.42021  1.0000
  H   H3023     1.0  0.85731  0.95010  0.32410  1.0000
  N   N254      1.0  0.83639  0.97254  0.31609  1.0000
  H   H3024     1.0  0.91143  0.47711  0.62826  1.0000
  H   H3025     1.0  0.80396  0.92758  0.38888  1.0000
  H   H3026     1.0  0.97087  0.79890  0.40151  1.0000
  H   H3027     1.0  0.89192  0.90317  0.60525  1.0000
  H   H3028     1.0  0.89672  0.93292  0.60845  1.0000
  C   C3026     1.0  0.86685  0.86668  0.53144  1.0000
  C   C3027     1.0  0.87441  0.86877  0.51258  1.0000
  C   C3028     1.0  0.87036  0.85835  0.50195  1.0000
  C   C3029     1.0  0.85846  0.84602  0.51008  1.0000
  C   C3030     1.0  0.85047  0.84434  0.52885  1.0000
  C   C3031     1.0  0.85478  0.85452  0.53955  1.0000
  H   H3029     1.0  0.88363  0.87829  0.50620  1.0000
  H   H3030     1.0  0.87640  0.85991  0.48748  1.0000
  H   H3031     1.0  0.84118  0.83488  0.53518  1.0000
  H   H3032     1.0  0.84880  0.85288  0.55403  1.0000
  C   C3032     1.0  0.80485  0.91364  0.60928  1.0000
  C   C3033     1.0  0.78680  0.92281  0.61512  1.0000
  C   C3034     1.0  0.77834  0.93767  0.60318  1.0000
  C   C3035     1.0  0.78799  0.94356  0.58543  1.0000
  C   C3036     1.0  0.80624  0.93469  0.57978  1.0000
  C   C3037     1.0  0.81463  0.91966  0.59163  1.0000
  H   H3033     1.0  0.78230  0.88697  0.39916  1.0000
  H   H3034     1.0  0.80443  0.65366  0.32197  1.0000
  C   C3038     1.0  0.94191  0.85653  0.43252  1.0000
  C   C3039     1.0  0.95061  0.69421  0.37878  1.0000
  H   H3035     1.0  0.92772  0.85754  0.43173  1.0000
  C   C3040     1.0  0.78998  0.67765  0.45995  1.0000
  C   C3041     1.0  0.80772  0.66707  0.46017  1.0000
  C   C3042     1.0  0.81112  0.65362  0.47579  1.0000
  C   C3043     1.0  0.79692  0.65103  0.49129  1.0000
  C   C3044     1.0  0.77939  0.66208  0.49121  1.0000
  C   C3045     1.0  0.77589  0.67526  0.47553  1.0000
  H   H3036     1.0  0.81866  0.66889  0.44817  1.0000
  N   N255      1.0  0.86711  0.81383  0.38098  1.0000
  H   H3037     1.0  0.76835  0.66013  0.50299  1.0000
  H   H3038     1.0  0.76215  0.68345  0.47539  1.0000
  C   C3046     1.0  0.83975  0.76722  0.41476  1.0000
  C   C3047     1.0  0.85546  0.75346  0.41638  1.0000
  C   C3048     1.0  0.86965  0.75632  0.42332  1.0000
  C   C3049     1.0  0.86819  0.77291  0.42866  1.0000
  C   C3050     1.0  0.85226  0.78650  0.42745  1.0000
  C   C3051     1.0  0.83806  0.78365  0.42050  1.0000
  H   H3039     1.0  0.85682  0.74072  0.41203  1.0000
  H   H3040     1.0  0.88194  0.74575  0.42429  1.0000
  H   H3041     1.0  0.85094  0.79926  0.43167  1.0000
  H   H3042     1.0  0.82586  0.79431  0.41932  1.0000
  C   C3052     1.0  0.79482  0.70283  0.34897  1.0000
  C   C3053     1.0  0.79613  0.68529  0.36009  1.0000
  C   C3054     1.0  0.78595  0.67307  0.35840  1.0000
  C   C3055     1.0  0.74365  0.95744  0.37496  1.0000
  S   S1029     1.0  0.79320  0.89811  0.32105  1.0000
  H   H3043     1.0  0.80941  0.67335  0.59823  1.0000
  H   H3044     1.0  0.80535  0.68096  0.36966  1.0000
  C   C3056     1.0  0.80259  0.81265  0.62483  1.0000
  H   H3045     1.0  0.83485  0.83906  0.35658  1.0000
  C   C3057     1.0  0.91058  0.65444  0.35360  1.0000
  C   C3058     1.0  0.89203  0.66292  0.35385  1.0000
  C   C3059     1.0  0.88169  0.67161  0.36835  1.0000
  C   C3060     1.0  0.88977  0.67144  0.38286  1.0000
  C   C3061     1.0  0.90822  0.66261  0.38280  1.0000
  C   C3062     1.0  0.91870  0.65437  0.36805  1.0000
  H   H3046     1.0  0.88569  0.66296  0.34270  1.0000
  H   H3047     1.0  0.86746  0.67840  0.36832  1.0000
  H   H3048     1.0  0.91447  0.66235  0.39409  1.0000
  H   H3049     1.0  0.90429  0.70722  0.39326  1.0000
  H   H3050     1.0  0.92699  0.61861  0.31034  1.0000
  N   N256      1.0  0.79940  0.73439  0.45504  1.0000
  C   C3063     1.0  0.79877  0.71757  0.46632  1.0000
  C   C3064     1.0  0.81376  0.74284  0.45323  1.0000
  C   C3065     1.0  0.81340  0.70816  0.47509  1.0000
  C   C3066     1.0  0.82865  0.73387  0.46177  1.0000
  C   C3067     1.0  0.82852  0.71633  0.47263  1.0000
  C   C3068     1.0  0.78427  0.74368  0.44541  1.0000
  H   H3051     1.0  0.78698  0.71126  0.46840  1.0000
  H   H3052     1.0  0.81384  0.75651  0.44494  1.0000
  H   H3053     1.0  0.81303  0.69455  0.48358  1.0000
  H   H3054     1.0  0.84027  0.74046  0.45980  1.0000
  H   H3055     1.0  0.84006  0.70911  0.47917  1.0000
  H   H3056     1.0  0.77324  0.75193  0.45424  1.0000
  H   H3057     1.0  0.78926  0.75283  0.43227  1.0000
  H   H3058     1.0  0.77836  0.73354  0.44165  1.0000
  N   N257      1.0  0.88259  0.81151  0.54854  1.0000
  C   C3069     1.0  0.89407  0.82386  0.54170  1.0000
  C   C3070     1.0  0.87923  0.80196  0.53724  1.0000
  C   C3071     1.0  0.90301  0.82646  0.52320  1.0000
  C   C3072     1.0  0.89998  0.81649  0.51166  1.0000
  C   C3073     1.0  0.87295  0.80940  0.56781  1.0000
  H   H3059     1.0  0.89598  0.83212  0.55044  1.0000
  H   H3060     1.0  0.91171  0.83660  0.51772  1.0000
  H   H3061     1.0  0.90643  0.81873  0.49716  1.0000
  H   H3062     1.0  0.86943  0.79557  0.57326  1.0000
  H   H3063     1.0  0.88171  0.81101  0.57669  1.0000
  H   H3064     1.0  0.85998  0.81985  0.56931  1.0000
  C   C3074     1.0  0.95996  0.93427  0.59816  1.0000
  H   H3065     1.0  0.94701  0.69910  0.32635  1.0000
  C   C3075     1.0  0.83403  0.78494  0.62103  1.0000
  H   H3066     1.0  0.74903  0.88783  0.41202  1.0000
  Fe  Fe514     1.0  0.80395  0.49227  0.63089  1.0000
  H   H3067     1.0  0.84172  0.51698  0.59823  1.0000
  C   C3076     1.0  0.75171  0.64077  0.47335  1.0000
  C   C3077     1.0  0.97989  0.88956  0.46282  1.0000
  H   H3068     1.0  0.82053  0.51234  0.59626  1.0000
  H   H3069     1.0  0.87130  0.81945  0.40510  1.0000
  Fe  Fe515     1.0  0.74235  0.67121  0.32449  1.0000
  H   H3070     1.0  0.97753  0.82645  0.44938  1.0000
  S   S1030     1.0  0.76574  0.74424  0.63006  1.0000
  H   H3071     1.0  0.78799  0.87920  0.57788  1.0000
  Fe  Fe516     1.0  0.84441  0.47474  0.62335  1.0000
  H   H3072     1.0  0.80494  0.90674  0.38206  1.0000
  C   C3078     1.0  0.91794  0.70225  0.36615  1.0000
  H   H3073     1.0  0.83921  0.90283  0.53008  1.0000
  C   C3079     1.0  0.90035  0.90343  0.61454  1.0000
  C   C3080     1.0  0.82019  0.81710  0.61986  1.0000
  H   H3074     1.0  0.93506  0.68022  0.33650  1.0000
  S   S1031     1.0  0.97893  0.88980  0.41623  1.0000
  H   H3075     1.0  0.90500  0.70474  0.36162  1.0000
  H   H3076     1.0  0.76368  0.60621  0.49401  1.0000
  H   H3077     1.0  0.96350  0.69086  0.38356  1.0000
  H   H3078     1.0  0.97707  0.56416  0.38235  1.0000
  H   H3079     1.0  0.75625  0.49672  0.60784  1.0000
  H   H3080     1.0  0.90739  0.47435  0.58158  1.0000
  S   S1032     1.0  0.85677  0.85433  0.62814  1.0000
  H   H3081     1.0  0.94873  0.89563  0.45110  1.0000
  N   N258      1.0  0.82694  0.53747  0.57956  1.0000
  C   C3081     1.0  0.78333  0.53610  0.61390  1.0000
  C   C3082     1.0  0.83613  0.55057  0.57990  1.0000
  C   C3083     1.0  0.80686  0.56018  0.56183  1.0000
  C   C3084     1.0  0.83072  0.56887  0.57139  1.0000
  C   C3085     1.0  0.81601  0.57365  0.56228  1.0000
  C   C3086     1.0  0.86484  0.79659  0.38137  1.0000
  H   H3082     1.0  0.84752  0.54700  0.58703  1.0000
  H   H3083     1.0  0.79507  0.56389  0.55523  1.0000
  H   H3084     1.0  0.83756  0.57939  0.57220  1.0000
  H   H3085     1.0  0.81138  0.58790  0.55606  1.0000
  C   C3087     1.0  0.80067  0.79433  0.62816  1.0000
  H   H3086     1.0  0.81988  0.93221  0.51722  1.0000
  C   C3088     1.0  0.75170  0.93028  0.41578  1.0000
  H   H3087     1.0  0.96251  0.85112  0.47942  1.0000
  S   S1033     1.0  0.77658  0.94232  0.32055  1.0000
  S   S1034     1.0  0.81112  0.92069  0.34128  1.0000
  C   C3089     1.0  0.83276  0.51830  0.58838  1.0000
  H   H3088     1.0  0.76195  0.87994  0.32323  1.0000
  H   H3089     1.0  0.88489  0.79698  0.50967  1.0000
  S   S1035     1.0  0.74104  0.65165  0.30770  1.0000
  Fe  Fe517     1.0  0.95390  0.64358  0.32813  1.0000
  H   H3090     1.0  0.85871  0.84256  0.37142  1.0000
  N   N259      1.0  0.93440  0.69709  0.35475  1.0000
  C   C3090     1.0  0.76402  0.65616  0.44283  1.0000
  C   C3091     1.0  0.93468  0.69484  0.33625  1.0000
  Fe  Fe518     1.0  0.78261  0.93684  0.34869  1.0000
  C   C3092     1.0  0.79651  0.54152  0.62007  1.0000
  H   H3091     1.0  0.83984  0.92102  0.62994  1.0000
  C   C3093     1.0  0.74814  0.86541  0.31177  1.0000
  C   C3094     1.0  0.85683  0.82891  0.37183  1.0000
  S   S1036     1.0  0.92336  0.64417  0.33499  1.0000
  H   H3092     1.0  0.96974  0.83766  0.40556  1.0000
  S   S1037     1.0  0.80097  0.63298  0.50995  1.0000
  H   H3093     1.0  0.98252  0.59309  0.36023  1.0000
  H   H3094     1.0  0.87063  0.94997  0.63316  1.0000
  N   N260      1.0  0.78119  0.91420  0.40208  1.0000
  C   C3095     1.0  0.75002  0.88064  0.31772  1.0000
  S   S1038     1.0  0.75155  0.68117  0.57690  1.0000
  N   N261      1.0  0.80016  0.90198  0.56287  1.0000
  S   S1039     1.0  0.91477  0.94230  0.63219  1.0000
  H   H3095     1.0  0.89019  0.80380  0.39442  1.0000
  C   C3096     1.0  0.84341  0.82699  0.36328  1.0000
  H   H3096     1.0  0.88656  0.82794  0.38435  1.0000
  H   H3097     1.0  0.94015  0.89242  0.47574  1.0000
  H   H3098     1.0  0.83006  0.80778  0.35782  1.0000
  C   C3097     1.0  0.96900  0.87032  0.42529  1.0000
  C   C3098     1.0  0.77376  0.89919  0.40384  1.0000
  C   C3099     1.0  0.77051  0.92950  0.40821  1.0000
  H   H3099     1.0  0.79329  0.64781  0.43345  1.0000
  S   S1040     1.0  0.78043  0.95873  0.36421  1.0000
  C   C3100     1.0  0.81973  0.97308  0.32812  1.0000
  C   C3101     1.0  0.75127  0.48412  0.61458  1.0000
  C   C3102     1.0  0.98349  0.83332  0.39789  1.0000
  H   H3100     1.0  0.82473  0.64507  0.47579  1.0000
  C   C3103     1.0  0.77243  0.69614  0.33504  1.0000
  Fe  Fe519     1.0  0.85934  0.83827  0.60664  1.0000
  C   C3104     1.0  0.81253  0.54203  0.57061  1.0000
  C   C3105     1.0  0.81777  0.89644  0.55367  1.0000
  H   H3101     1.0  0.82155  0.83120  0.61778  1.0000
  C   C3106     1.0  0.97232  0.86018  0.47578  1.0000
  H   H3102     1.0  0.94969  0.92623  0.60613  1.0000
  H   H3103     1.0  0.80364  0.88497  0.58886  1.0000
  C   C3107     1.0  0.73980  0.47789  0.60691  1.0000
  H   H3104     1.0  0.97611  0.90377  0.45611  1.0000
  C   C3108     1.0  0.74386  0.91529  0.41705  1.0000
  H   H3105     1.0  0.81520  0.96049  0.33573  1.0000
  C   C3109     1.0  0.91744  0.70361  0.38413  1.0000
  H   H3106     1.0  0.73762  0.65540  0.61487  1.0000
  S   S1041     1.0  0.76301  0.66212  0.34295  1.0000
  Fe  Fe520     1.0  0.77960  0.63347  0.53628  1.0000
  C   C3110     1.0  0.80084  0.91357  0.39404  1.0000
  H   H3107     1.0  0.80202  0.62469  0.31203  1.0000
  C   C3111     1.0  0.83594  0.80323  0.61804  1.0000
  C   C3112     1.0  0.77009  0.70436  0.60882  1.0000
  H   H3108     1.0  0.84946  0.78046  0.37371  1.0000
  C   C3113     1.0  0.78898  0.63368  0.30868  1.0000
  S   S1042     1.0  0.76960  0.60753  0.55173  1.0000
  H   H3109     1.0  0.96360  0.68849  0.35200  1.0000
  C   C3114     1.0  0.90314  0.92026  0.61634  1.0000
  H   H3110     1.0  0.77537  0.92238  0.56294  1.0000
  H   H3111     1.0  0.76339  0.70036  0.32531  1.0000
  H   H3112     1.0  0.82638  0.88380  0.55921  1.0000
  Fe  Fe521     1.0  0.75932  0.65476  0.56638  1.0000
  H   H3113     1.0  0.76393  0.62546  0.61952  1.0000
  C   C3115     1.0  0.91372  0.92081  0.62868  1.0000
  H   H3114     1.0  0.73693  0.61686  0.52369  1.0000
  H   H3115     1.0  0.87281  0.78461  0.38880  1.0000
  C   C3116     1.0  0.93389  0.69955  0.39046  1.0000
  H   H3116     1.0  0.97120  0.80595  0.42220  1.0000
  C   C3117     1.0  0.95812  0.95223  0.60024  1.0000
  C   C3118     1.0  0.79619  0.92894  0.53914  1.0000
  C   C3119     1.0  0.75655  0.47387  0.63091  1.0000
  C   C3120     1.0  0.85166  0.79415  0.37284  1.0000
  S   S1043     1.0  0.74021  0.69587  0.30159  1.0000
  C   C3121     1.0  0.80248  0.67891  0.30207  1.0000
  C   C3122     1.0  0.80013  0.66080  0.30915  1.0000
  S   S1044     1.0  0.77697  0.96076  0.56961  1.0000
  S   S1045     1.0  0.78126  0.51297  0.61895  1.0000
  C   C3123     1.0  0.95059  0.69294  0.36090  1.0000
  H   H3117     1.0  0.94196  0.87457  0.46341  1.0000
  S   S1046     1.0  0.74735  0.63086  0.58414  1.0000
  H   H3118     1.0  0.74532  0.70811  0.59858  1.0000
  H   H3119     1.0  0.74002  0.63913  0.48468  1.0000
  C   C3124     1.0  0.77132  0.61737  0.49200  1.0000
  C   C3125     1.0  0.78145  0.64555  0.44443  1.0000
  S   S1047     1.0  0.90406  0.86578  0.62394  1.0000
  H   H3120     1.0  0.81507  0.76636  0.62854  1.0000
  H   H3121     1.0  0.76618  0.62443  0.50386  1.0000
  H   H3122     1.0  0.75866  0.85303  0.31273  1.0000
  H   H3123     1.0  0.77361  0.64205  0.60076  1.0000
  H   H3124     1.0  0.78610  0.61110  0.49207  1.0000
  C   C3126     1.0  0.81642  0.78049  0.62611  1.0000
  S   S1048     1.0  0.73904  0.91649  0.32255  1.0000
  C   C3127     1.0  0.73647  0.89668  0.31653  1.0000
  C   C3128     1.0  0.77176  0.63674  0.61581  1.0000
  H   H3125     1.0  0.77917  0.91813  0.62874  1.0000
  H   H3126     1.0  0.85447  0.94791  0.62084  1.0000
  Fe  Fe522     1.0  0.98321  0.66702  0.31818  1.0000
  H   H3127     1.0  0.84619  0.77417  0.61965  1.0000
  H   H3128     1.0  0.78570  0.63076  0.61898  1.0000
  S   S1049     1.0  0.87102  0.47995  0.60420  1.0000
  C   C3129     1.0  0.97517  0.92676  0.58587  1.0000
  H   H3129     1.0  0.80871  0.68556  0.30925  1.0000
  H   H3130     1.0  0.79044  0.82340  0.62649  1.0000
  C   C3130     1.0  0.74409  0.65970  0.62376  1.0000
  N   N262      1.0  0.76182  0.65161  0.62558  1.0000
  H   H3131     1.0  0.73595  0.48547  0.59402  1.0000
  H   H3132     1.0  0.73542  0.66199  0.45625  1.0000
  H   H3133     1.0  0.94300  0.89843  0.73993  1.0000
  S   S1050     1.0  0.94609  0.73325  0.85982  1.0000
  N   N263      1.0  0.86020  0.92513  0.64250  1.0000
  Fe  Fe523     1.0  0.94839  0.78513  0.84717  1.0000
  S   S1051     1.0  0.92514  0.77406  0.86774  1.0000
  C   C3131     1.0  0.97759  0.68711  0.87182  1.0000
  Fe  Fe524     1.0  0.94729  0.75166  0.87792  1.0000
  S   S1052     1.0  0.94611  0.74169  0.90821  1.0000
  Fe  Fe525     1.0  0.92595  0.75686  0.84767  1.0000
  S   S1053     1.0  0.89886  0.75467  0.84219  1.0000
  H   H3134     1.0  0.96168  0.52931  0.74087  1.0000
  S   S1054     1.0  0.94744  0.76979  0.82605  1.0000
  C   C3132     1.0  0.90385  0.56731  0.79256  1.0000
  C   C3133     1.0  0.80204  0.76293  0.69845  1.0000
  H   H3135     1.0  0.97636  0.86808  0.82225  1.0000
  C   C3134     1.0  0.97255  0.88425  0.77713  1.0000
  H   H3136     1.0  0.84693  0.65939  0.74620  1.0000
  C   C3135     1.0  0.95096  0.78617  0.93564  1.0000
  C   C3136     1.0  0.77265  0.78108  0.69085  1.0000
  H   H3137     1.0  0.98183  0.80198  0.82326  1.0000
  S   S1055     1.0  0.77852  0.78910  0.63636  1.0000
  C   C3137     1.0  0.81058  0.51817  0.71270  1.0000
  H   H3138     1.0  0.76733  0.79192  0.69918  1.0000
  C   C3138     1.0  0.85230  0.89591  0.64571  1.0000
  C   C3139     1.0  0.77411  0.70219  0.94048  1.0000
  H   H3139     1.0  0.91471  0.55847  0.79993  1.0000
  H   H3140     1.0  0.96774  0.87074  0.74040  1.0000
  C   C3140     1.0  0.77145  0.70864  0.83946  1.0000
  C   C3141     1.0  0.92219  0.90441  0.63864  1.0000
  C   C3142     1.0  0.76470  0.70795  0.85836  1.0000
  S   S1056     1.0  0.84679  0.67659  0.81658  1.0000
  Fe  Fe526     1.0  0.85397  0.69080  0.76323  1.0000
  S   S1057     1.0  0.87494  0.67005  0.77735  1.0000
  S   S1058     1.0  0.85778  0.69755  0.73234  1.0000
  Fe  Fe527     1.0  0.85091  0.65885  0.79605  1.0000
  S   S1059     1.0  0.84828  0.62923  0.80499  1.0000
  Fe  Fe528     1.0  0.86938  0.68955  0.79658  1.0000
  S   S1060     1.0  0.89566  0.69239  0.80324  1.0000
  S   S1061     1.0  0.83047  0.67777  0.78029  1.0000
  S   S1062     1.0  0.85021  0.71140  0.78078  1.0000
  Fe  Fe529     1.0  0.87934  0.52516  0.72993  1.0000
  S   S1063     1.0  0.87749  0.50286  0.75516  1.0000
  S   S1064     1.0  0.87767  0.52314  0.70158  1.0000
  Fe  Fe530     1.0  0.88379  0.55274  0.75025  1.0000
  S   S1065     1.0  0.88196  0.53300  0.77734  1.0000
  S   S1066     1.0  0.88914  0.58129  0.74546  1.0000
  Fe  Fe531     1.0  0.90049  0.51254  0.76105  1.0000
  S   S1067     1.0  0.92420  0.49230  0.77152  1.0000
  Fe  Fe532     1.0  0.85913  0.52522  0.76915  1.0000
  S   S1068     1.0  0.83273  0.52256  0.78979  1.0000
  S   S1069     1.0  0.90421  0.53280  0.73446  1.0000
  S   S1070     1.0  0.85919  0.54695  0.74349  1.0000
  C   C3143     1.0  0.82502  0.53803  0.72207  1.0000
  N   N264      1.0  0.80483  0.51036  0.73071  1.0000
  C   C3144     1.0  0.97341  0.84197  0.87494  1.0000
  C   C3145     1.0  0.77980  0.71891  0.93326  1.0000
  H   H3141     1.0  0.80513  0.64832  0.82537  1.0000
  Fe  Fe533     1.0  0.77802  0.72826  0.67850  1.0000
  S   S1071     1.0  0.78077  0.72212  0.70806  1.0000
  S   S1072     1.0  0.79827  0.70931  0.80826  1.0000
  S   S1073     1.0  0.75603  0.75266  0.67151  1.0000
  S   S1074     1.0  0.92704  0.94304  0.68034  1.0000
  C   C3146     1.0  0.82090  0.53200  0.70811  1.0000
  C   C3147     1.0  0.91636  0.59387  0.77318  1.0000
  H   H3142     1.0  0.80276  0.51120  0.75877  1.0000
  C   C3148     1.0  0.82242  0.50428  0.79052  1.0000
  C   C3149     1.0  0.83010  0.49206  0.77852  1.0000
  S   S1075     1.0  0.96347  0.93229  0.64798  1.0000
  S   S1076     1.0  0.76752  0.71012  0.66637  1.0000
  C   C3150     1.0  0.84549  0.48279  0.82369  1.0000
  C   C3151     1.0  0.80623  0.50190  0.80353  1.0000
  H   H3143     1.0  0.84245  0.49390  0.76832  1.0000
  C   C3152     1.0  0.84833  0.65499  0.73307  1.0000
  H   H3144     1.0  0.86800  0.87280  0.66142  1.0000
  H   H3145     1.0  0.80016  0.51142  0.81274  1.0000
  C   C3153     1.0  0.83667  0.70585  0.72506  1.0000
  C   C3154     1.0  0.82038  0.71003  0.73778  1.0000
  C   C3155     1.0  0.80338  0.71532  0.73224  1.0000
  C   C3156     1.0  0.80256  0.71666  0.71391  1.0000
  C   C3157     1.0  0.81889  0.71318  0.70095  1.0000
  C   C3158     1.0  0.83596  0.70770  0.70656  1.0000
  H   H3146     1.0  0.82082  0.70913  0.75196  1.0000
  H   H3147     1.0  0.79080  0.71820  0.74228  1.0000
  H   H3148     1.0  0.81834  0.71429  0.68675  1.0000
  H   H3149     1.0  0.84858  0.70461  0.69664  1.0000
  C   C3159     1.0  0.85738  0.61664  0.78738  1.0000
  C   C3160     1.0  0.86766  0.62432  0.77068  1.0000
  C   C3161     1.0  0.87681  0.61350  0.75757  1.0000
  C   C3162     1.0  0.87544  0.59504  0.76096  1.0000
  C   C3163     1.0  0.86434  0.58758  0.77724  1.0000
  C   C3164     1.0  0.85547  0.59834  0.79054  1.0000
  H   H3150     1.0  0.86916  0.63840  0.76811  1.0000
  H   H3151     1.0  0.88539  0.61929  0.74499  1.0000
  H   H3152     1.0  0.86308  0.57338  0.77985  1.0000
  H   H3153     1.0  0.84741  0.59238  0.80341  1.0000
  C   C3165     1.0  0.96387  0.51900  0.78722  1.0000
  C   C3166     1.0  0.94759  0.52970  0.78194  1.0000
  C   C3167     1.0  0.93537  0.52159  0.77709  1.0000
  C   C3168     1.0  0.93925  0.50266  0.77777  1.0000
  C   C3169     1.0  0.95556  0.49195  0.78298  1.0000
  C   C3170     1.0  0.96792  0.50012  0.78758  1.0000
  H   H3154     1.0  0.94457  0.54433  0.78144  1.0000
  H   H3155     1.0  0.92298  0.52998  0.77278  1.0000
  C   C3171     1.0  0.89587  0.78409  0.95380  1.0000
  C   C3172     1.0  0.96468  0.50241  0.73569  1.0000
  C   C3173     1.0  0.84211  0.48665  0.69398  1.0000
  H   H3156     1.0  0.93725  0.91750  0.76349  1.0000
  C   C3174     1.0  0.85673  0.49615  0.71400  1.0000
  C   C3175     1.0  0.86466  0.50831  0.69897  1.0000
  C   C3176     1.0  0.86163  0.50928  0.68143  1.0000
  C   C3177     1.0  0.85030  0.49858  0.67896  1.0000
  H   H3157     1.0  0.84623  0.76655  0.67738  1.0000
  H   H3158     1.0  0.85901  0.49532  0.72756  1.0000
  H   H3159     1.0  0.86770  0.51871  0.66979  1.0000
  H   H3160     1.0  0.84759  0.49991  0.66549  1.0000
  N   N265      1.0  0.83148  0.66216  0.72559  1.0000
  H   H3161     1.0  0.76214  0.70921  0.83068  1.0000
  C   C3178     1.0  0.90616  0.77980  0.92297  1.0000
  Fe  Fe534     1.0  0.78646  0.71982  0.64016  1.0000
  C   C3179     1.0  0.82176  0.78426  0.66915  1.0000
  H   H3162     1.0  0.94805  0.76592  0.96071  1.0000
  H   H3163     1.0  0.96043  0.92019  0.96177  1.0000
  C   C3180     1.0  0.96359  0.93602  0.72125  1.0000
  S   S1077     1.0  0.94561  0.81572  0.84398  1.0000
  H   H3164     1.0  0.95433  0.80299  0.90850  1.0000
  H   H3165     1.0  0.76853  0.69625  0.93217  1.0000
  C   C3181     1.0  0.79869  0.67342  0.73004  1.0000
  N   N266      1.0  0.90543  0.58660  0.78907  1.0000
  C   C3182     1.0  0.79454  0.66361  0.86083  1.0000
  C   C3183     1.0  0.94878  0.76880  0.94607  1.0000
  C   C3184     1.0  0.83125  0.76960  0.68027  1.0000
  N   N267      1.0  0.97576  0.87396  0.76401  1.0000
  H   H3166     1.0  0.92669  0.61797  0.75700  1.0000
  C   C3185     1.0  0.74295  0.68046  0.64326  1.0000
  H   H3167     1.0  0.88574  0.89195  0.66927  1.0000
  C   C3186     1.0  0.96270  0.84503  0.83118  1.0000
  H   H3168     1.0  0.89046  0.62380  0.80900  1.0000
  H   H3169     1.0  0.86021  0.66044  0.72348  1.0000
  C   C3187     1.0  0.89769  0.73540  0.83423  1.0000
  C   C3188     1.0  0.88063  0.73352  0.83188  1.0000
  C   C3189     1.0  0.87965  0.71979  0.82315  1.0000
  C   C3190     1.0  0.89578  0.70791  0.81670  1.0000
  C   C3191     1.0  0.91272  0.70930  0.81976  1.0000
  C   C3192     1.0  0.91368  0.72295  0.82858  1.0000
  H   H3170     1.0  0.86820  0.74306  0.83634  1.0000
  H   H3171     1.0  0.86653  0.71875  0.82092  1.0000
  H   H3172     1.0  0.92522  0.70007  0.81486  1.0000
  H   H3173     1.0  0.92686  0.72426  0.83040  1.0000
  H   H3174     1.0  0.78909  0.66946  0.81853  1.0000
  H   H3175     1.0  0.78716  0.68098  0.70566  1.0000
  H   H3176     1.0  0.78979  0.66501  0.88951  1.0000
  H   H3177     1.0  0.74539  0.74743  0.95815  1.0000
  H   H3178     1.0  0.89314  0.81147  0.95814  1.0000
  C   C3193     1.0  0.89653  0.59704  0.80200  1.0000
  H   H3179     1.0  0.81417  0.66588  0.75151  1.0000
  C   C3194     1.0  0.98468  0.97112  0.85676  1.0000
  H   H3180     1.0  0.83357  0.54829  0.71861  1.0000
  H   H3181     1.0  0.89006  0.56525  0.80090  1.0000
  C   C3195     1.0  0.94921  0.75849  0.91844  1.0000
  C   C3196     1.0  0.94792  0.75498  0.93748  1.0000
  C   C3197     1.0  0.95276  0.78954  0.91654  1.0000
  C   C3198     1.0  0.95180  0.77574  0.90793  1.0000
  H   H3182     1.0  0.94608  0.74160  0.94562  1.0000
  H   H3183     1.0  0.79068  0.73988  0.93891  1.0000
  H   H3184     1.0  0.95260  0.77861  0.89325  1.0000
  C   C3199     1.0  0.79535  0.70774  0.86204  1.0000
  H   H3185     1.0  0.92324  0.58565  0.76283  1.0000
  H   H3186     1.0  0.74197  0.51824  0.92451  1.0000
  C   C3200     1.0  0.87534  0.89832  0.66101  1.0000
  H   H3187     1.0  0.80027  0.48624  0.72495  1.0000
  C   C3201     1.0  0.95853  0.89994  0.77726  1.0000
  H   H3188     1.0  0.80764  0.66802  0.85753  1.0000
  H   H3189     1.0  0.91003  0.77091  0.91303  1.0000
  C   C3202     1.0  0.89813  0.61538  0.79902  1.0000
  C   C3203     1.0  0.76106  0.67217  0.64496  1.0000
  C   C3204     1.0  0.83239  0.66354  0.70726  1.0000
  H   H3190     1.0  0.76694  0.76864  0.69838  1.0000
  C   C3205     1.0  0.86165  0.48847  0.81307  1.0000
  H   H3191     1.0  0.80792  0.51315  0.70175  1.0000
  H   H3192     1.0  0.80895  0.67035  0.82606  1.0000
  C   C3206     1.0  0.79477  0.49530  0.73522  1.0000
  H   H3193     1.0  0.95648  0.90850  0.78723  1.0000
  H   H3194     1.0  0.88656  0.48171  0.79322  1.0000
  H   H3195     1.0  0.84555  0.65986  0.69822  1.0000
  H   H3196     1.0  0.85993  0.74956  0.78237  1.0000
  S   S1078     1.0  0.76863  0.70711  0.89326  1.0000
  S   S1079     1.0  0.74463  0.67378  0.92846  1.0000
  C   C3207     1.0  0.77517  0.69346  0.95861  1.0000
  H   H3197     1.0  0.83587  0.49167  0.83234  1.0000
  N   N268      1.0  0.78760  0.66038  0.84737  1.0000
  H   H3198     1.0  0.93472  0.74130  0.79310  1.0000
  C   C3208     1.0  0.77101  0.65491  0.85158  1.0000
  C   C3209     1.0  0.95092  0.89428  0.75075  1.0000
  C   C3210     1.0  0.76081  0.65276  0.86963  1.0000
  C   C3211     1.0  0.84557  0.48525  0.71147  1.0000
  H   H3199     1.0  0.78514  0.48568  0.81456  1.0000
  C   C3212     1.0  0.87237  0.91724  0.65400  1.0000
  H   H3200     1.0  0.91200  0.80364  0.90231  1.0000
  N   N269      1.0  0.90100  0.77282  0.94132  1.0000
  H   H3201     1.0  0.79441  0.75465  0.71006  1.0000
  H   H3202     1.0  0.77865  0.72590  0.91929  1.0000
  H   H3203     1.0  0.85147  0.63975  0.73552  1.0000
  C   C3213     1.0  0.80546  0.47505  0.79268  1.0000
  H   H3204     1.0  0.96739  0.69820  0.84669  1.0000
  H   H3205     1.0  0.93039  0.90472  0.64817  1.0000
  H   H3206     1.0  0.95006  0.85270  0.83801  1.0000
  C   C3214     1.0  0.81646  0.67013  0.69982  1.0000
  C   C3215     1.0  0.86539  0.88758  0.65661  1.0000
  H   H3207     1.0  0.78471  0.65199  0.63667  1.0000
  H   H3208     1.0  0.75023  0.70801  0.86413  1.0000
  C   C3216     1.0  0.97136  0.51682  0.73826  1.0000
  H   H3209     1.0  0.80460  0.70758  0.87074  1.0000
  H   H3210     1.0  0.92353  0.75958  0.80492  1.0000
  N   N270      1.0  0.74115  0.47591  0.91930  1.0000
  C   C3217     1.0  0.77662  0.70772  0.86962  1.0000
  H   H3211     1.0  0.74763  0.64844  0.87305  1.0000
  S   S1080     1.0  0.97875  0.52962  0.79338  1.0000
  H   H3212     1.0  0.77988  0.50092  0.73534  1.0000
  H   H3213     1.0  0.90406  0.82405  0.92506  1.0000
  N   N271      1.0  0.90721  0.75341  0.78925  1.0000
  C   C3218     1.0  0.89162  0.76540  0.79532  1.0000
  C   C3219     1.0  0.90624  0.74044  0.78026  1.0000
  C   C3220     1.0  0.87441  0.76430  0.79282  1.0000
  C   C3221     1.0  0.88925  0.73894  0.77754  1.0000
  C   C3222     1.0  0.87325  0.75093  0.78392  1.0000
  C   C3223     1.0  0.92513  0.75487  0.79190  1.0000
  H   H3214     1.0  0.89234  0.77541  0.80282  1.0000
  H   H3215     1.0  0.91850  0.73067  0.77576  1.0000
  H   H3216     1.0  0.86201  0.77339  0.79826  1.0000
  H   H3217     1.0  0.88846  0.72808  0.77117  1.0000
  C   C3224     1.0  0.97897  0.93279  0.74648  1.0000
  H   H3218     1.0  0.95005  0.50380  0.73626  1.0000
  C   C3225     1.0  0.74488  0.49321  0.91500  1.0000
  S   S1081     1.0  0.97070  0.76385  0.85893  1.0000
  C   C3226     1.0  0.97687  0.48599  0.73305  1.0000
  H   H3219     1.0  0.90424  0.74795  0.96121  1.0000
  H   H3220     1.0  0.83927  0.47603  0.72315  1.0000
  C   C3227     1.0  0.78764  0.71750  0.96225  1.0000
  C   C3228     1.0  0.96507  0.87868  0.75101  1.0000
  Fe  Fe535     1.0  0.74117  0.69898  0.90645  1.0000
  C   C3229     1.0  0.98146  0.80986  0.87145  1.0000
  H   H3221     1.0  0.96061  0.83922  0.88414  1.0000
  Fe  Fe536     1.0  0.96774  0.96101  0.64397  1.0000
  H   H3222     1.0  0.75163  0.49877  0.90121  1.0000
  Fe  Fe537     1.0  0.95765  0.93280  0.67820  1.0000
  H   H3223     1.0  0.88765  0.59140  0.81449  1.0000
  C   C3230     1.0  0.78460  0.66178  0.87898  1.0000
  S   S1082     1.0  0.98023  0.94078  0.76569  1.0000
  C   C3231     1.0  0.90728  0.79833  0.91681  1.0000
  H   H3224     1.0  0.81729  0.67180  0.68517  1.0000
  C   C3232     1.0  0.81489  0.66681  0.73701  1.0000
  H   H3225     1.0  0.82132  0.53525  0.75144  1.0000
  C   C3233     1.0  0.91831  0.61216  0.76977  1.0000
  C   C3234     1.0  0.80220  0.70793  0.84322  1.0000
  H   H3226     1.0  0.76558  0.65223  0.84094  1.0000
  H   H3227     1.0  0.75987  0.65464  0.89739  1.0000
  C   C3235     1.0  0.79821  0.66210  0.82843  1.0000
  C   C3236     1.0  0.79020  0.70860  0.83189  1.0000
  N   N272      1.0  0.79287  0.77697  0.68712  1.0000
  H   H3228     1.0  0.78567  0.67788  0.73894  1.0000
  C   C3237     1.0  0.90910  0.62296  0.78279  1.0000
  H   H3229     1.0  0.98216  0.95491  0.83841  1.0000
  Fe  Fe538     1.0  0.82805  0.69668  0.79915  1.0000
  Fe  Fe539     1.0  0.96774  0.74729  0.83979  1.0000
  H   H3230     1.0  0.73817  0.51689  0.86700  1.0000
  H   H3231     1.0  0.91022  0.63726  0.78023  1.0000
  H   H3232     1.0  0.82631  0.53748  0.69381  1.0000
  C   C3238     1.0  0.81832  0.53060  0.74041  1.0000
  C   C3239     1.0  0.80245  0.78782  0.67287  1.0000
  H   H3233     1.0  0.76818  0.67742  0.65250  1.0000
  S   S1083     1.0  0.95103  0.80399  0.94621  1.0000
  H   H3234     1.0  0.91012  0.74497  0.93794  1.0000
  H   H3235     1.0  0.96747  0.87050  0.87725  1.0000
  C   C3240     1.0  0.94771  0.90499  0.76393  1.0000
  C   C3241     1.0  0.79778  0.48728  0.80464  1.0000
  C   C3242     1.0  0.96420  0.82633  0.83166  1.0000
  H   H3236     1.0  0.95632  0.95471  0.73995  1.0000
  C   C3243     1.0  0.96553  0.94242  0.73617  1.0000
  Fe  Fe540     1.0  0.93341  0.94531  0.64961  1.0000
  S   S1084     1.0  0.79925  0.73564  0.65328  1.0000
  C   C3244     1.0  0.79953  0.67514  0.71132  1.0000
  H   H3237     1.0  0.95283  0.94332  0.71372  1.0000
  C   C3245     1.0  0.97720  0.85964  0.87114  1.0000
  S   S1085     1.0  0.96407  0.96058  0.67387  1.0000
  C   C3246     1.0  0.89688  0.80267  0.94813  1.0000
  H   H3238     1.0  0.82931  0.79273  0.65762  1.0000
  C   C3247     1.0  0.76769  0.65623  0.88337  1.0000
  H   H3239     1.0  0.86438  0.50160  0.81345  1.0000
  C   C3248     1.0  0.90284  0.80975  0.92955  1.0000
  H   H3240     1.0  0.79640  0.48646  0.74886  1.0000
  C   C3249     1.0  0.82135  0.75895  0.69515  1.0000
  H   H3241     1.0  0.92591  0.87485  0.64458  1.0000
  C   C3250     1.0  0.80799  0.51685  0.74449  1.0000
  H   H3242     1.0  0.77012  0.68075  0.96425  1.0000
  H   H3243     1.0  0.88606  0.75130  0.94868  1.0000
  H   H3244     1.0  0.82856  0.74762  0.70402  1.0000
  H   H3245     1.0  0.79514  0.79922  0.66416  1.0000
  Fe  Fe541     1.0  0.77659  0.75921  0.64544  1.0000
  H   H3246     1.0  0.81666  0.70801  0.83742  1.0000
  Fe  Fe542     1.0  0.74741  0.73527  0.65700  1.0000
  C   C3251     1.0  0.90024  0.75330  0.94760  1.0000
  H   H3247     1.0  0.90528  0.56281  0.77947  1.0000
  C   C3252     1.0  0.87397  0.47742  0.80155  1.0000
  C   C3253     1.0  0.78661  0.72666  0.94420  1.0000
  H   H3248     1.0  0.76749  0.78588  0.67776  1.0000
  Fe  Fe543     1.0  0.93416  0.97097  0.67373  1.0000
  H   H3249     1.0  0.84419  0.88778  0.64255  1.0000
  C   C3254     1.0  0.73954  0.50430  0.92816  1.0000
  H   H3250     1.0  0.93143  0.76474  0.78025  1.0000
  H   H3251     1.0  0.76560  0.47877  0.63666  1.0000
  H   H3252     1.0  0.98112  0.88052  0.78732  1.0000
  C   C3255     1.0  0.82154  0.47753  0.77950  1.0000
  H   H3253     1.0  0.96807  0.69717  0.87923  1.0000
  C   C3256     1.0  0.97757  0.85378  0.82217  1.0000
  S   S1086     1.0  0.82864  0.49741  0.63819  1.0000
  H   H3254     1.0  0.95867  0.47731  0.78345  1.0000
  C   C3257     1.0  0.97716  0.68766  0.85360  1.0000
  H   H3255     1.0  0.88046  0.92544  0.65716  1.0000
  H   H3256     1.0  0.98033  0.49173  0.79184  1.0000
  C   C3258     1.0  0.77038  0.65775  0.63591  1.0000
  H   H3257     1.0  0.96642  0.81053  0.87307  1.0000
  H   H3258     1.0  0.74019  0.48951  0.85432  1.0000
  H   H3259     1.0  0.87231  0.47869  0.64201  1.0000
  C   C3259     1.0  0.91959  0.88754  0.63664  1.0000
  C   C3260     1.0  0.97514  0.91994  0.71651  1.0000
  H   H3260     1.0  0.88684  0.47898  0.65723  1.0000
  C   C3261     1.0  0.98059  0.81643  0.82292  1.0000
  S   S1087     1.0  0.97222  0.91117  0.69851  1.0000
  H   H3261     1.0  0.98443  0.95354  0.95680  1.0000
  C   C3262     1.0  0.97261  0.91220  0.96691  1.0000
  C   C3263     1.0  0.84988  0.91480  0.63867  1.0000
  H   H3262     1.0  0.97177  0.47462  0.73139  1.0000
  S   S1088     1.0  0.82623  0.47467  0.69156  1.0000
  Fe  Fe544     1.0  0.82400  0.47470  0.66267  1.0000
  H   H3263     1.0  0.84636  0.95248  0.64389  1.0000
  H   H3264     1.0  0.73582  0.69212  0.64968  1.0000
  C   C3264     1.0  0.85774  0.94487  0.63477  1.0000
