data_image0
_chemical_formula_structural       NSH2SC4HCHNFeH2C2H7C6H3SH2C2H5C2H3C4S3HFeSFeSCHFeCSCS3CHCNC6H5C2H3C2HCFeSHC2HCH2CHNFeCH2CH2CH2C2SHC3HCH3NCHCFeHCFeSHFeSFeSFeS3HCHCHC2H2C5H3CSHC2SCHC2H2SNHC3HNH3SH2C2HC2FeS2FeS2Fe2S3C2HCHC2H3CHNCHCHCH2CHCHSC6SHCH2CSCH3NHC2FeSCSHFeSFeSHSFeSCFeS2C6H4CH3FeHCNCHSFeC6HC3H3CHC2HNHCH4SHC2H2SHC3HC2HSHC2FeNCH3CHSHC6HSHC2H3CHCH2CH3SHFeS2H2SC2SCSHCFeCHC6FeCH3CHC2H2NCNHC2SCSH4CH2C3H2CNH3NHC2H6S2FeSFeSHFeSFeS3HSC6H4C3HC2H2CHC3HNC6H3SHCSHFeH2C2HC3H2C3HCHCHFe2HCFeH2FeH2S2H2SC2SCHFeSCHCHCH2C2HCHCH3C2H2CHCHCSCHSFeHFeSHSH2NC4HFeC4SCHCFeH2SH5CH3FeSHFeS2Fe2HS3CSH2C2FeCHSC6H5CHC3H2NC6H4CSHCH3CSCHCNSH2CHC3NC2SH2CHFeNSH2SC2HC5HFeHCNHSC3H4CHCHCH3CHCS2C5H2C2H2CH4CHCSNFeH2C
_chemical_formula_sum              "N24 S96 H288 C288 Fe48"
_cell_length_a       29.9382
_cell_length_b       54.2787
_cell_length_c       33.8493
_cell_angle_alpha    90.0221
_cell_angle_beta     108.528
_cell_angle_gamma    89.9882

_space_group_name_H-M_alt    "P 1"
_space_group_IT_number       1

loop_
  _space_group_symop_operation_xyz
  'x, y, z'

loop_
  _atom_site_type_symbol
  _atom_site_label
  _atom_site_symmetry_multiplicity
  _atom_site_fract_x
  _atom_site_fract_y
  _atom_site_fract_z
  _atom_site_occupancy
  N   N1        1.0  0.39937  0.22701  0.02550  1.0000
  S   S1        1.0  0.44523  0.25223  0.24997  1.0000
  H   H1        1.0  0.27621  0.31062  0.11220  1.0000
  H   H2        1.0  0.41639  0.24446  0.34855  1.0000
  S   S2        1.0  0.41315  0.32324  0.23927  1.0000
  C   C1        1.0  0.38927  0.25345  0.32356  1.0000
  C   C2        1.0  0.29023  0.32083  0.14096  1.0000
  C   C3        1.0  0.35542  0.23894  0.29501  1.0000
  C   C4        1.0  0.44599  0.08432  0.06666  1.0000
  H   H3        1.0  0.41208  0.30174  0.37222  1.0000
  C   C5        1.0  0.46457  0.00340  0.00466  1.0000
  H   H4        1.0  0.41219  0.17835  0.09728  1.0000
  N   N2        1.0  0.38902  0.27853  0.31921  1.0000
  Fe  Fe1       1.0  0.46498  0.29138  0.24253  1.0000
  H   H5        1.0  0.02028  0.30477  0.03681  1.0000
  H   H6        1.0  0.43565  0.15844  0.04074  1.0000
  C   C6        1.0  0.33577  0.31521  0.16802  1.0000
  C   C7        1.0  0.42562  0.29359  0.34821  1.0000
  H   H7        1.0  0.32786  0.21561  0.01198  1.0000
  H   H8        1.0  0.47113  0.23534  0.03215  1.0000
  H   H9        1.0  0.29501  0.23925  0.23936  1.0000
  H   H10       1.0  0.35633  0.30079  0.16000  1.0000
  H   H11       1.0  0.35676  0.21902  0.29783  1.0000
  H   H12       1.0  0.35314  0.30974  0.28561  1.0000
  H   H13       1.0  0.29342  0.28505  0.23358  1.0000
  C   C8        1.0  0.32084  0.25029  0.26227  1.0000
  C   C9        1.0  0.35400  0.28983  0.28836  1.0000
  C   C10       1.0  0.35505  0.32871  0.20469  1.0000
  C   C11       1.0  0.31986  0.27592  0.25902  1.0000
  C   C12       1.0  0.45949  0.17107  0.06197  1.0000
  C   C13       1.0  0.44620  0.18247  0.09400  1.0000
  H   H14       1.0  0.38211  0.23130  0.08145  1.0000
  H   H15       1.0  0.43701  0.30859  0.33110  1.0000
  H   H16       1.0  0.00633  0.30140  0.11713  1.0000
  S   S3        1.0  0.45586  0.21435  0.15932  1.0000
  H   H17       1.0  0.43272  0.00275  0.01325  1.0000
  H   H18       1.0  0.45764  0.28254  0.36391  1.0000
  C   C14       1.0  0.39867  0.24182  0.06154  1.0000
  C   C15       1.0  0.35946  0.21475  0.00290  1.0000
  H   H19       1.0  0.37882  0.25916  0.05106  1.0000
  H   H20       1.0  0.42288  0.06992  0.04701  1.0000
  H   H21       1.0  0.44480  0.00732  0.44552  1.0000
  H   H22       1.0  0.43486  0.24652  0.08190  1.0000
  H   H23       1.0  0.98743  0.27897  0.04759  1.0000
  C   C16       1.0  0.43918  0.22601  0.01390  1.0000
  C   C17       1.0  0.98459  0.29796  0.03484  1.0000
  H   H24       1.0  0.42894  0.10234  0.05557  1.0000
  H   H25       1.0  0.44787  0.08164  0.09965  1.0000
  H   H26       1.0  0.41062  0.03906  0.49545  1.0000
  C   C18       1.0  0.47370  0.00057  0.47145  1.0000
  C   C19       1.0  0.47620  0.19938  0.12148  1.0000
  C   C20       1.0  0.97887  0.31414  0.10056  1.0000
  C   C21       1.0  0.06195  0.32175  0.95433  1.0000
  S   S4        1.0  0.40901  0.12058  0.96255  1.0000
  S   S5        1.0  0.00204  0.21141  0.80266  1.0000
  S   S6        1.0  0.40391  0.09645  0.87191  1.0000
  H   H27       1.0  0.12576  0.13997  0.71644  1.0000
  Fe  Fe2       1.0  0.38294  0.13259  0.89517  1.0000
  S   S7        1.0  0.32245  0.16087  0.87417  1.0000
  Fe  Fe3       1.0  0.43638  0.08610  0.94000  1.0000
  S   S8        1.0  0.43109  0.04859  0.97004  1.0000
  C   C22       1.0  0.00517  0.31765  0.56510  1.0000
  H   H28       1.0  0.08031  0.17417  0.66395  1.0000
  Fe  Fe4       1.0  0.05258  0.20302  0.76710  1.0000
  C   C23       1.0  0.14330  0.22583  0.70095  1.0000
  S   S9        1.0  0.10049  0.16895  0.77883  1.0000
  C   C24       1.0  0.03222  0.30236  0.59771  1.0000
  S   S10       1.0  0.04697  0.27095  0.66459  1.0000
  S   S11       1.0  0.07976  0.24153  0.77139  1.0000
  S   S12       1.0  0.06238  0.27424  0.86135  1.0000
  C   C25       1.0  0.01101  0.28897  0.62259  1.0000
  H   H29       1.0  0.03290  0.31855  0.81816  1.0000
  C   C26       1.0  0.08642  0.31050  0.76969  1.0000
  N   N3        1.0  0.43144  0.04220  0.56119  1.0000
  C   C27       1.0  0.16153  0.16685  0.80827  1.0000
  C   C28       1.0  0.18395  0.14370  0.81320  1.0000
  C   C29       1.0  0.23294  0.14137  0.83348  1.0000
  C   C30       1.0  0.26025  0.16224  0.84925  1.0000
  C   C31       1.0  0.23773  0.18536  0.84464  1.0000
  C   C32       1.0  0.18875  0.18768  0.82445  1.0000
  H   H30       1.0  0.16329  0.12742  0.80106  1.0000
  H   H31       1.0  0.24957  0.12345  0.83687  1.0000
  H   H32       1.0  0.25836  0.20165  0.85673  1.0000
  H   H33       1.0  0.17217  0.20561  0.82101  1.0000
  H   H34       1.0  0.21384  0.22600  0.74444  1.0000
  C   C33       1.0  0.39946  0.19950  0.95623  1.0000
  C   C34       1.0  0.18827  0.18906  0.72719  1.0000
  H   H35       1.0  0.39957  0.18857  0.92943  1.0000
  H   H36       1.0  0.32744  0.19085  0.95013  1.0000
  H   H37       1.0  0.09574  0.29939  0.79884  1.0000
  C   C35       1.0  0.98069  0.31617  0.91217  1.0000
  C   C36       1.0  0.07571  0.30521  0.92822  1.0000
  H   H38       1.0  0.45111  0.14566  0.70097  1.0000
  C   C37       1.0  0.11017  0.18548  0.68073  1.0000
  Fe  Fe5       1.0  0.02675  0.25078  0.80373  1.0000
  S   S13       1.0  0.99812  0.20944  0.70393  1.0000
  H   H39       1.0  0.38820  0.07436  0.54965  1.0000
  C   C38       1.0  0.18480  0.21478  0.72583  1.0000
  C   C39       1.0  0.15474  0.14782  0.70637  1.0000
  H   H40       1.0  0.15235  0.14043  0.67520  1.0000
  C   C40       1.0  0.35892  0.20077  0.96799  1.0000
  H   H41       1.0  0.13979  0.24575  0.69970  1.0000
  H   H42       1.0  0.22036  0.18062  0.74723  1.0000
  C   C41       1.0  0.41882  0.06518  0.57049  1.0000
  H   H43       1.0  0.45462  0.13639  0.77389  1.0000
  N   N4        1.0  0.15113  0.17478  0.70485  1.0000
  Fe  Fe6       1.0  0.02212  0.24900  0.71128  1.0000
  C   C42       1.0  0.04218  0.29400  0.89402  1.0000
  H   H44       1.0  0.06984  0.30099  0.60369  1.0000
  H   H45       1.0  0.18840  0.14148  0.72919  1.0000
  C   C43       1.0  0.10578  0.21113  0.67814  1.0000
  H   H46       1.0  0.07318  0.21960  0.65911  1.0000
  H   H47       1.0  0.41218  0.01025  0.52207  1.0000
  C   C44       1.0  0.01403  0.32088  0.78529  1.0000
  H   H48       1.0  0.10883  0.32723  0.77523  1.0000
  H   H49       1.0  0.47199  0.21060  0.97099  1.0000
  C   C45       1.0  0.47095  0.03098  0.58690  1.0000
  C   C46       1.0  0.44554  0.07731  0.60679  1.0000
  S   S14       1.0  0.45168  0.15111  0.89821  1.0000
  H   H50       1.0  0.43575  0.09562  0.61409  1.0000
  C   C47       1.0  0.43988  0.21215  0.97924  1.0000
  C   C48       1.0  0.40346  0.03017  0.52241  1.0000
  C   C49       1.0  0.99447  0.29953  0.88611  1.0000
  H   H51       1.0  0.11270  0.30110  0.93459  1.0000
  C   C50       1.0  0.01435  0.32741  0.94635  1.0000
  H   H52       1.0  0.36524  0.03154  0.51836  1.0000
  H   H53       1.0  0.03157  0.31977  0.69214  1.0000
  H   H54       1.0  0.09434  0.29881  0.74572  1.0000
  N   N5        1.0  0.03656  0.31751  0.75630  1.0000
  C   C51       1.0  0.47268  0.02384  0.98215  1.0000
  H   H55       1.0  0.02194  0.32785  0.54623  1.0000
  C   C52       1.0  0.01330  0.32161  0.71498  1.0000
  Fe  Fe7       1.0  0.47409  0.11459  0.87939  1.0000
  H   H56       1.0  0.08825  0.33018  0.98051  1.0000
  C   C53       1.0  0.04839  0.48161  0.03012  1.0000
  Fe  Fe8       1.0  0.05156  0.38406  0.12585  1.0000
  S   S15       1.0  0.12031  0.40397  0.13407  1.0000
  H   H57       1.0  0.02007  0.43893  0.43134  1.0000
  Fe  Fe9       1.0  0.04371  0.36771  0.03598  1.0000
  S   S16       1.0  0.11071  0.38698  0.03867  1.0000
  Fe  Fe10      1.0  0.14031  0.37051  0.10315  1.0000
  S   S17       1.0  0.20705  0.34693  0.11336  1.0000
  Fe  Fe11      1.0  0.08447  0.41857  0.06880  1.0000
  S   S18       1.0  0.09303  0.45885  0.05086  1.0000
  S   S19       1.0  0.07338  0.34982  0.09879  1.0000
  S   S20       1.0  0.01557  0.40022  0.06212  1.0000
  H   H58       1.0  0.09875  0.51064  0.03368  1.0000
  C   C54       1.0  0.00932  0.38045  0.22051  1.0000
  H   H59       1.0  0.27547  0.44052  0.18245  1.0000
  C   C55       1.0  0.20984  0.42736  0.08413  1.0000
  H   H60       1.0  0.31725  0.40286  0.17205  1.0000
  C   C56       1.0  0.26288  0.33967  0.15045  1.0000
  C   C57       1.0  0.01438  0.37365  0.30515  1.0000
  H   H61       1.0  0.05427  0.41620  0.41575  1.0000
  H   H62       1.0  0.21919  0.39571  0.04868  1.0000
  C   C58       1.0  0.00030  0.47598  0.01802  1.0000
  C   C59       1.0  0.06176  0.50594  0.02441  1.0000
  C   C60       1.0  0.20033  0.46171  0.12771  1.0000
  C   C61       1.0  0.05216  0.37426  0.25042  1.0000
  C   C62       1.0  0.05459  0.37088  0.29245  1.0000
  H   H63       1.0  0.08342  0.37215  0.24125  1.0000
  H   H64       1.0  0.08793  0.36618  0.31534  1.0000
  H   H65       1.0  0.16791  0.45612  0.13472  1.0000
  C   C63       1.0  0.28162  0.35270  0.18777  1.0000
  S   S21       1.0  0.02017  0.37059  0.35897  1.0000
  H   H66       1.0  0.06530  0.41931  0.34648  1.0000
  C   C64       1.0  0.27174  0.39729  0.10921  1.0000
  C   C65       1.0  0.28743  0.40989  0.14703  1.0000
  S   S22       1.0  0.00372  0.38545  0.16713  1.0000
  C   C66       1.0  0.03518  0.43163  0.33791  1.0000
  H   H67       1.0  0.17905  0.43382  0.05955  1.0000
  C   C67       1.0  0.32755  0.34741  0.21444  1.0000
  C   C68       1.0  0.23256  0.40595  0.07761  1.0000
  H   H68       1.0  0.28894  0.38035  0.10483  1.0000
  H   H69       1.0  0.22227  0.47335  0.15360  1.0000
  S   S23       1.0  0.03669  0.63831  0.46444  1.0000
  N   N6        1.0  0.22572  0.43977  0.12117  1.0000
  H   H70       1.0  0.07467  0.44789  0.42366  1.0000
  C   C69       1.0  0.01257  0.43667  0.29573  1.0000
  C   C70       1.0  0.04323  0.43588  0.41182  1.0000
  C   C71       1.0  0.26361  0.43112  0.15266  1.0000
  H   H71       1.0  0.01061  0.65265  0.37859  1.0000
  N   N7        1.0  0.01862  0.44134  0.36786  1.0000
  H   H72       1.0  0.26105  0.36713  0.19571  1.0000
  H   H73       1.0  0.18947  0.47337  0.09918  1.0000
  H   H74       1.0  0.34196  0.35794  0.24278  1.0000
  S   S24       1.0  0.98965  0.38839  0.45864  1.0000
  H   H75       1.0  0.02514  0.42838  0.27203  1.0000
  H   H76       1.0  0.98923  0.45746  0.02220  1.0000
  C   C72       1.0  0.02767  0.52430  0.00664  1.0000
  C   C73       1.0  0.98631  0.47995  0.48565  1.0000
  H   H77       1.0  0.03862  0.54283  0.00232  1.0000
  C   C74       1.0  0.98048  0.45677  0.35704  1.0000
  C   C75       1.0  0.97893  0.50562  0.48203  1.0000
  Fe  Fe12      1.0  0.16237  0.62202  0.60688  1.0000
  S   S25       1.0  0.10024  0.64808  0.58994  1.0000
  S   S26       1.0  0.23873  0.63616  0.62135  1.0000
  Fe  Fe13      1.0  0.09698  0.57609  0.57732  1.0000
  S   S27       1.0  0.03222  0.59963  0.55906  1.0000
  S   S28       1.0  0.09455  0.53370  0.57220  1.0000
  Fe  Fe14      1.0  0.07275  0.62569  0.53133  1.0000
  Fe  Fe15      1.0  0.06536  0.61971  0.61962  1.0000
  S   S29       1.0  0.01454  0.63094  0.65485  1.0000
  S   S30       1.0  0.13592  0.60089  0.54615  1.0000
  S   S31       1.0  0.12894  0.59484  0.64002  1.0000
  C   C76       1.0  0.03937  0.60003  0.77045  1.0000
  C   C77       1.0  0.44838  0.63270  0.71280  1.0000
  H   H78       1.0  0.38026  0.62685  0.74472  1.0000
  C   C78       1.0  0.05171  0.52132  0.91328  1.0000
  H   H79       1.0  0.00724  0.50680  0.59881  1.0000
  C   C79       1.0  0.01140  0.62253  0.70488  1.0000
  C   C80       1.0  0.04431  0.60681  0.73178  1.0000
  H   H80       1.0  0.04646  0.55757  0.88570  1.0000
  H   H81       1.0  0.07376  0.59999  0.72300  1.0000
  H   H82       1.0  0.32923  0.65551  0.62617  1.0000
  C   C81       1.0  0.02763  0.54114  0.88978  1.0000
  H   H83       1.0  0.09220  0.48091  0.56331  1.0000
  N   N8        1.0  0.02103  0.54050  0.63312  1.0000
  C   C82       1.0  0.06069  0.48795  0.54046  1.0000
  H   H84       1.0  0.24354  0.65139  0.70632  1.0000
  C   C83       1.0  0.99444  0.52504  0.60277  1.0000
  H   H85       1.0  0.06500  0.58782  0.79091  1.0000
  C   C84       1.0  0.28183  0.65191  0.66228  1.0000
  H   H86       1.0  0.07860  0.51497  0.65088  1.0000
  H   H87       1.0  0.08957  0.52222  0.92798  1.0000
  C   C85       1.0  0.41468  0.62869  0.76984  1.0000
  H   H88       1.0  0.42472  0.61056  0.78524  1.0000
  C   C86       1.0  0.05323  0.51362  0.53691  1.0000
  H   H89       1.0  0.04477  0.48548  0.93825  1.0000
  S   S32       1.0  0.99533  0.34818  0.97835  1.0000
  C   C87       1.0  0.00502  0.56359  0.63767  1.0000
  C   C88       1.0  0.00199  0.60912  0.78315  1.0000
  C   C89       1.0  0.01213  0.52234  0.50727  1.0000
  C   C90       1.0  0.02663  0.50065  0.91881  1.0000
  C   C91       1.0  0.27546  0.65728  0.70057  1.0000
  C   C92       1.0  0.32389  0.65956  0.65566  1.0000
  S   S33       1.0  0.99527  0.60251  0.94185  1.0000
  H   H90       1.0  0.03394  0.45160  0.51841  1.0000
  C   C93       1.0  0.02766  0.47123  0.51496  1.0000
  H   H91       1.0  0.00568  0.54197  0.50406  1.0000
  H   H92       1.0  0.06404  0.52957  0.69338  1.0000
  C   C94       1.0  0.06653  0.53235  0.66168  1.0000
  S   S34       1.0  0.99731  0.59920  0.83192  1.0000
  C   C95       1.0  0.97957  0.51857  0.99418  1.0000
  H   H93       1.0  0.09407  0.54633  0.66292  1.0000
  H   H94       1.0  0.41755  0.62353  0.69216  1.0000
  H   H95       1.0  0.02614  0.57589  0.66153  1.0000
  N   N9        1.0  0.45161  0.63744  0.75335  1.0000
  H   H96       1.0  0.40907  0.64205  0.79277  1.0000
  C   C96       1.0  0.97866  0.53997  0.87212  1.0000
  C   C97       1.0  0.97754  0.50031  0.90128  1.0000
  Fe  Fe16      1.0  0.99895  0.73504  0.21557  1.0000
  S   S35       1.0  0.39787  0.88601  0.46437  1.0000
  C   C98       1.0  0.37393  0.86087  0.19323  1.0000
  S   S36       1.0  0.38216  0.90019  0.36710  1.0000
  H   H97       1.0  0.22666  0.76692  0.30236  1.0000
  Fe  Fe17      1.0  0.43027  0.91278  0.43029  1.0000
  S   S37       1.0  0.43732  0.95454  0.44413  1.0000
  Fe  Fe18      1.0  0.35489  0.87120  0.40118  1.0000
  S   S38       1.0  0.27723  0.86158  0.39061  1.0000
  H   H98       1.0  0.32509  0.88032  0.28118  1.0000
  S   S39       1.0  0.40934  0.84323  0.39929  1.0000
  Fe  Fe19      1.0  0.02469  0.74953  0.30879  1.0000
  S   S40       1.0  0.06759  0.74094  0.26692  1.0000
  C   C99       1.0  0.00235  0.70744  0.10375  1.0000
  Fe  Fe20      1.0  0.05822  0.78119  0.24993  1.0000
  S   S41       1.0  0.12564  0.80040  0.24753  1.0000
  S   S42       1.0  0.01748  0.79010  0.29371  1.0000
  C   C100      1.0  0.16699  0.81788  0.28724  1.0000
  C   C101      1.0  0.21263  0.82171  0.28483  1.0000
  C   C102      1.0  0.24676  0.83512  0.31595  1.0000
  C   C103      1.0  0.23530  0.84537  0.34944  1.0000
  C   C104      1.0  0.18943  0.84190  0.35141  1.0000
  C   C105      1.0  0.15568  0.82800  0.32087  1.0000
  H   H99       1.0  0.22172  0.81403  0.25889  1.0000
  H   H100      1.0  0.28193  0.83747  0.31419  1.0000
  H   H101      1.0  0.18007  0.84979  0.37707  1.0000
  H   H102      1.0  0.12072  0.82541  0.32307  1.0000
  C   C106      1.0  0.34563  0.84460  0.20660  1.0000
  H   H103      1.0  0.41053  0.91252  0.29103  1.0000
  H   H104      1.0  0.40746  0.89629  0.20230  1.0000
  H   H105      1.0  0.21772  0.73804  0.32589  1.0000
  Fe  Fe21      1.0  0.43943  0.87293  0.36832  1.0000
  H   H106      1.0  0.02323  0.71141  0.04854  1.0000
  C   C107      1.0  0.02857  0.66812  0.39702  1.0000
  N   N10       1.0  0.36572  0.89109  0.24238  1.0000
  C   C108      1.0  0.16220  0.76727  0.36686  1.0000
  H   H107      1.0  0.01840  0.72457  0.11751  1.0000
  S   S43       1.0  0.45528  0.85952  0.30992  1.0000
  Fe  Fe22      1.0  0.45398  0.85966  0.45989  1.0000
  C   C109      1.0  0.07418  0.70824  0.44410  1.0000
  C   C110      1.0  0.05315  0.71098  0.40080  1.0000
  C   C111      1.0  0.38377  0.88416  0.21164  1.0000
  C   C112      1.0  0.37891  0.91493  0.26317  1.0000
  C   C113      1.0  0.03113  0.69066  0.37720  1.0000
  C   C114      1.0  0.15888  0.77962  0.40207  1.0000
  H   H108      1.0  0.16860  0.75575  0.29330  1.0000
  C   C115      1.0  0.23811  0.78430  0.37705  1.0000
  C   C116      1.0  0.23605  0.79688  0.41252  1.0000
  C   C117      1.0  0.00506  0.69991  0.06462  1.0000
  H   H109      1.0  0.26889  0.78667  0.36711  1.0000
  H   H110      1.0  0.26464  0.80903  0.42930  1.0000
  H   H111      1.0  0.19344  0.80478  0.45167  1.0000
  C   C118      1.0  0.32747  0.85178  0.23803  1.0000
  H   H112      1.0  0.09137  0.72385  0.46260  1.0000
  C   C119      1.0  0.20389  0.75694  0.31734  1.0000
  C   C120      1.0  0.19596  0.79465  0.42484  1.0000
  H   H113      1.0  0.30609  0.83914  0.24916  1.0000
  N   N11       1.0  0.20110  0.77007  0.35434  1.0000
  H   H114      1.0  0.38731  0.92865  0.24221  1.0000
  C   C121      1.0  0.07180  0.68565  0.46390  1.0000
  H   H115      1.0  0.13318  0.75564  0.34941  1.0000
  H   H116      1.0  0.12743  0.77765  0.41122  1.0000
  H   H117      1.0  0.34989  0.92260  0.27331  1.0000
  H   H118      1.0  0.38941  0.85525  0.16968  1.0000
  S   S44       1.0  0.05179  0.74059  0.37833  1.0000
  H   H119      1.0  0.33846  0.82631  0.19315  1.0000
  C   C122      1.0  0.97780  0.70564  0.49093  1.0000
  C   C123      1.0  0.33816  0.87518  0.25587  1.0000
  H   H120      1.0  0.98870  0.74207  0.47018  1.0000
  H   H121      1.0  0.01508  0.69247  0.34383  1.0000
  S   S45       1.0  0.99212  0.77457  0.19457  1.0000
  H   H122      1.0  0.08691  0.68397  0.49736  1.0000
  C   C124      1.0  0.98520  0.67745  0.04648  1.0000
  C   C125      1.0  0.97985  0.69248  0.12529  1.0000
  C   C126      1.0  0.04808  0.66562  0.44051  1.0000
  H   H123      1.0  0.46984  0.91758  0.53254  1.0000
  C   C127      1.0  0.27391  0.71719  0.65572  1.0000
  C   C128      1.0  0.42474  0.80610  0.58101  1.0000
  H   H124      1.0  0.30562  0.67373  0.76140  1.0000
  S   S46       1.0  0.39599  0.69363  0.76541  1.0000
  H   H125      1.0  0.41151  0.90203  0.56480  1.0000
  C   C129      1.0  0.34272  0.73218  0.62213  1.0000
  C   C130      1.0  0.35853  0.67291  0.68632  1.0000
  Fe  Fe23      1.0  0.45896  0.71630  0.76127  1.0000
  N   N12       1.0  0.31040  0.73166  0.67866  1.0000
  C   C131      1.0  0.34410  0.73950  0.66212  1.0000
  H   H126      1.0  0.29801  0.72520  0.73649  1.0000
  H   H127      1.0  0.34927  0.74279  0.74056  1.0000
  H   H128      1.0  0.29195  0.75695  0.71869  1.0000
  C   C132      1.0  0.35227  0.67813  0.72469  1.0000
  H   H129      1.0  0.38852  0.80609  0.58076  1.0000
  S   S47       1.0  0.44099  0.77655  0.65000  1.0000
  H   H130      1.0  0.40693  0.91689  0.95644  1.0000
  C   C133      1.0  0.31227  0.73966  0.72054  1.0000
  C   C134      1.0  0.27137  0.70952  0.61557  1.0000
  C   C135      1.0  0.43707  0.81937  0.55019  1.0000
  C   C136      1.0  0.31072  0.67004  0.73170  1.0000
  C   C137      1.0  0.45884  0.79289  0.61211  1.0000
  C   C138      1.0  0.44033  0.91649  0.95028  1.0000
  H   H131      1.0  0.24343  0.69717  0.59821  1.0000
  S   S48       1.0  0.45360  0.75770  0.75965  1.0000
  H   H132      1.0  0.24732  0.71080  0.66886  1.0000
  C   C139      1.0  0.45936  0.87540  0.60328  1.0000
  C   C140      1.0  0.30622  0.71697  0.59885  1.0000
  H   H133      1.0  0.37007  0.73823  0.60954  1.0000
  H   H134      1.0  0.37258  0.75133  0.67992  1.0000
  H   H135      1.0  0.30515  0.71078  0.56808  1.0000
  C   C141      1.0  0.46418  0.89424  0.95185  1.0000
  H   H136      1.0  0.44957  0.87718  0.95921  1.0000
  C   C142      1.0  0.44686  0.89443  0.57410  1.0000
  H   H137      1.0  0.41055  0.82959  0.52666  1.0000
  H   H138      1.0  0.99611  0.70935  0.52357  1.0000
  C   C143      1.0  0.46001  0.93823  0.94126  1.0000
  H   H139      1.0  0.39021  0.67899  0.68036  1.0000
  H   H140      1.0  0.44224  0.95574  0.94058  1.0000
  H   H141      1.0  0.46369  0.80509  0.94286  1.0000
  S   S49       1.0  0.99011  0.66877  0.99728  1.0000
  H   H142      1.0  0.43382  0.86796  0.61674  1.0000
  Fe  Fe24      1.0  0.56989  0.27749  0.25975  1.0000
  S   S50       1.0  0.52833  0.28985  0.30075  1.0000
  S   S51       1.0  0.64842  0.28616  0.27284  1.0000
  H   H143      1.0  0.53744  0.14863  0.37630  1.0000
  H   H144      1.0  0.83858  0.31697  0.45065  1.0000
  S   S52       1.0  0.55570  0.23700  0.26692  1.0000
  C   C144      1.0  0.73345  0.31020  0.30418  1.0000
  C   C145      1.0  0.71226  0.28839  0.38933  1.0000
  S   S53       1.0  0.52114  0.16308  0.01656  1.0000
  C   C146      1.0  0.55895  0.05868  0.05889  1.0000
  S   S54       1.0  0.51436  0.23887  0.37137  1.0000
  H   H145      1.0  0.56732  0.19733  0.08149  1.0000
  C   C147      1.0  0.75768  0.29777  0.40795  1.0000
  Fe  Fe25      1.0  0.49126  0.24233  0.21063  1.0000
  C   C148      1.0  0.67339  0.30362  0.38464  1.0000
  H   H146      1.0  0.54339  0.21763  0.13755  1.0000
  C   C149      1.0  0.66015  0.18059  0.47850  1.0000
  C   C150      1.0  0.52569  0.20950  0.39569  1.0000
  C   C151      1.0  0.52824  0.18811  0.37350  1.0000
  C   C152      1.0  0.53598  0.16510  0.39389  1.0000
  C   C153      1.0  0.54178  0.16320  0.43671  1.0000
  C   C154      1.0  0.53977  0.18463  0.45904  1.0000
  Fe  Fe26      1.0  0.51114  0.24981  0.30520  1.0000
  C   C155      1.0  0.50322  0.17636  0.05718  1.0000
  H   H147      1.0  0.52951  0.22406  0.45598  1.0000
  H   H148      1.0  0.57446  0.04072  0.05769  1.0000
  H   H149      1.0  0.50125  0.12195  0.06096  1.0000
  C   C156      1.0  0.68407  0.31260  0.29212  1.0000
  H   H150      1.0  0.52370  0.18924  0.34053  1.0000
  C   C157      1.0  0.67548  0.11281  0.46804  1.0000
  C   C158      1.0  0.51995  0.20463  0.11674  1.0000
  H   H151      1.0  0.61730  0.07902  0.05082  1.0000
  H   H152      1.0  0.58025  0.11990  0.05300  1.0000
  N   N13       1.0  0.96326  0.31462  0.05793  1.0000
  C   C159      1.0  0.56215  0.10303  0.05615  1.0000
  N   N14       1.0  0.49335  0.08297  0.06281  1.0000
  H   H153      1.0  0.74866  0.29264  0.30031  1.0000
  C   C160      1.0  0.53340  0.19309  0.08487  1.0000
  C   C161      1.0  0.58290  0.08013  0.05500  1.0000
  S   S55       1.0  0.55335  0.13377  0.46077  1.0000
  C   C162      1.0  0.51409  0.06049  0.06316  1.0000
  S   S56       1.0  0.50801  0.28197  0.20038  1.0000
  H   H154      1.0  0.64112  0.19563  0.45923  1.0000
  H   H155      1.0  0.54424  0.18347  0.49198  1.0000
  H   H156      1.0  0.80125  0.32790  0.33120  1.0000
  H   H157      1.0  0.78776  0.28609  0.41018  1.0000
  C   C163      1.0  0.53152  0.20762  0.43853  1.0000
  H   H158      1.0  0.49920  0.03718  0.49311  1.0000
  H   H159      1.0  0.49528  0.04374  0.06541  1.0000
  C   C164      1.0  0.50456  0.01759  0.49841  1.0000
  C   C165      1.0  0.65772  0.15683  0.46192  1.0000
  C   C166      1.0  0.51719  0.10410  0.06033  1.0000
  H   H160      1.0  0.70716  0.26983  0.37675  1.0000
  H   H161      1.0  0.63657  0.15372  0.42973  1.0000
  C   C167      1.0  0.68030  0.32801  0.39827  1.0000
  N   N15       1.0  0.68003  0.13756  0.48628  1.0000
  H   H162      1.0  0.69596  0.09887  0.49065  1.0000
  H   H163      1.0  0.63784  0.10705  0.45797  1.0000
  H   H164      1.0  0.68813  0.11272  0.44056  1.0000
  N   N16       1.0  0.76408  0.32164  0.42164  1.0000
  H   H165      1.0  0.63815  0.29683  0.36855  1.0000
  C   C168      1.0  0.76342  0.33016  0.32181  1.0000
  C   C169      1.0  0.96084  0.33064  0.12342  1.0000
  H   H166      1.0  0.97423  0.33084  0.15725  1.0000
  H   H167      1.0  0.96358  0.29707  0.00122  1.0000
  H   H168      1.0  0.59583  0.16456  0.67837  1.0000
  H   H169      1.0  0.50741  0.07543  0.66083  1.0000
  H   H170      1.0  0.72969  0.16776  0.57710  1.0000
  H   H171      1.0  0.94553  0.28082  0.63339  1.0000
  S   S57       1.0  0.86923  0.21381  0.71913  1.0000
  S   S58       1.0  0.50891  0.13165  0.65120  1.0000
  Fe  Fe27      1.0  0.57121  0.12218  0.52892  1.0000
  S   S59       1.0  0.63059  0.09468  0.54795  1.0000
  Fe  Fe28      1.0  0.55562  0.11794  0.61391  1.0000
  S   S60       1.0  0.61387  0.09041  0.63771  1.0000
  H   H172      1.0  0.75882  0.13808  0.74167  1.0000
  Fe  Fe29      1.0  0.65510  0.11546  0.60866  1.0000
  S   S61       1.0  0.73447  0.12260  0.63780  1.0000
  Fe  Fe30      1.0  0.58395  0.07214  0.57448  1.0000
  S   S62       1.0  0.57877  0.02978  0.57026  1.0000
  S   S63       1.0  0.59843  0.14425  0.58820  1.0000
  S   S64       1.0  0.52311  0.09841  0.55243  1.0000
  H   H173      1.0  0.94375  0.32038  0.90579  1.0000
  S   S65       1.0  0.97099  0.26102  0.74366  1.0000
  C   C170      1.0  0.83264  0.18824  0.69597  1.0000
  C   C171      1.0  0.85095  0.16519  0.69067  1.0000
  C   C172      1.0  0.82036  0.14544  0.67288  1.0000
  C   C173      1.0  0.77107  0.14841  0.65978  1.0000
  C   C174      1.0  0.75269  0.17150  0.66478  1.0000
  C   C175      1.0  0.78328  0.19118  0.68292  1.0000
  H   H174      1.0  0.88872  0.16254  0.70060  1.0000
  H   H175      1.0  0.83516  0.12772  0.66927  1.0000
  H   H176      1.0  0.71502  0.17435  0.65457  1.0000
  H   H177      1.0  0.76867  0.20891  0.68681  1.0000
  C   C176      1.0  0.49889  0.04276  0.62306  1.0000
  C   C177      1.0  0.54667  0.10800  0.72770  1.0000
  C   C178      1.0  0.54875  0.10296  0.76912  1.0000
  H   H178      1.0  0.57278  0.10026  0.71535  1.0000
  C   C179      1.0  0.96238  0.29101  0.61457  1.0000
  C   C180      1.0  0.51159  0.12352  0.70286  1.0000
  H   H179      1.0  0.57255  0.16685  0.74238  1.0000
  H   H180      1.0  0.72771  0.11018  0.72033  1.0000
  C   C181      1.0  0.73402  0.12386  0.74603  1.0000
  H   H181      1.0  0.75132  0.11402  0.77572  1.0000
  C   C182      1.0  0.54181  0.00923  0.53242  1.0000
  C   C183      1.0  0.51415  0.02437  0.97145  1.0000
  C   C184      1.0  0.93540  0.30635  0.58212  1.0000
  H   H182      1.0  0.52107  0.03990  0.95420  1.0000
  N   N17       1.0  0.68955  0.13546  0.74540  1.0000
  C   C185      1.0  0.67699  0.13667  0.78090  1.0000
  C   C186      1.0  0.66112  0.14546  0.70901  1.0000
  C   C187      1.0  0.63487  0.14808  0.78042  1.0000
  C   C188      1.0  0.61892  0.15711  0.70748  1.0000
  C   C189      1.0  0.60588  0.15848  0.74348  1.0000
  C   C190      1.0  0.96548  0.32784  0.70148  1.0000
  H   H183      1.0  0.69926  0.12864  0.80977  1.0000
  H   H184      1.0  0.67089  0.14423  0.68086  1.0000
  H   H185      1.0  0.62417  0.14843  0.80823  1.0000
  S   S66       1.0  0.50665  0.10283  0.94652  1.0000
  H   H186      1.0  0.57634  0.09117  0.78824  1.0000
  C   C191      1.0  0.51565  0.11311  0.78620  1.0000
  S   S67       1.0  0.52172  0.10690  0.83927  1.0000
  H   H187      1.0  0.89780  0.30781  0.57621  1.0000
  Fe  Fe31      1.0  0.94937  0.22066  0.73972  1.0000
  H   H188      1.0  0.68806  0.20289  0.53360  1.0000
  H   H189      1.0  0.57862  0.00543  0.97438  1.0000
  C   C192      1.0  0.70930  0.16490  0.54468  1.0000
  C   C193      1.0  0.68613  0.18460  0.52019  1.0000
  H   H190      1.0  0.48175  0.01303  0.57921  1.0000
  C   C194      1.0  0.48021  0.12836  0.76118  1.0000
  C   C195      1.0  0.95654  0.31976  0.55717  1.0000
  C   C196      1.0  0.54684  0.00477  0.98307  1.0000
  H   H191      1.0  0.53107  0.03413  0.64252  1.0000
  H   H192      1.0  0.96828  0.29100  0.85999  1.0000
  C   C197      1.0  0.70570  0.14133  0.52721  1.0000
  C   C198      1.0  0.47834  0.13357  0.71981  1.0000
  C   C199      1.0  0.48587  0.06601  0.63310  1.0000
  H   H193      1.0  0.72325  0.12610  0.54684  1.0000
  C   C200      1.0  0.94171  0.33027  0.73069  1.0000
  H   H194      1.0  0.94829  0.32890  0.79610  1.0000
  C   C201      1.0  0.96619  0.32699  0.77295  1.0000
  H   H195      1.0  0.94701  0.33050  0.66851  1.0000
  Fe  Fe32      1.0  0.47749  0.13782  0.96443  1.0000
  Fe  Fe33      1.0  0.93467  0.41818  0.43889  1.0000
  H   H196      1.0  0.93568  0.64526  0.39966  1.0000
  C   C202      1.0  0.97276  0.45173  0.28431  1.0000
  Fe  Fe34      1.0  0.85980  0.38096  0.38467  1.0000
  H   H197      1.0  0.91401  0.36127  0.11991  1.0000
  H   H198      1.0  0.94032  0.38205  0.28441  1.0000
  Fe  Fe35      1.0  0.93218  0.36343  0.46606  1.0000
  H   H199      1.0  0.92570  0.47369  0.30671  1.0000
  H   H200      1.0  0.95434  0.45530  0.25163  1.0000
  S   S68       1.0  0.87891  0.39422  0.45084  1.0000
  S   S69       1.0  0.91087  0.40766  0.37074  1.0000
  H   H201      1.0  0.67975  0.37323  0.31743  1.0000
  H   H202      1.0  0.93574  0.38793  0.21040  1.0000
  S   S70       1.0  0.91125  0.34948  0.39978  1.0000
  C   C203      1.0  0.74432  0.35302  0.32691  1.0000
  C   C204      1.0  0.96909  0.38311  0.23319  1.0000
  S   S71       1.0  0.78025  0.37866  0.35033  1.0000
  C   C205      1.0  0.69494  0.35560  0.31393  1.0000
  H   H203      1.0  0.73155  0.35617  0.42491  1.0000
  Fe  Fe36      1.0  0.96377  0.37706  0.39051  1.0000
  S   S72       1.0  0.94224  0.45988  0.45335  1.0000
  C   C206      1.0  0.95666  0.46197  0.31513  1.0000
  H   H204      1.0  0.94683  0.64533  0.05441  1.0000
  C   C207      1.0  0.93000  0.33143  0.03709  1.0000
  H   H205      1.0  0.62713  0.33776  0.28754  1.0000
  C   C208      1.0  0.92700  0.34783  0.10241  1.0000
  H   H206      1.0  0.94719  0.51267  0.45947  1.0000
  H   H207      1.0  0.93144  0.63874  0.44979  1.0000
  C   C209      1.0  0.66496  0.33551  0.29694  1.0000
  C   C210      1.0  0.72620  0.33684  0.41642  1.0000
  H   H208      1.0  0.65042  0.34031  0.39295  1.0000
  C   C211      1.0  0.91151  0.34832  0.05898  1.0000
  H   H209      1.0  0.94203  0.65845  0.12328  1.0000
  C   C212      1.0  0.96628  0.49432  0.00030  1.0000
  H   H210      1.0  0.88624  0.36209  0.04241  1.0000
  H   H211      1.0  0.82082  0.34239  0.41482  1.0000
  H   H212      1.0  0.81439  0.34408  0.46586  1.0000
  C   C213      1.0  0.96202  0.66272  0.06773  1.0000
  C   C214      1.0  0.97153  0.37976  0.27519  1.0000
  H   H213      1.0  0.96774  0.46482  0.38078  1.0000
  H   H214      1.0  0.88154  0.65236  0.41074  1.0000
  C   C215      1.0  0.92056  0.65216  0.42363  1.0000
  H   H215      1.0  0.91843  0.33229  0.00333  1.0000
  C   C216      1.0  0.81174  0.33167  0.43907  1.0000
  H   H216      1.0  0.94841  0.64387  0.69714  1.0000
  C   C217      1.0  0.90268  0.51940  0.86104  1.0000
  S   S73       1.0  0.89182  0.58595  0.87649  1.0000
  C   C218      1.0  0.52428  0.65165  0.72356  1.0000
  H   H217      1.0  0.93101  0.52072  0.55046  1.0000
  S   S74       1.0  0.89825  0.61256  0.96419  1.0000
  Fe  Fe37      1.0  0.93328  0.58004  0.94430  1.0000
  H   H218      1.0  0.55263  0.65743  0.71201  1.0000
  Fe  Fe38      1.0  0.86213  0.62057  0.89595  1.0000
  S   S75       1.0  0.78564  0.63324  0.88512  1.0000
  H   H219      1.0  0.88761  0.52626  0.88507  1.0000
  S   S76       1.0  0.92087  0.64443  0.88909  1.0000
  H   H220      1.0  0.92926  0.48963  0.99106  1.0000
  H   H221      1.0  0.90149  0.56282  0.55821  1.0000
  N   N18       1.0  0.95426  0.51972  0.87787  1.0000
  C   C219      1.0  0.52741  0.65621  0.76488  1.0000
  C   C220      1.0  0.49045  0.64907  0.77932  1.0000
  C   C221      1.0  0.74530  0.65737  0.80879  1.0000
  C   C222      1.0  0.48445  0.63993  0.69720  1.0000
  H   H222      1.0  0.77600  0.65183  0.80069  1.0000
  Fe  Fe39      1.0  0.95343  0.60942  0.87438  1.0000
  C   C223      1.0  0.95115  0.53282  0.57530  1.0000
  C   C224      1.0  0.74130  0.65051  0.84738  1.0000
  C   C225      1.0  0.70095  0.65799  0.85716  1.0000
  C   C226      1.0  0.96165  0.57188  0.61112  1.0000
  S   S77       1.0  0.93459  0.54032  0.96894  1.0000
  C   C227      1.0  0.96938  0.62507  0.75647  1.0000
  H   H223      1.0  0.49286  0.65305  0.81135  1.0000
  C   C228      1.0  0.93475  0.55643  0.57955  1.0000
  Fe  Fe40      1.0  0.95737  0.63547  0.95683  1.0000
  H   H224      1.0  0.69739  0.65285  0.88689  1.0000
  H   H225      1.0  0.88969  0.53137  0.83308  1.0000
  S   S78       1.0  0.92033  0.33901  0.51721  1.0000
  H   H226      1.0  0.94964  0.59040  0.61469  1.0000
  H   H227      1.0  0.88934  0.50048  0.85187  1.0000
  H   H228      1.0  0.94041  0.63221  0.76566  1.0000
  H   H229      1.0  0.82933  0.65762  0.97018  1.0000
  H   H230      1.0  0.95808  0.48479  0.90767  1.0000
  C   C229      1.0  0.97402  0.63164  0.71756  1.0000
  H   H231      1.0  0.96031  0.55552  0.85413  1.0000
  H   H232      1.0  0.90444  0.33469  0.72057  1.0000
  H   H233      1.0  0.48157  0.63648  0.66492  1.0000
  Fe  Fe41      1.0  0.58515  0.92359  0.05450  1.0000
  S   S79       1.0  0.52522  0.90235  0.06432  1.0000
  H   H234      1.0  0.49065  0.96840  0.03396  1.0000
  Fe  Fe42      1.0  0.65893  0.88425  0.10305  1.0000
  S   S80       1.0  0.60348  0.86083  0.11672  1.0000
  S   S81       1.0  0.73918  0.87850  0.12414  1.0000
  Fe  Fe43      1.0  0.56100  0.86846  0.04932  1.0000
  Fe  Fe44      1.0  0.57240  0.89652  0.13046  1.0000
  H   H235      1.0  0.74021  0.92033  0.17541  1.0000
  S   S82       1.0  0.61794  0.89004  0.03509  1.0000
  S   S83       1.0  0.63090  0.91958  0.12108  1.0000
  S   S84       1.0  0.58111  0.95998  0.01851  1.0000
  C   C230      1.0  0.67742  0.89974  0.22658  1.0000
  S   S85       1.0  0.87487  0.79282  0.22565  1.0000
  H   H236      1.0  0.49871  0.90813  0.30997  1.0000
  H   H237      1.0  0.75965  0.84319  0.25190  1.0000
  C   C231      1.0  0.52316  0.90809  0.25623  1.0000
  C   C232      1.0  0.75049  0.88099  0.23098  1.0000
  Fe  Fe45      1.0  0.95204  0.78040  0.24021  1.0000
  C   C233      1.0  0.49191  0.85951  0.24499  1.0000
  H   H238      1.0  0.85372  0.74097  0.19069  1.0000
  S   S86       1.0  0.97550  0.70075  0.17485  1.0000
  C   C234      1.0  0.77590  0.85372  0.15016  1.0000
  C   C235      1.0  0.75809  0.83320  0.16519  1.0000
  C   C236      1.0  0.78904  0.81498  0.18847  1.0000
  C   C237      1.0  0.83807  0.81665  0.19626  1.0000
  C   C238      1.0  0.85578  0.83685  0.18033  1.0000
  C   C239      1.0  0.82489  0.85533  0.15774  1.0000
  H   H239      1.0  0.72054  0.83163  0.15957  1.0000
  H   H240      1.0  0.77483  0.79941  0.20049  1.0000
  H   H241      1.0  0.89333  0.83844  0.18596  1.0000
  H   H242      1.0  0.83915  0.87112  0.14631  1.0000
  H   H243      1.0  0.71174  0.93905  0.20407  1.0000
  C   C240      1.0  0.69169  0.85757  0.24968  1.0000
  H   H244      1.0  0.65385  0.91547  0.21915  1.0000
  C   C241      1.0  0.51277  0.87013  0.21706  1.0000
  C   C242      1.0  0.73637  0.85906  0.24522  1.0000
  C   C243      1.0  0.95944  0.67020  0.10688  1.0000
  H   H245      1.0  0.62699  0.87707  0.24339  1.0000
  H   H246      1.0  0.91780  0.69071  0.37469  1.0000
  N   N19       1.0  0.86149  0.75284  0.13352  1.0000
  C   C244      1.0  0.83177  0.77265  0.12612  1.0000
  C   C245      1.0  0.89610  0.75137  0.11520  1.0000
  C   C246      1.0  0.83745  0.79218  0.10120  1.0000
  C   C247      1.0  0.90282  0.77054  0.09005  1.0000
  C   C248      1.0  0.87345  0.79115  0.08330  1.0000
  C   C249      1.0  0.85533  0.73307  0.16083  1.0000
  H   H247      1.0  0.80433  0.77375  0.14063  1.0000
  H   H248      1.0  0.91931  0.73555  0.12051  1.0000
  H   H249      1.0  0.81463  0.80822  0.09660  1.0000
  H   H250      1.0  0.87871  0.80637  0.06447  1.0000
  C   C250      1.0  0.48623  0.87314  0.27850  1.0000
  S   S87       1.0  0.95675  0.74046  0.25941  1.0000
  H   H251      1.0  0.93112  0.76949  0.07651  1.0000
  C   C251      1.0  0.73695  0.92362  0.20681  1.0000
  H   H252      1.0  0.82243  0.72274  0.14540  1.0000
  H   H253      1.0  0.78470  0.88177  0.22629  1.0000
  H   H254      1.0  0.67991  0.84057  0.26001  1.0000
  C   C252      1.0  0.66199  0.87803  0.24037  1.0000
  S   S88       1.0  0.55420  0.90925  0.18809  1.0000
  C   C253      1.0  0.50240  0.89746  0.28419  1.0000
  H   H255      1.0  0.53530  0.92698  0.26081  1.0000
  C   C254      1.0  0.52824  0.89458  0.22240  1.0000
  N   N20       1.0  0.72119  0.90099  0.22203  1.0000
  S   S89       1.0  0.48905  0.88716  0.42903  1.0000
  H   H256      1.0  0.77176  0.92943  0.22829  1.0000
  H   H257      1.0  0.88526  0.71986  0.16888  1.0000
  C   C255      1.0  0.93367  0.69493  0.40750  1.0000
  H   H258      1.0  0.51660  0.85946  0.19132  1.0000
  C   C256      1.0  0.47978  0.97494  0.47763  1.0000
  C   C257      1.0  0.49745  0.98389  0.01656  1.0000
  C   C258      1.0  0.95996  0.68209  0.47825  1.0000
  N   N21       1.0  0.93842  0.67699  0.43693  1.0000
  C   C259      1.0  0.53888  0.98442  0.00579  1.0000
  C   C260      1.0  0.95131  0.71865  0.41906  1.0000
  S   S90       1.0  0.51553  0.83985  0.00485  1.0000
  H   H259      1.0  0.94956  0.73250  0.39545  1.0000
  H   H260      1.0  0.84953  0.68560  0.00006  1.0000
  C   C261      1.0  0.97354  0.72397  0.46105  1.0000
  H   H261      1.0  0.47960  0.84065  0.24035  1.0000
  Fe  Fe46      1.0  0.55946  0.71710  0.75656  1.0000
  N   N22       1.0  0.52709  0.91554  0.93654  1.0000
  S   S91       1.0  0.62295  0.69480  0.75183  1.0000
  H   H262      1.0  0.58846  0.89656  0.93255  1.0000
  H   H263      1.0  0.96510  0.66768  0.50151  1.0000
  S   S92       1.0  0.55927  0.75857  0.75134  1.0000
  C   C262      1.0  0.54949  0.80029  0.89674  1.0000
  C   C263      1.0  0.85299  0.67390  0.97433  1.0000
  H   H264      1.0  0.61555  0.81980  0.91771  1.0000
  C   C264      1.0  0.58224  0.81661  0.92302  1.0000
  C   C265      1.0  0.57255  0.82870  0.95630  1.0000
  C   C266      1.0  0.52979  0.82463  0.96376  1.0000
  C   C267      1.0  0.50360  0.93738  0.93428  1.0000
  C   C268      1.0  0.58325  0.86258  0.60554  1.0000
  H   H265      1.0  0.76761  0.68679  0.92597  1.0000
  Fe  Fe47      1.0  0.52777  0.75816  0.80382  1.0000
  H   H266      1.0  0.74642  0.71003  0.85973  1.0000
  C   C269      1.0  0.79538  0.69350  0.91459  1.0000
  N   N23       1.0  0.84146  0.68812  0.93558  1.0000
  H   H267      1.0  0.58771  0.85451  0.57679  1.0000
  S   S93       1.0  0.48740  0.71376  0.70769  1.0000
  C   C270      1.0  0.66863  0.67854  0.79000  1.0000
  C   C271      1.0  0.70894  0.67102  0.78018  1.0000
  C   C272      1.0  0.87650  0.69630  0.92097  1.0000
  H   H268      1.0  0.48108  0.78378  0.88423  1.0000
  H   H269      1.0  0.89345  0.71493  0.87124  1.0000
  H   H270      1.0  0.52363  0.94703  0.51602  1.0000
  H   H271      1.0  0.91314  0.69236  0.93789  1.0000
  C   C273      1.0  0.51780  0.96658  0.51104  1.0000
  H   H272      1.0  0.59837  0.84098  0.97635  1.0000
  C   C274      1.0  0.48373  0.81947  0.55008  1.0000
  H   H273      1.0  0.52630  0.87677  0.94677  1.0000
  C   C275      1.0  0.54824  0.98360  0.53835  1.0000
  H   H274      1.0  0.54908  0.89865  0.55149  1.0000
  H   H275      1.0  0.55396  0.80604  0.58114  1.0000
  H   H276      1.0  0.53206  0.78285  0.63564  1.0000
  C   C276      1.0  0.86558  0.70923  0.88333  1.0000
  H   H277      1.0  0.63481  0.67790  0.83738  1.0000
  C   C277      1.0  0.51781  0.80620  0.58108  1.0000
  S   S94       1.0  0.53105  0.71670  0.81057  1.0000
  S   S95       1.0  0.56434  0.78562  0.85549  1.0000
  C   C278      1.0  0.81854  0.71423  0.86115  1.0000
  C   C279      1.0  0.50661  0.79627  0.90409  1.0000
  C   C280      1.0  0.49688  0.80840  0.93740  1.0000
  C   C281      1.0  0.50552  0.79304  0.61206  1.0000
  C   C282      1.0  0.78319  0.70660  0.87706  1.0000
  H   H278      1.0  0.59856  0.92672  0.95557  1.0000
  H   H279      1.0  0.57700  0.97685  0.56440  1.0000
  C   C283      1.0  0.52443  0.89248  0.56696  1.0000
  C   C284      1.0  0.50467  0.86536  0.61395  1.0000
  H   H280      1.0  0.51353  0.85008  0.63574  1.0000
  H   H281      1.0  0.57120  0.92334  0.89986  1.0000
  C   C285      1.0  0.57358  0.91547  0.93073  1.0000
  H   H282      1.0  0.80936  0.72378  0.83148  1.0000
  H   H283      1.0  0.61102  0.87662  0.61842  1.0000
  H   H284      1.0  0.58821  0.84738  0.62854  1.0000
  H   H285      1.0  0.51937  0.95445  0.92848  1.0000
  C   C286      1.0  0.66523  0.67219  0.82902  1.0000
  H   H286      1.0  0.88955  0.66664  0.98349  1.0000
  C   C287      1.0  0.50779  0.89411  0.94488  1.0000
  S   S96       1.0  0.50183  0.83728  0.51391  1.0000
  N   N24       1.0  0.53642  0.87383  0.59562  1.0000
  Fe  Fe48      1.0  0.48517  0.75527  0.70755  1.0000
  H   H287      1.0  0.55823  0.66543  0.78542  1.0000
  H   H288      1.0  0.71204  0.67574  0.75010  1.0000
  C   C288      1.0  0.47963  0.90317  0.55599  1.0000
