data_image0
_chemical_formula_structural       FeS2HSFeSFeS2FeS2FeS2FeSFeS3C2FeS2FeCFeCS2FeS2HFeSFeS3H3FeCH3C2FeS2FeS2H2FeS3CHNFeHSFeS2HC3HC6H4NH5C6H4C2SCHC3H2SFeCNH2FeC2H2C3HC2H2SHC6H4C6HCH2C6H4C6H4NH2CSC3HCHCHNHFeHNCHC2S2HC2NC6H6CH4NSC3HNH2CNC2SHC4HC2SH5CH2C2H3CHC2NC6H10FeNC6H5C2HCHCHCHFeS2CH2CH2C2HC2HCSHSHC2H5CH3CSH4C4NHCHFeCHSHCSHC5HC2H3SHCHCHCHCHCH2CH3NH2C2HCNCHSH3CHCS2CHSH2CSHSFeSHFeS2FeS2FeSFeS4FeSFeS3CFeS2FeS2FeSFeS3CSFeS2FeS2Fe2SFeSHCHC5H2SC3H6SC6H5C6H4C6H4C6H4C6H4C6H4SHCHFeHCH3SCNFeC8H4C3NHCHSH2C2HC2HCSHNC6H8SCNC6H5C2HC3HCNC3SHC2HCH6C3HC2HSHCH2SHFeCH2NHFeHCH2NHFeNCNC3NC3HCH2CH2CFeCH3C3HFeC2H3CH2NC6H8CSH3SCHCHSNC2NCH4SHC3H2C7HNSH5CH2CHCH2NFeCH8C2HSC3H2C3H2FeCH2C2SH3CH2C2HFeHFeH5CH2C2HSFeCFeSHFeSCFeSFeS3FeSHFeCSFeSFeSHCHCHS2CHSCH2CNC4H3S2H2C2SCSCN2H2C4H2C7HNH3CHSHC4SHSCHC2H2CH2CHC3FeS2H2SHC6H6CHC3HCFeHCSH2NH3C4H2CHFeSCH2FeSCH2CHCSH2CS2H2CHCH2SH2FeCH3SC5SH2C4HC2HCSHCHC4SCHCNSC2H2NSHNH2CHCHC2HC2FeH2C2H3C2SH2CHC2H3C2H2FeCHSHCSCFeNHC2SHFeS2FeS2FeSFeS3NHFeSHC2SNSFeH2CSFeHSCFeS2FeS2FeSFeS3C2SC2SFeSFeSHSH2C7H3C6H4C6H9CHC5H2C4H2SC2H2CSC5H3C6H5C5H3CHC7H4NCHCH2CH3FeC4NH3CH2CNC2HFeSHCHC4H4CH2C2S2FeHSH2SNC5H3C2H2CHNC3HC3HCH4FeC2H3CH2N2C2HCSCH3CH3C4H2NC4H5CHC2H3CHCSCSFeHCH5SH2C5S3HCFeC3H2C2FeC4H2CH2CSCH2NH2NC2SH3C2H2CH2NH3S2HFeSCH4CHS2NC2HCSCFeCHC2HC3HC2H2CHCH3CHCH2FeC2H2CHCH3CH2CHS2CH2CFeS2FeS2FeSFeS3H2SFeSFeSHSCFeHSFeS2HCS2FeHCFeS2H2FeSH2FeS2FeS2Fe2CS3H2SFeS2FeS4H2SHFeS2CHNC7HC3H2C3H2CH4CH2CFeHNHC2SC2HC10H5Fe2NH7C2HSH3C2HCFeH2C2H2SC3HC6H4C6H4C6HCH2C2H3CNC6H5FeHSHC2FeCH3NC6H8NC6H8CHSNC4H2SCHC2H3CH5CSHC2H2FeCS3HCHCFeCHC3HCH2C3FeHCHCNC2HCNC5H2CHFeSCSH3SC4H2CSH3SCHCFeSC2SH2C2SHSC2H3CFeHNCHCHNSHFeNHFeC3FeCH2CFeC2HFeHC2HFeH2C2HC2S2H3FeH2CHSCHCSHCHCS2C3SH2SCHFeSFeSFeS3FeS2FeS2FeSFeS4H2CH3CS2FeSFeSH3SFeS2FeHFe2S2HFeS2FeS2HCH2CHCH2FeSHC6H5C2FeCH3CS2CHC6H3C6H4C6H4C6H5CSCH2C4H4C6H3SCSHC7HNHCHCSH2C4HC2HCHCHSHCFeCHCHC3H2CSH2CHC2HSH2NC5FeH2C3H4CHSHFe2HC3HC2HCNH4C2H2NC2H3NC6H8NC6H8CH2CFeNHCH2CN2C2H6CH2CH2CHCH4CHCNHC2HNC7HC2SHCHCH3FeCH3CHSHC2HCHCH2CH5C2FeS2FeS2FeSFeS3FeHCHSH2SH2FeS2FeS2CSH2CS2CH2SFe2S2FeSHC6HSH2C2HNCHC6H4C6H3CSC6HC6H4C6H4C6H4C7HNSCHC2HSC2HC4H4FeH2NHFeCHSCFeHSFeSFe2CS2C2SC2H7NC6H8CFeHC2Fe2HCSHS2H2C2S2HNHSHCNHC2HSC2H2CHNHFeC2SCHC2HS2HCS2NC6H8NHNCH2CFeH2FeCH5CHSCHCHC2HC3SNHSCH3S2H4SCHC2SFe2HNSHCH2CH3CHCH2SCHCN2SH6C2HNC6HCH2FeHNHCH3C4HCH2CHCH2CHC7HCFe2H3CHCHCH2CHCHCHCH4FeSCH2C2H2CSHNSHSHFeS2FeS2FeSFeS5CSH2FeSFeS3C3SHC3HSHCHSCNH2CH2CH2CHCSCHFeHCH3CH3CH2CH2C2HFeCNHC3FeHCFeHC2HCH4CHFeSNC2SC6HCH4C6H2C8H6FeC6H4C2H2CHC6H4C6H4C3H2CHSHC3NCHCH3C3H2C2HNCFeC2HCSHFeCH2CH4SCHS2C2NHSHNCFeCFe2CS2HCNC7H7CH2CHCHSCHNC6H8CSCSFeC2HCH3CH2NH3CFeHCHSC3HSCSCH7C2HC2SCH2FeNC3SCHC4HCH3C2HSHS2HCFeHSHNH2FeC4H2CH2CHSCH2FeCH2CFeS2FeS2FeSFeS3C2SCSHFeS2FeHFeSH2SCHCSH2SCHS2C2HSH2CS2C3HCFeS2H2FeHCH2CHSFeHSHSCHS3FeS2FeSFeS3H2C3H2FeS2FeS2FeSFeS3FeSC6H4CHC2FeHC2HSH2CHC7H3C2H2SC6H4C6SH3C2HFeHFeC2H3SC3SH2SHNHC6H4C4FeHCH4FeCH2C6H4C6H4C6H4C6H4CS2CFeH3FeC2SFeNC6H8C2HFeNH5S3C2HSHS2C2SHCHCH2CHCSH3CH2C2H4C2H2CSCHCHC2NFeNC3FeCHFeH5CH6FeCFeH2CHCH2NC2HCNC2HCHFeHCHNC5HCHCHCHSC3HSHCH2CH2SNFeHCH2C2HSC2NC6H3NH2FeHNCHCHC2H3CH3CNHCHSHSCHSCFeS2FeS2FeSFeS3HFeC2FeSCFeS2FeHFeS3FeCSHNH2CSHNSFeCH3NHSHC8FeS2HC4SNHCHFeS2FeS2FeSFeHS2CH4C4H2C3H4C3H4CH3CH2CHC2H3CH3CHNH3CHC2SH2CSC4HCSHC3H3SH2C3HC6H5C2H2C6H4C2HC3HCH2C6H5C4H6CHNHC2NH2SCHC4HC3H5C2H2C2H2C2HNCHSCHCH4CH2SCHCH4C3HN2H2SHC2HCH5CHNC6H8C2HC2HC3H2NHCH2C2HCSC2HNCSHSHCHFeCS3CH2SFeS2FeS2FeSFeCS2NFeSHFeSFeS4CSCHNFeSCFeS2FeHCS2HCHSH5C2FeCH4S2CFeS2FeS2FeSFeS3HCHCH2FeHSH2CHCHC2H3SHNSH2CH3C8H2C6H4C6H4C4NH2C6H4SC3HNHSC2SCFeHCHCHFeCHCHC6H4C3SC2H2CHC6H5C4H3C2H2C2NHC2HCH4NCH2C2H2C4H4SCHSHC3H4SHC4HFe2HC3HSH3C2HNCFeH3CH3FeH2FeC3H2SHCNC6H3NFeH3CSCSH2SC3HCFeHSCHCH4C2HSCH2CNHCH2NC3HC2HCSC2HSNHNCHC2H6C2HFeC2SH2CHC2NHFeC2HC3SC3HC2HCFeS3H2CHC2FeH4SCH2C4SH2C2FeCH3CHCH3CSC2HSCH2FeHCHCSHSHCHC2H2C2H2C4HC2H2C3NFeS2C2H2FeHCFeS2FeS3CFeS2FeCSCN2HS2CSFeSHC2FeHCFeS2FeS2Fe2S3HCFeS2HFe2SHC6H4NHSC2H3CFeC6H4S2HC3HCSCFeC3FeH2SH2CH2NCH3C4HC2HC7H4CH2CHSCHSHC3H2CHC3HCHSC4H2CHC2H2C4H3SCHCFeCH3SH2SC3FeS2H3C2HNH2SCH3C3H2C2HCHCNHCHCNHC3HSCHCSH2CH9NC2SHC2H2CHCHCHSHC4FeH4C3HC4S2H2CNC6H4CHC2H2SFeS2HCH2CHNC2FeCHCFeH3CH2C3HSHC3HFeCH2FeHCHCHCHCH2CHC2SH3SHCH5FeCHS2C2H6SFeHCNH2CH2CSNC2H2C4HFeHC2SCFeH2CFeHFeSFeHSFeHSFeS2FeSFeS2Fe2CS2FeSCFeS2Fe2S2FeSFeSFeS3HCS2HSFeNFeS2C7FeH3C4H3SC4H2C4H2CH6C2NCH2C6HCH3CHSHFeH2C2H2C6H5C3H2C7H2C4HC2HS2HSFeHNC6H9SCH4NCSH2FeH2SHS2H3CH3C2NS2CS2FeHC2FeCH7CSH2SCFeCS2CSFeH2SHFeCHSC2HFeCHCH4CNH2CSHC3H3SCH2FeC2NCHCHC2SCHCHCH2SCHC3SH2CHFeHSH2C3H2CNFeHC2HC2FeCS2H2CS2H2C3NC6H7SNHC2SHCHC3FeNH2NC6H8NC6H3SHCHCHCS3CHCSCHFeNC6H4CHCN2H2CSCH2FeH4C2HCHNHCH3CSCSH3CHCSC4H4CHC4SCH2CH3CFeC2FeCHCH4CHCHC3FeSFeSFeS2CHSCHC3SHCHFeS2FeSHNSCFeHFeHSHC2H2SH2FeS2FeS2FeSFeS3C4H2CH2CH2CSCH3C2HCFeH5C6H4C2NFeC2H2C5FeHC3HC2HCHCSHCHC4HSHCH5C2SCSHCH3C3HCSCSC2HFeH2SHC5FeC6H4CFeC6H4C6H3C6HCH3CH4C2NHSHNC6H8C2NCHC2H4CH2NC3SFeHCSN2SC2HSCSHC2SC2HNH2SHC3HC2FeH2SCH5NCHSFeHCHCHCNCHCHC2HCHCHSH3FeHCHSHCHCH2FeH3CSHCH3SC2HNC2HC3H2CHFeH3NSHSHSCFeCSHCFeCHCSHCHFeHCSC3FeH2CHCHSH2CH3CHC2S2H3CH3NFeCH2CHCH3CHC2H3SHSC2SCHCNC2SFeCHCH3CH2CHSCHFeS2FeSFeSFeS3FeS2FeS2FeSFeHS2FeS2HCFeS2HCNHNHC3HNSCNHCS2H2CHSC2SHCH4CNCHS2C2FeSC2H2C2HC2NCH3C3HCH2C2HCHCHCNCSCSN2C2HSC5H2CH2C7H4C6H2CHC6H4C3H2C3H2C6H5C5FeH5CHC2HSH3CFeC6H4FeHCHCHCHC3H3CHCH3C2SC2HC4FeH2C2HSCSH2CHCH3SCHCFeHC3H2CHSH2CHCH3CH2NHCH2FeHSC3HFeH4SC2SCHSHCFeCHC2H3C2S2FeS2FeS2FeSFeS3FeSFeS2HSFeSHCSHFeSC2H3SCFeCHSC4N2H2C2HCHFeNSCFeHSHCSHFeS2FeS2FeSFeS3HCSCNHSC5H2C6H3C2SHC6H4C6H4FeHSCHC5SH3CH2C2SHCHC2H4CHFeC2H2CS2HFeC6H4C2H3CHC2HC6H4C6H4C4HCHSHCFeHCH2FeSFeCH2CH5C2HNC5H2CHCHC2HCHNC6H8NCH2FeH3CH2CH3C2HCHCNCHC2HSH2NCHFeHFeCH4C3HCSC2NC6H8CHCFeCH2CHNH2C4FeC2NSCS2CH2SCSHSH3SH4SC3H2FeHC2HCH3CHCH3CHCSCHCH2CNCHNC2HCHCH3S2CHCHC2H2CS2HCHFeHSCH2CSC4HSHFeS2FeS2FeSFeS3HCFeS2FeSFeSFeS3FeS2FeSFeSFeS4CHCFeCSHC2S2C2S2FeS2FeSHFeSFeS3CSCSHC3HC2NSHFeCH2C6H6SH2CHC2NSCHC4HCH2C6H2C6H6C9H6SH3C6H4C6H4C3H2C5H3C5FeH3CHSH2SHC2H2CH2CH3N2HC2HC4SCSH2CFeSH3CH4C2HC4H3FeHS2CH2NFeSHCH4CHCHCH3NH4C2HC2HC3HCNHCSHCHFeCHCHNSCFeHCH3C3H4C2HCHC2NH2SHCNC2H3C2H10C5H2C2H2NC6H9CFeCHC2HSH2SFeHC3HFeCHC6H2CH3CSNH2SN2HSC6H3SHSCNHC4HCH2CH2C2HC2HC5NCSHNCFeS2FeCFeS3FeS2FeS2FeHFeS3H2SC3HSFeSNFeSHFeS2FeS2FeSFeS3C6H4C9H4NC2SC5H2C6H5C3H4NH2C2HC3HFeH2C3FeCH2CNC2H3CH2C3HC2SCHC4H3CHC3HC6H3C5H2CH2CSHSNSC2H2C2HNFeH2CSCH9CH2C3NH3C2SFeSHC4SCH4CH2FeCH3C2H2C2H3C2SH3NC6H2C3H3CH3CHCH3C2HCSC2HCHC2HCSNHSH2CFeH3CHCFeH3C2SHCHC2H2SH2CH4C2H3C2H3SHSHSCHFeH2C2SHFeS2FeSHFeSFeS4FeSCFeS2C2HCFeCS2H2FeSFeHC2S2C2FeSH2Fe3SHS2FeS2FeS2FeSFeS3FeSCH2C3SHCNHS2HSC2HC3NH2SH2S2HCHCFeH2CH2SHC3H2NC6H4C6H4C7H3CH2C6H5C3HNH3SHCH4C3HCH2C3H4C6H4C6H4C6HCH2C2HC2NC2HC2HCH2C2H4C6H5CFeH2C3H2C2H2NC6H3CH4CNHSHCH2FeH2C5HCNHCSH3FeH4CHC2SNSCNHC2HFeH2CSNC6H2CH4NC5H6CSFeSCH3SC2FeH2CHCHSHCH6FeHCH2CHSNHCSHC2HNCH2SNHC2H3C4HC2HC3H2SFeS2FeS2FeSFeCS2CSHS2CSC3SHNHS2HFeCSFeCHFeSCSFeS2FeS2FeSFeS3C3H2C6H4CHC2H7C4HCH3C6H4CNC5H7CFeHFeHCSHC5H2C6H4C6H4C6H3C3HCSNC4H4NSHSCH3CH3SFeCHC2H2CHFeC2HSH2FeHCH3CH4CHNC6H6CSCHC2HCHC2HCH2CH2NSNC6H8CHCSHC2HC2HSCHC2H2NC3HCHCSHSH3C3H2CH2FeS2CH2CSH7C3HSHC2SHSCN2CHCSHC3FeCHC2H2Fe2HFeC2HFeH5CH2SHCHC3HCSH3S3H2CH2SCSH2CH2CSHCFeNH3FeCH2SC2HC2H2CFeS2FeS2FeSFeS3HFeHCFeS2CFeS3C2H3FeS3HCFeS2CFeSFeS3FeS2FeS2FeSFeS2FeSFeHC2FeC3H2S2H2FeH2SHC6H4CHNC3H2C3FeC2H2C6H5C6H4C6H4CHSH5SHCSHC3H3C6H4C6H4C4H3SHSCH2NC6H10SCHC3HSCNFeH2NCSH3NC6H7S2H2CNCHC3H5CHC2HCHCSHSCHCSCH2C2Fe2SNSH2CHNC6H5CHCH2CHSFe2C3HCNFeC2HCFeH2CHCH2SC3NHC5H2SC3HFeH3SFeC2HC2H3C2HCHCS3HSHSC2HFeHSHCHFeH3CHCFeH4Fe2NCHC3H2NCSC2H5SH2C2SCHNHCHC3HC2HC4HSFeCH2C2HC4H2NC2HC2HSHNCH3S2CHCHFe2S2FeS2FeSFeS3NC3HFeSH4CS2FeS2Fe2S2FeS2FeS2FeSFeS3C3HCFeH2SH2C2H3CH2FeHSFeS2FeSHS3HCSHSCHCH5C4HCH3C2HCH2C2H2CHCH2C2H2NH2SCHC6H5CH5C4HCH4C3HNCH2C8H4C6H6NFeC7HSH2C6H4C6H4C6H4CHCSC4H2C2NSH2C3H4SCS2C2H3FeCH2SNHSHC2H2CSCH2C3HCH6SC2H3C4NC2SC4SC6NC4H6FeH2FeCH3C4HCNHCHCHCH3CHC2HNC5H3CH3CHC2H2CH2FeH3C3SC2HSCSH3CH5FeC3HSH2FeC2HSC2HSH2S2HCHFeS2HSCFeSFeSHS4CHFe2CFeH3CFeS2HSHFeS2FeSFeS3C5NHSHC2HCH3SH2C3H2CH2SFeCHCHSNH2CHSH3CH2C2H2CH2CSFeHC4HSCH4C6H5SH2C7H2NH2CHCHCHFeCSH3C2H2C5HCH3SC6H3CFeSCHCNHC2H2SCSNFeHCHCH2CH4C2H2C6H3CHFeH4CSHCH2CHCNC2NC4SH2C2FeC2SHSH2SCHFeS2FeH2Fe2SHSFeS2FeS2FeSFeS3CHFeS2FeS2FeSFeS4C2HNHFeSHCSHS2C3FeSCHCSFeSFeSFeS2HSH2FeS2C6H4C2HSHSC3SHC7H4C6H4C6SH3C7H3C6H4C3FeH2NC6H6C6H4CHCH2SHCFeC3H2CHC3HC2HC2NSH5CFeHFeH2C2NHSCH2CHCH4CHCHCHCHCFeNC2HC2SCH7C4HSHC2SH3CFeHC2HCNCHSCNC2HCFeCSNC4NCH4CH3C2NHCH5FeCH5CHCHC3FeHFeHCH3CH3C2FeSHC2HSNH2CH4C2HFeNC6H8C3NC2H4NCH5NC3HCHS2HC2H5C5HCHSC3H2FeHCHCH2SC2FeS2HSHFeS2FeS2FeSFeS3FeSFeSFeHFeSHSHSH2FeS2HFeS2FeHFeS2HCHCSCS2HFeS2FeS2CFeS3HFeSCH3CHC4H2CH2C6H5C4SH2C7H4C6H4CH2CSHC6H4SC6H4C6H4C6H4C6H6CS2CH2CHNC6H8NC6H8N2C3HSH3FeH2SCNC6H8C4NCHCSH3SNCSNC2HCFeCH2FeH6CHS2H4SC3HSFeC2HCH2C2NH3C2HFe2HFeNC8S2CSHSCH3CFe2CHC2H3FeSH3CFeC2H4CH2C2HFeH3CSCHSC2H4C2FeH2SHFeS2FeS2FeSFeS3FeSCHSCFeS2FeS2FeSFeS3H2C2H2CHFeSHC2HCH3CH3SHFeS2FeS2FeCFeS3HFeS2FeS2FeCFeS3FeSC2S2HC2NHC5HFeH2SH4C4SC2H2C2HC6H4C2H2CHCH4S2CSH4CH2SHNC3HC2HC2NHCH3C6H5CHC6H4C6H4C6H4C2H2NCH2CH2C4FeH3CH3C2SH2SCHC3NSCHCHCH3C2HNH2C2SFeHC2NC2HC2HC2H2CNCHFeC2H2CHC3HNC6H4CH3NC6H9C3H2FeH5FeS2FeS2FeSFeS3HSNHFeH2C2HC2HC2HSHFeSH2NH2CHCS2FeSHSC3HCFeS2FeS2FeSFeS3HCNHSHC2FeHSHSH2CHCFeS2FeS2FeSFeS3C6SH4NC7H4CHSC6H3C2FeHC3H4C6H3C2FeCHC4H5C6H4C5H2CNHCHC6H6C2H3CHNCHC3HC2H3C4H3C7H4C6H5SCH2SH9C2HC3NHCSC2HNCHCH3CHCHNCHCFeS2FeC2H2CHC2HCHCHC3H3SC3H2C3H2SC3H4CH2C4NC2HCH2SCHSH2CH3CH2SC4H3CSC2NCFeCHC2H2C3S2H4NHCH2C2H2C2H2NCSH3S2C2NC2H5SH2FeH3FeSCHSHCH5FeS2FeS2FeCFeS3CSHSFeSHSFeS2FeSFeSFeS2FeSFeS3CHC2HCS2CSFeHNH2CFe2C2SH4SC6H2C2H3CHC2HC5H2CHC6H4SCSC6H4SCHCSHC2H2CNHNCHCSCHC6H4C3H2C6H4CHC2NCH6C5H2CHSH2SNHC2H2CFe2H2C7HC2H6NH4CH5FeNC2HNH2SCHFeCHFeHC3SC2NC5H7CNSC2NH3C2HC6FeS2H2C2H4C4HC2NH2C2HCHSHS2CHCHSCHC2H2SHSH2SCFeCHCFeHSC2HSH2SCHNHC2FeHFeHSCHCH2FeCNH6CHC3FeCFeHC2H3NCH2CSCHSCHCHCSHCHCHC2HFeCHC5H3SFeS2FeSFeS2H4CSHSHCHFeCFeS4H3SH3N2C2H3FeS2FeS2FeSFeS3H2SH2FeS2FeS2FeSFeS3CHFeS2HFeSHS2HSC2HFeC6H4C6H4C6H5CFeC4SH2C2H2CSHC6H4CNH3C7H4C6SH4C6H4C2HCH2CH2C3H3CHCH2C6H4C6H5CSHCH2CH2FeHC2NHCH2CH3C2H3NC6H4SCH2C3FeCHC3NHCFeHNC6H5C3NSC2NC6H3NHNH2SCH2C2NCH3SH4CSFeC3H2SCH4CHC2SCS2FeC2HSHC4HC2HC2HNH2FeH2CH2CH3FeH8C3HCS2H2C2FeC2HCHCHSH2CHC2HSCNHCHSCHFeS2FeS2FeSFeS3CHC2SFe2C2FeS2FeSHFeS2Fe2S3CHCHSHCH2SHSFeCSNCSHFeS2FeSCFeSFeS3C3SHCHS2CSHC5H5CHCSCFeH3C6HCH3SHC5H3CH2CHC2H2CH2C2HCHC5HCH4NHSC3H2C7H4CHCSCS2H3C2SNCSCSC9H4C6H4C6H5C3HSCH2CHCHCSHCH2C3NH3CSC3H2CNC6H10CHCHCSCH2NHFeHNCHC2SC2H4NCH2FeC2H5SNCHCSCH3C3HC2H4NC4H3CFeSC3NSH3CFeH2C3HC2HCH3SC2H3C2FeHNCHCH4NC2FeCHC2HSHC2H2FeHCFeH2CH8C2SC2HCH2CH2C2FeNH2CSCHFeHCH2CHNH2NH3SFeCHCFeC2HFeS2FeH3SCHSHNHNC2SHC2FeHSFeH2CSFeCH2C3HC2HC2NHFeS2FeSC2SCNHFeS2FeS2FeSFeS3FeSHFeS2HFeS3H2C2HCHCH4CSCHCHC6HCSHC6H5C3HC2HC8H5C2SH2CHCHCHCHC3H2SHCHC2HC3H4C2FeHC2H2CH2NFeCH3NFeH4SCSC6H2C2NFeCHSHSCHC4H4CSCSCHSCHCH2C2H2C3HSH2CNHCH2CHC6H2CHC3FeS2HC2H11C3HCH2CHNC2HC2HC4H2CS2HSC2SHCH2SCHCSH3SHSHCH3SH2C4SFeC3H3CHSC3H5C3FeS2FeS2FeHSFeHCFeCHS2FeCHSHS4C2H2C2NCNH3SFe2HSHC3FeSCSCHFeS2FeSCFeHFeS5CHFeSFeS2FeS2FeSFeS4Fe2HSHC4FeCH4C6H7C3HSHSCHFeC4H5CHCH2C7H7CFeC6H2CH2C3H4C2HC2HC5HC6H2SH6CH2CH2C2HFeHCH2NSNHC6H4C6H5NHCH2CHSHCHC2H2NC2H3SFeC3SNH2C3SFeC3HNSC4SCNSH4CSC2H4CH3NSH2CHCHCHC2NC6H9C3HCHFeCHC2HCH3CHCFe2CNCFeH2FeCH2SHC3H2SHCHSHCHC3H6SNH4C2HCSC2HCH7CH2NHCHCNCFeS4FeS2FeS2Fe2CS2HS2HSHSFeSCHC2HFeSCHSHCH3C2SFeS2FeS2FeSFeS3HSFeNHC3HFeHS2HC2HSC10H4C2H3SH2SHCHC2SH2FeC6H5C3H2C6H5CHCHC3H2C5H2C4H3CFeC4H2C6H5SC2HCHSHSHC4FeH2SH2CSCSNFeCSHCFeC2HSHC2NSH2C3FeCH2C5HSHFeCH3CH2CSHNH2C2HFeC2HC2H2CH2NC5H2CH3CNC2HSFeH3SCH2CHCHSHCH2CHC4HC2HCH3C2H2CHCFeHCHFeHCHFeHCH2CH5NC6H8SNCNHCH6FeC3SCHCH2SH2CSC3HC2SHCFeH3FeHSCHSCHFeSNFeS2FeSFeS3H4C2SCSCFeSHCFeS3HS2FeS2FeS2FeSFeS3CS2C6H4C4H5C2HC5H2C6H4CHC6H2C2SC4SH2FeSC2H2C2H4CH3C6H4C6H4CFeH2CSC2H7CNC6H8NSNC2HCSH2NC3SFeHNHSFeHCHCNHCH3SC3FeCSHSCH2C2FeHC3NCHSC2SHNCHC4FeHCHFeSCHCSNHFeCH2FeHCH2FeH3C9H2C3HCHCHCHSH6CHSNSCHCSH2C2FeCHCHCH2CSCHCHSC2NHFeHSH3SHNC2HFeHC3H3CNC2HCSCH3CH3C2H2CH2SH2CHC2H2C2H3SH2CH3CH2CS2H2FeHFeC3HNH2C2HCFeSC2SCHFeS3FeH2CH2C2FeSCFeS2FeSFeHSHSC2HFeS2FeS2HFeS2FeS2FeSFeS3FeS2CS2HSC2H2C3HC6H2CHC6H4C6H4CSC4HFeH2C4HCH5SFeC6H2CH3NHCH2C6H5CHCSC6H6SC4HCNCSH2SFeCH3SH2C2HSH2NCH4CNCH3C3HCHC3H2CH2NSCFeNC6H7CNC6H5CHCHSHCHSCHCH2C3SHFeCHFeHC2HC2H2CHCHNHC2H3S2H2FeHC2FeC5HCHCH3SFe2H2SH2CNH2CHC2NH6C2H3FeS2FeS2FeSFeS3FeSH2C2FeSC2FeSFeC2SFeCFeH2SCHS2C2NFeS2FeS2FeSFeS5NC2H3FeSCHSH2CH4NC7H4C6H4C2SFeC4FeSCH3SHC6H4C6H2CH3CH3CH2CSCFe3CH3S2CHC6H4C3H2CH4C6H4SC5H3S2CHCHC2HCHS2H2CNH2C2HSCHSC2NC6H3CH4NHCH3N2HC2FeC2H2CFeC2FeC2NH3SHCNC3H2CH7FeNC6H2CH5CNC6SC2FeCH3C3HC2SH2CH3C2HCSH2CHS2HC2HSC3H2C2SH2C2HCH2CS2C2SH2SC2NSCNHCFeH3SC2SFeC2SHCH2SH5SCSHCSHCH5FeHCH4CH3CHC3H4CHC3H4CHCH3NCNSCHC4HC2FeS2FeS2FeSFeS3HS2CH2SCSCSFeS2FeSFeS3HCSC2SFeHCHFeS2CHCFeHSHSHCFeS2FeS2FeSFeS3FeHSNFeS2HCHSC2H2SHC6H5C2H3CHNH3CH3CH2SC4HC3HCH2C6H3C6H4C6H4C6H4C6H4C5H3C2HC6H6C2SFeHCH2CHCHC3SFeCH2SHC3SH2CH4SHCNCH3SCFeNC5HCHFeHC2NH4CH2CSCHFeHCH2CSHCH2C2HCHNH2CHNCH3FeCSHCHC2HCH2NCH2CHCHCH3FeCFeC2HCH3FeHCH2CH2C2H2Fe2HCH2SH2C2NC2FeHSHC2H3N2CHC2FeC2HSCHC3HC4HC8HCHCS2H2C2HCNHSC3H2NCH2CH5SHC2H2CFeNC2HFeHCHCHNCHC2H4C2NS2C2FeCHCFeHCH2C2HCH7CHSC3HC3HNHCHC2SH6C3FeS2FeS2FeSFeS3HFeCHSH2SHCSH2FeS2FeS2FeS2FeSFeS3HSHC2NHC2H2SH2C2H2SCHC6H6C2HCH3NC6H4C7H3C2HC3H4CH3NFeH2CNH2C2HC2HCH3C3HC2H2C3HCSHCHCHC2HCH2C4H5C2NHC3H5CHNHCHC2NH4C2HC8H2C2H2C3SCSFeCH2CSNH2CHSCHSH2FeCHC2HCNHC2HSH3CHCHCH3SCSCSH2S2FeSFeSFeHSFeS2FeS3FeS2FeS2FeSFeS3H2S3FeS2FeS2FeSFeS3HCHSCHSC3HC2H4C6H3C6H4C6H4C6H4C6H4C6H4C6H4C6H5C5H7NH2NSH2CHCSH3CH3CHC3HCSCHFe2CHFeNH2C2HS2C2HCNCH3CHC4HCHNHNH3C2H4CFeSCH3FeC2H2C3HSHCHC2HC4H5C2FeH2CH2CNC6H8NC5NHCH3C3H2C2NCFeH3CSCSC2HC4HCSHCHCHCNC6H6C2H3SH2CFeH2CHSCHC2HC3H2CHC2SCH2CH2N2H7NHC4SH2FeSFeS2FeSFeS3FeS2FeS2FeSFeS4HSHFeHSHFeS2FeSFeS4NCS2CFeSCFeS2FeS2FeSFeS3CHC4H3C5H3C6H9CSH2C3H3C6H4C6H4C3HC2H2CHC6H4C6H4C2H2C6H5C2HC3HSHC2HNH2N2C6H7C4H4NC3HSCHC3H3C2H2CH2SH4NHNCSCNC6H8CNC3HC2H2CFeH3CFeHC2NCH2SCH4CFeH3CSCH2CHCH2FeCH2SHCHCNCH2CHCHNH4NCSH3C4HC6H2CHCHCH2C3SHC2H2C2HFeHC2HCH4SHFeH4
_chemical_formula_sum              "Fe1040 S2080 H6240 C6240 N520"
_cell_length_a       92.1064
_cell_length_b       92.0469
_cell_length_c       92.66
_cell_angle_alpha    73.851
_cell_angle_beta     73.743
_cell_angle_gamma    73.683

_space_group_name_H-M_alt    "P 1"
_space_group_IT_number       1

loop_
  _space_group_symop_operation_xyz
  'x, y, z'

loop_
  _atom_site_type_symbol
  _atom_site_label
  _atom_site_symmetry_multiplicity
  _atom_site_fract_x
  _atom_site_fract_y
  _atom_site_fract_z
  _atom_site_occupancy
  Fe  Fe1       1.0  0.17187  0.18022  0.13350  1.0000
  S   S1        1.0  0.16207  0.18691  0.11233  1.0000
  S   S2        1.0  0.19652  0.17904  0.13368  1.0000
  H   H1        1.0  0.29321  0.00983  0.03396  1.0000
  S   S3        1.0  0.12947  0.17927  0.13609  1.0000
  Fe  Fe2       1.0  0.15141  0.16625  0.12333  1.0000
  S   S4        1.0  0.15054  0.14891  0.11091  1.0000
  Fe  Fe3       1.0  0.14108  0.19945  0.12687  1.0000
  S   S5        1.0  0.16304  0.15842  0.14321  1.0000
  S   S6        1.0  0.15178  0.19469  0.14719  1.0000
  Fe  Fe4       1.0  0.08900  0.16191  0.06725  1.0000
  S   S7        1.0  0.09428  0.13592  0.07455  1.0000
  S   S8        1.0  0.09874  0.17898  0.07286  1.0000
  Fe  Fe5       1.0  0.06469  0.16284  0.05068  1.0000
  S   S9        1.0  0.06760  0.13702  0.05621  1.0000
  S   S10       1.0  0.04791  0.17999  0.03739  1.0000
  Fe  Fe6       1.0  0.06857  0.13851  0.07965  1.0000
  S   S11       1.0  0.05701  0.12413  0.10119  1.0000
  Fe  Fe7       1.0  0.09299  0.13657  0.05059  1.0000
  S   S12       1.0  0.11003  0.12000  0.03694  1.0000
  S   S13       1.0  0.06327  0.16442  0.07469  1.0000
  S   S14       1.0  0.09007  0.16235  0.04269  1.0000
  C   C1        1.0  0.36175  0.05764  0.98501  1.0000
  C   C2        1.0  0.47940  0.22519  0.15212  1.0000
  Fe  Fe8       1.0  0.13014  0.03450  0.06089  1.0000
  S   S15       1.0  0.14423  0.01704  0.07671  1.0000
  S   S16       1.0  0.10876  0.05076  0.07087  1.0000
  Fe  Fe9       1.0  0.15196  0.02458  0.03259  1.0000
  C   C3        1.0  0.08299  0.19786  0.00933  1.0000
  Fe  Fe10      1.0  0.16483  0.02413  0.05945  1.0000
  C   C4        1.0  0.35805  0.20582  0.13360  1.0000
  S   S17       1.0  0.13029  0.01743  0.04765  1.0000
  S   S18       1.0  0.15063  0.04296  0.04475  1.0000
  Fe  Fe11      1.0  0.34773  0.17981  0.06505  1.0000
  S   S19       1.0  0.37282  0.16926  0.06502  1.0000
  S   S20       1.0  0.32965  0.16756  0.06531  1.0000
  H   H2        1.0  0.25087  0.03719  0.07643  1.0000
  Fe  Fe12      1.0  0.37728  0.18913  0.04513  1.0000
  S   S21       1.0  0.39594  0.18552  0.02384  1.0000
  Fe  Fe13      1.0  0.37062  0.18594  0.07966  1.0000
  S   S22       1.0  0.38068  0.17742  0.10092  1.0000
  S   S23       1.0  0.35229  0.19844  0.04397  1.0000
  S   S24       1.0  0.34495  0.19457  0.08159  1.0000
  H   H3        1.0  0.41918  0.16896  0.00247  1.0000
  H   H4        1.0  0.08115  0.18724  0.12558  1.0000
  H   H5        1.0  0.25733  0.09581  0.08319  1.0000
  Fe  Fe14      1.0  0.41560  0.11866  0.98141  1.0000
  C   C5        1.0  0.07600  0.21994  0.02103  1.0000
  H   H6        1.0  0.36601  0.04164  0.00610  1.0000
  H   H7        1.0  0.11090  0.03099  0.02231  1.0000
  H   H8        1.0  0.46056  0.13852  0.00627  1.0000
  C   C6        1.0  0.38587  0.14698  0.01989  1.0000
  C   C7        1.0  0.15029  0.01051  0.97643  1.0000
  Fe  Fe15      1.0  0.25983  0.11013  0.12005  1.0000
  S   S25       1.0  0.26473  0.11587  0.13999  1.0000
  S   S26       1.0  0.23995  0.12111  0.10833  1.0000
  Fe  Fe16      1.0  0.28575  0.08129  0.11983  1.0000
  S   S27       1.0  0.29312  0.08428  0.13977  1.0000
  S   S28       1.0  0.29838  0.06322  0.10578  1.0000
  H   H9        1.0  0.36565  0.21757  0.14632  1.0000
  H   H10       1.0  0.00957  0.19418  0.98869  1.0000
  Fe  Fe17      1.0  0.28974  0.10951  0.12797  1.0000
  S   S29       1.0  0.30742  0.12227  0.12780  1.0000
  S   S30       1.0  0.26059  0.08519  0.13126  1.0000
  S   S31       1.0  0.28455  0.10598  0.10706  1.0000
  C   C8        1.0  0.35809  0.04651  0.99835  1.0000
  H   H11       1.0  0.11796  0.02960  0.99477  1.0000
  N   N1        1.0  0.08683  0.20711  0.99510  1.0000
  Fe  Fe18      1.0  0.29725  0.99078  0.06421  1.0000
  H   H12       1.0  0.38110  0.18603  0.99462  1.0000
  S   S32       1.0  0.31969  0.99501  0.04807  1.0000
  Fe  Fe19      1.0  0.27111  0.99968  0.09054  1.0000
  S   S33       1.0  0.26009  0.01529  0.10730  1.0000
  S   S34       1.0  0.27450  0.00807  0.06491  1.0000
  H   H13       1.0  0.01190  0.07599  0.11208  1.0000
  C   C9        1.0  0.30372  0.00992  0.02511  1.0000
  C   C10       1.0  0.31817  0.00372  0.02901  1.0000
  C   C11       1.0  0.33170  0.00381  0.01742  1.0000
  H   H14       1.0  0.34291  0.99893  0.02038  1.0000
  C   C12       1.0  0.28830  0.04906  0.10705  1.0000
  C   C13       1.0  0.27417  0.04826  0.11758  1.0000
  C   C14       1.0  0.26575  0.03763  0.11778  1.0000
  C   C15       1.0  0.27149  0.02761  0.10755  1.0000
  C   C16       1.0  0.28583  0.02808  0.09727  1.0000
  C   C17       1.0  0.29420  0.03883  0.09700  1.0000
  H   H15       1.0  0.26975  0.05568  0.12570  1.0000
  H   H16       1.0  0.25474  0.03719  0.12585  1.0000
  H   H17       1.0  0.29035  0.02034  0.08937  1.0000
  H   H18       1.0  0.30519  0.03929  0.08890  1.0000
  N   N2        1.0  0.10884  0.99456  0.01062  1.0000
  H   H19       1.0  0.27496  0.04715  0.06507  1.0000
  H   H20       1.0  0.07131  0.14653  0.10687  1.0000
  H   H21       1.0  0.37649  0.14093  0.02473  1.0000
  H   H22       1.0  0.02578  0.16076  0.03593  1.0000
  H   H23       1.0  0.37488  0.19328  0.16443  1.0000
  C   C18       1.0  0.32266  0.15614  0.08317  1.0000
  C   C19       1.0  0.32942  0.15350  0.09569  1.0000
  C   C20       1.0  0.32433  0.14342  0.10954  1.0000
  C   C21       1.0  0.31252  0.13596  0.11088  1.0000
  C   C22       1.0  0.30560  0.13885  0.09844  1.0000
  C   C23       1.0  0.31068  0.14889  0.08460  1.0000
  H   H24       1.0  0.33873  0.15901  0.09462  1.0000
  H   H25       1.0  0.32972  0.14119  0.11915  1.0000
  H   H26       1.0  0.29636  0.13334  0.09944  1.0000
  H   H27       1.0  0.30540  0.15095  0.07494  1.0000
  C   C24       1.0  0.38845  0.19027  0.10604  1.0000
  C   C25       1.0  0.39862  0.21082  0.11661  1.0000
  S   S35       1.0  0.18224  0.02926  0.06908  1.0000
  C   C26       1.0  0.46917  0.12769  0.00640  1.0000
  H   H28       1.0  0.31532  0.20807  0.01850  1.0000
  C   C27       1.0  0.08567  0.22258  0.99360  1.0000
  C   C28       1.0  0.38530  0.16020  0.02490  1.0000
  C   C29       1.0  0.39728  0.16816  0.01863  1.0000
  H   H29       1.0  0.26922  0.08274  0.09615  1.0000
  H   H30       1.0  0.37544  0.16438  0.03343  1.0000
  S   S36       1.0  0.98952  0.05360  0.12350  1.0000
  Fe  Fe20      1.0  0.14650  0.00066  0.06190  1.0000
  C   C30       1.0  0.15220  0.02145  0.98323  1.0000
  N   N3        1.0  0.38993  0.16417  0.96809  1.0000
  H   H31       1.0  0.23480  0.11483  0.16623  1.0000
  H   H32       1.0  0.11116  0.15780  0.12593  1.0000
  Fe  Fe21      1.0  0.40955  0.21563  0.14713  1.0000
  C   C31       1.0  0.10954  0.98023  0.00620  1.0000
  C   C32       1.0  0.10228  0.15541  0.12186  1.0000
  H   H33       1.0  0.00681  0.10961  0.11912  1.0000
  H   H34       1.0  0.01192  0.07294  0.09369  1.0000
  C   C33       1.0  0.03775  0.12589  0.10046  1.0000
  C   C34       1.0  0.03172  0.13605  0.08814  1.0000
  C   C35       1.0  0.01683  0.13641  0.08680  1.0000
  H   H35       1.0  0.35441  0.21626  0.12534  1.0000
  C   C36       1.0  0.01367  0.11697  0.11047  1.0000
  C   C37       1.0  0.02863  0.11652  0.11175  1.0000
  H   H36       1.0  0.03857  0.14354  0.07952  1.0000
  H   H37       1.0  0.01234  0.14406  0.07708  1.0000
  S   S37       1.0  0.31508  0.02402  0.97880  1.0000
  H   H38       1.0  0.03321  0.10874  0.12137  1.0000
  C   C38       1.0  0.10759  0.07002  0.06053  1.0000
  C   C39       1.0  0.09812  0.08210  0.06756  1.0000
  C   C40       1.0  0.09833  0.09757  0.06005  1.0000
  C   C41       1.0  0.10795  0.10095  0.04546  1.0000
  C   C42       1.0  0.11688  0.08891  0.03817  1.0000
  C   C43       1.0  0.11662  0.07347  0.04566  1.0000
  H   H39       1.0  0.09113  0.07945  0.07906  1.0000
  H   H40       1.0  0.09153  0.10683  0.06578  1.0000
  H   H41       1.0  0.12415  0.09150  0.02680  1.0000
  H   H42       1.0  0.12336  0.06426  0.03988  1.0000
  C   C44       1.0  0.05392  0.17928  0.01792  1.0000
  C   C45       1.0  0.04789  0.19165  0.00695  1.0000
  C   C46       1.0  0.05282  0.19129  0.99130  1.0000
  C   C47       1.0  0.06378  0.17856  0.98660  1.0000
  C   C48       1.0  0.06989  0.16625  0.99758  1.0000
  C   C49       1.0  0.06490  0.16655  0.01326  1.0000
  H   H43       1.0  0.03956  0.20161  0.01054  1.0000
  C   C50       1.0  0.20267  0.13449  0.15306  1.0000
  H   H44       1.0  0.07847  0.15642  0.99397  1.0000
  H   H45       1.0  0.06964  0.15697  0.02170  1.0000
  C   C51       1.0  0.13790  0.15755  0.09839  1.0000
  C   C52       1.0  0.13187  0.17356  0.09571  1.0000
  C   C53       1.0  0.12048  0.18019  0.08702  1.0000
  C   C54       1.0  0.11484  0.17079  0.08131  1.0000
  C   C55       1.0  0.12134  0.15489  0.08343  1.0000
  C   C56       1.0  0.13293  0.14826  0.09192  1.0000
  H   H46       1.0  0.13581  0.18080  0.10054  1.0000
  H   H47       1.0  0.11564  0.19254  0.08519  1.0000
  H   H48       1.0  0.11733  0.14765  0.07874  1.0000
  H   H49       1.0  0.13769  0.13590  0.09388  1.0000
  C   C57       1.0  0.20919  0.16429  0.12480  1.0000
  C   C58       1.0  0.20371  0.15660  0.11706  1.0000
  C   C59       1.0  0.21343  0.14366  0.11151  1.0000
  C   C60       1.0  0.22854  0.13823  0.11395  1.0000
  C   C61       1.0  0.23415  0.14617  0.12133  1.0000
  C   C62       1.0  0.22452  0.15928  0.12663  1.0000
  H   H50       1.0  0.19191  0.16045  0.11553  1.0000
  H   H51       1.0  0.20908  0.13763  0.10571  1.0000
  H   H52       1.0  0.24593  0.14227  0.12287  1.0000
  H   H53       1.0  0.22883  0.16531  0.13246  1.0000
  N   N4        1.0  0.30413  0.21627  0.05393  1.0000
  H   H54       1.0  0.24871  0.08870  0.10291  1.0000
  H   H55       1.0  0.23586  0.00691  0.07427  1.0000
  C   C63       1.0  0.00778  0.19210  0.01276  1.0000
  S   S38       1.0  0.39799  0.12562  0.00205  1.0000
  C   C64       1.0  0.11002  0.02087  0.01903  1.0000
  C   C65       1.0  0.31637  0.01595  0.99805  1.0000
  C   C66       1.0  0.33079  0.00964  0.00197  1.0000
  H   H56       1.0  0.07148  0.17358  0.10603  1.0000
  C   C67       1.0  0.21095  0.10901  0.14738  1.0000
  H   H57       1.0  0.32345  0.97982  0.98822  1.0000
  C   C68       1.0  0.41043  0.14957  0.00225  1.0000
  H   H58       1.0  0.06361  0.08064  0.09710  1.0000
  N   N5        1.0  0.02690  0.08721  0.09266  1.0000
  H   H59       1.0  0.10570  0.98284  0.99523  1.0000
  Fe  Fe22      1.0  0.14205  0.17336  0.15510  1.0000
  H   H60       1.0  0.03914  0.17019  0.97830  1.0000
  N   N6        1.0  0.09118  0.16725  0.11611  1.0000
  C   C69       1.0  0.10270  0.14003  0.12210  1.0000
  H   H61       1.0  0.31181  0.19727  0.07157  1.0000
  C   C70       1.0  0.09149  0.13680  0.11670  1.0000
  C   C71       1.0  0.03980  0.08041  0.09868  1.0000
  S   S39       1.0  0.15511  0.03156  0.00696  1.0000
  S   S40       1.0  0.16830  0.00632  0.04573  1.0000
  H   H62       1.0  0.35448  0.16395  0.13237  1.0000
  C   C72       1.0  0.98619  0.02495  0.12350  1.0000
  C   C73       1.0  0.39833  0.14171  0.00849  1.0000
  N   N7        1.0  0.14622  0.08544  0.05705  1.0000
  C   C74       1.0  0.15314  0.07021  0.06170  1.0000
  C   C75       1.0  0.13358  0.09249  0.06656  1.0000
  C   C76       1.0  0.14673  0.06134  0.07574  1.0000
  C   C77       1.0  0.12692  0.08398  0.08070  1.0000
  C   C78       1.0  0.13339  0.06823  0.08516  1.0000
  C   C79       1.0  0.15268  0.09435  0.04198  1.0000
  H   H63       1.0  0.12822  0.10464  0.06296  1.0000
  H   H64       1.0  0.11647  0.08945  0.08787  1.0000
  H   H65       1.0  0.12800  0.06132  0.09579  1.0000
  H   H66       1.0  0.14366  0.10425  0.03760  1.0000
  H   H67       1.0  0.16229  0.09891  0.04283  1.0000
  H   H68       1.0  0.15703  0.08700  0.03329  1.0000
  C   C80       1.0  0.38220  0.17008  0.98086  1.0000
  H   H69       1.0  0.15208  0.97936  0.00649  1.0000
  H   H70       1.0  0.36000  0.15469  0.15045  1.0000
  H   H71       1.0  0.11684  0.00610  0.98749  1.0000
  H   H72       1.0  0.10246  0.00877  0.04237  1.0000
  N   N8        1.0  0.33831  0.05830  0.97799  1.0000
  S   S41       1.0  0.40424  0.22402  0.12345  1.0000
  C   C81       1.0  0.40993  0.16276  0.00739  1.0000
  C   C82       1.0  0.31147  0.20819  0.04256  1.0000
  C   C83       1.0  0.11396  0.02011  0.00356  1.0000
  H   H73       1.0  0.04844  0.20105  0.98289  1.0000
  N   N9        1.0  0.46573  0.11487  0.00456  1.0000
  H   H74       1.0  0.35288  0.19089  0.12250  1.0000
  H   H75       1.0  0.02962  0.15413  0.98631  1.0000
  C   C84       1.0  0.22736  0.00831  0.06768  1.0000
  N   N10       1.0  0.02215  0.17218  0.99883  1.0000
  C   C85       1.0  0.02681  0.16294  0.01182  1.0000
  C   C86       1.0  0.01291  0.18667  0.99910  1.0000
  S   S42       1.0  0.25941  0.98089  0.09175  1.0000
  H   H76       1.0  0.08405  0.18558  0.01060  1.0000
  C   C87       1.0  0.40012  0.18676  0.97480  1.0000
  C   C88       1.0  0.15364  0.00217  0.00693  1.0000
  C   C89       1.0  0.20121  0.01883  0.06338  1.0000
  C   C90       1.0  0.15204  0.99112  0.99999  1.0000
  H   H77       1.0  0.99788  0.02335  0.11656  1.0000
  C   C91       1.0  0.00784  0.12672  0.09785  1.0000
  C   C92       1.0  0.30705  0.21001  0.06948  1.0000
  S   S43       1.0  0.99008  0.12611  0.09473  1.0000
  H   H78       1.0  0.45087  0.11947  0.98936  1.0000
  H   H79       1.0  0.08187  0.20465  0.97500  1.0000
  H   H80       1.0  0.37253  0.06148  0.98227  1.0000
  H   H81       1.0  0.44708  0.10453  0.00632  1.0000
  H   H82       1.0  0.03475  0.15177  0.01143  1.0000
  C   C93       1.0  0.46781  0.21662  0.15723  1.0000
  H   H83       1.0  0.00230  0.09133  0.09904  1.0000
  H   H84       1.0  0.00059  0.20365  0.01289  1.0000
  C   C94       1.0  0.10531  0.00842  0.03027  1.0000
  C   C95       1.0  0.07743  0.20414  0.02249  1.0000
  H   H85       1.0  0.30175  0.97839  0.02832  1.0000
  H   H86       1.0  0.31917  0.19691  0.04506  1.0000
  H   H87       1.0  0.00878  0.18681  0.03673  1.0000
  C   C96       1.0  0.11331  0.00678  0.99952  1.0000
  H   H88       1.0  0.19681  0.01322  0.04418  1.0000
  C   C97       1.0  0.39144  0.21622  0.10403  1.0000
  C   C98       1.0  0.34418  0.04174  0.00168  1.0000
  N   N11       1.0  0.33853  0.11174  0.08195  1.0000
  C   C99       1.0  0.33118  0.10363  0.07700  1.0000
  C   C100      1.0  0.33948  0.10826  0.09706  1.0000
  C   C101      1.0  0.32450  0.09171  0.08730  1.0000
  C   C102      1.0  0.33284  0.09648  0.10767  1.0000
  C   C103      1.0  0.32537  0.08814  0.10272  1.0000
  C   C104      1.0  0.34577  0.12389  0.07079  1.0000
  H   H89       1.0  0.33042  0.10640  0.06503  1.0000
  H   H90       1.0  0.34505  0.11481  0.10111  1.0000
  H   H91       1.0  0.31855  0.08531  0.08346  1.0000
  H   H92       1.0  0.33312  0.09415  0.11975  1.0000
  H   H93       1.0  0.32009  0.07903  0.11084  1.0000
  H   H94       1.0  0.33743  0.13203  0.06396  1.0000
  H   H95       1.0  0.34940  0.13100  0.07653  1.0000
  H   H96       1.0  0.35617  0.11864  0.06287  1.0000
  H   H97       1.0  0.19095  0.12599  0.14101  1.0000
  H   H98       1.0  0.10175  0.18462  0.11762  1.0000
  Fe  Fe23      1.0  0.26509  0.98772  0.06599  1.0000
  N   N12       1.0  0.25584  0.07221  0.08844  1.0000
  C   C105      1.0  0.24250  0.06683  0.09469  1.0000
  C   C106      1.0  0.26734  0.06540  0.07781  1.0000
  C   C107      1.0  0.24048  0.05424  0.09037  1.0000
  C   C108      1.0  0.26564  0.05287  0.07313  1.0000
  C   C109      1.0  0.25211  0.04728  0.07948  1.0000
  C   C110      1.0  0.25786  0.08550  0.09288  1.0000
  H   H99       1.0  0.23344  0.07210  0.10324  1.0000
  H   H100      1.0  0.27808  0.06939  0.07320  1.0000
  H   H101      1.0  0.23016  0.04961  0.09570  1.0000
  H   H102      1.0  0.15194  0.04912  0.07913  1.0000
  H   H103      1.0  0.03947  0.07096  0.10875  1.0000
  C   C111      1.0  0.35718  0.19140  0.13208  1.0000
  C   C112      1.0  0.36291  0.16295  0.13935  1.0000
  H   H104      1.0  0.16347  0.06469  0.05442  1.0000
  C   C113      1.0  0.30283  0.01620  0.00966  1.0000
  H   H105      1.0  0.00023  0.12263  0.15948  1.0000
  C   C114      1.0  0.01259  0.08156  0.09968  1.0000
  H   H106      1.0  0.30063  0.98520  0.00860  1.0000
  C   C115      1.0  0.35153  0.06362  0.97503  1.0000
  H   H107      1.0  0.37465  0.15816  0.13290  1.0000
  Fe  Fe24      1.0  0.35140  0.21259  0.06046  1.0000
  S   S44       1.0  0.37698  0.20516  0.05975  1.0000
  S   S45       1.0  0.29474  0.98411  0.08987  1.0000
  C   C116      1.0  0.39591  0.18483  0.11842  1.0000
  H   H108      1.0  0.45782  0.22033  0.15209  1.0000
  H   H109      1.0  0.23006  0.14405  0.16223  1.0000
  C   C117      1.0  0.40087  0.19508  0.12377  1.0000
  H   H110      1.0  0.39772  0.17268  0.12401  1.0000
  H   H111      1.0  0.40650  0.19077  0.13339  1.0000
  C   C118      1.0  0.08009  0.14893  0.11107  1.0000
  C   C119      1.0  0.05351  0.08575  0.09211  1.0000
  H   H112      1.0  0.29162  0.02109  0.00670  1.0000
  C   C120      1.0  0.33432  0.04788  0.99135  1.0000
  C   C121      1.0  0.02737  0.09900  0.07984  1.0000
  H   H113      1.0  0.01706  0.10454  0.07522  1.0000
  C   C122      1.0  0.04090  0.10459  0.07295  1.0000
  S   S46       1.0  0.42022  0.19156  0.15854  1.0000
  H   H114      1.0  0.09162  0.12495  0.11677  1.0000
  S   S47       1.0  0.43322  0.09619  0.98291  1.0000
  H   H115      1.0  0.06440  0.10250  0.07427  1.0000
  C   C123      1.0  0.08016  0.16418  0.11078  1.0000
  C   C124      1.0  0.17547  0.98700  0.09030  1.0000
  H   H116      1.0  0.42004  0.14561  0.99342  1.0000
  H   H117      1.0  0.01952  0.17219  0.97666  1.0000
  H   H118      1.0  0.32355  0.04411  0.99396  1.0000
  H   H119      1.0  0.23132  0.09470  0.15543  1.0000
  H   H120      1.0  0.20932  0.02282  0.08131  1.0000
  C   C125      1.0  0.05400  0.09796  0.07921  1.0000
  H   H121      1.0  0.34112  0.03320  0.01210  1.0000
  H   H122      1.0  0.22316  0.99720  0.03727  1.0000
  H   H123      1.0  0.44128  0.12439  0.00785  1.0000
  C   C126      1.0  0.38627  0.20600  0.09881  1.0000
  S   S48       1.0  0.24932  0.98843  0.05116  1.0000
  H   H124      1.0  0.04108  0.11433  0.06315  1.0000
  H   H125      1.0  0.34128  0.00911  0.99313  1.0000
  H   H126      1.0  0.10160  0.98543  0.03468  1.0000
  H   H127      1.0  0.38045  0.21033  0.08932  1.0000
  C   C127      1.0  0.20519  0.01171  0.05089  1.0000
  C   C128      1.0  0.10480  0.99526  0.02583  1.0000
  C   C129      1.0  0.22323  0.10588  0.15462  1.0000
  C   C130      1.0  0.38706  0.18158  0.98431  1.0000
  N   N13       1.0  0.36262  0.17806  0.14190  1.0000
  H   H128      1.0  0.15217  0.03323  0.97675  1.0000
  C   C131      1.0  0.02790  0.16691  0.98431  1.0000
  H   H129      1.0  0.38361  0.14242  0.97470  1.0000
  Fe  Fe25      1.0  0.26768  0.09041  0.15014  1.0000
  C   C132      1.0  0.23122  0.00096  0.05535  1.0000
  H   H130      1.0  0.31553  0.21565  0.07107  1.0000
  S   S49       1.0  0.14704  0.98170  0.97662  1.0000
  H   H131      1.0  0.40426  0.19530  0.97769  1.0000
  C   C133      1.0  0.09063  0.18333  0.11611  1.0000
  S   S50       1.0  0.38415  0.98045  0.96806  1.0000
  H   H132      1.0  0.07158  0.22497  0.03113  1.0000
  C   C134      1.0  0.20049  0.12334  0.14673  1.0000
  C   C135      1.0  0.02176  0.16793  0.02571  1.0000
  C   C136      1.0  0.09148  0.20069  0.98124  1.0000
  C   C137      1.0  0.36442  0.20654  0.14532  1.0000
  C   C138      1.0  0.21236  0.01728  0.07167  1.0000
  H   H133      1.0  0.15493  0.99897  0.01872  1.0000
  C   C139      1.0  0.45048  0.11591  0.00191  1.0000
  C   C140      1.0  0.30928  0.21441  0.02752  1.0000
  H   H134      1.0  0.14160  0.98423  0.04209  1.0000
  H   H135      1.0  0.20958  0.10038  0.14223  1.0000
  H   H136      1.0  0.07404  0.19681  0.03371  1.0000
  S   S51       1.0  0.12643  0.22230  0.11746  1.0000
  H   H137      1.0  0.09419  0.18779  0.98405  1.0000
  C   C141      1.0  0.15369  0.01736  0.99853  1.0000
  H   H138      1.0  0.08867  0.19103  0.10490  1.0000
  C   C142      1.0  0.15022  0.99533  0.98476  1.0000
  H   H139      1.0  0.29616  0.21208  0.07831  1.0000
  C   C143      1.0  0.01226  0.18263  0.02614  1.0000
  H   H140      1.0  0.37240  0.16567  0.98863  1.0000
  C   C144      1.0  0.36888  0.17867  0.15344  1.0000
  H   H141      1.0  0.11906  0.22541  0.08578  1.0000
  C   C145      1.0  0.22017  0.00281  0.04687  1.0000
  H   H142      1.0  0.11181  0.13075  0.12627  1.0000
  H   H143      1.0  0.19461  0.14569  0.15228  1.0000
  C   C146      1.0  0.47683  0.10143  0.00400  1.0000
  H   H144      1.0  0.10194  0.20450  0.97345  1.0000
  H   H145      1.0  0.17448  0.99974  0.08697  1.0000
  H   H146      1.0  0.20374  0.98397  0.09417  1.0000
  N   N14       1.0  0.21513  0.13156  0.15954  1.0000
  H   H147      1.0  0.16524  0.98444  0.08814  1.0000
  H   H148      1.0  0.47438  0.09157  0.00160  1.0000
  C   C147      1.0  0.36973  0.19291  0.15540  1.0000
  C   C148      1.0  0.32812  0.06428  0.96702  1.0000
  H   H149      1.0  0.21099  0.15525  0.16101  1.0000
  C   C149      1.0  0.22514  0.11735  0.16071  1.0000
  N   N15       1.0  0.19007  0.97925  0.08156  1.0000
  C   C150      1.0  0.48399  0.12717  0.00801  1.0000
  H   H150      1.0  0.37357  0.16812  0.16102  1.0000
  S   S52       1.0  0.38843  0.21846  0.16619  1.0000
  H   H151      1.0  0.15728  0.22496  0.11703  1.0000
  H   H152      1.0  0.32131  0.05574  0.96776  1.0000
  H   H153      1.0  0.32002  0.07525  0.96935  1.0000
  C   C151      1.0  0.20372  0.97866  0.08509  1.0000
  H   H154      1.0  0.17497  0.98303  0.10286  1.0000
  C   C152      1.0  0.21761  0.14352  0.16567  1.0000
  S   S53       1.0  0.07032  0.17797  0.96707  1.0000
  S   S54       1.0  0.42294  0.22724  0.15584  1.0000
  C   C153      1.0  0.48233  0.12847  0.96701  1.0000
  H   H155      1.0  0.06794  0.14596  0.20120  1.0000
  S   S55       1.0  0.31801  0.21664  0.32613  1.0000
  H   H156      1.0  0.13913  0.08150  0.33211  1.0000
  H   H157      1.0  0.20828  0.06871  0.35033  1.0000
  C   C154      1.0  0.12699  0.08146  0.33720  1.0000
  S   S56       1.0  0.03842  0.12524  0.24063  1.0000
  H   H158      1.0  0.29607  0.00412  0.22948  1.0000
  S   S57       1.0  0.17826  0.10830  0.35020  1.0000
  Fe  Fe26      1.0  0.46134  0.09586  0.34798  1.0000
  S   S58       1.0  0.43563  0.10604  0.35019  1.0000
  H   H159      1.0  0.08431  0.08125  0.35747  1.0000
  Fe  Fe27      1.0  0.36215  0.15200  0.27634  1.0000
  S   S59       1.0  0.37559  0.12929  0.27059  1.0000
  S   S60       1.0  0.36258  0.17547  0.26070  1.0000
  Fe  Fe28      1.0  0.35027  0.13731  0.30933  1.0000
  S   S61       1.0  0.36268  0.11298  0.30661  1.0000
  S   S62       1.0  0.33663  0.14393  0.33172  1.0000
  Fe  Fe29      1.0  0.38272  0.12393  0.29304  1.0000
  S   S63       1.0  0.40827  0.11411  0.29207  1.0000
  Fe  Fe30      1.0  0.35447  0.12019  0.28440  1.0000
  S   S64       1.0  0.34831  0.10500  0.27254  1.0000
  S   S65       1.0  0.37107  0.14751  0.29764  1.0000
  S   S66       1.0  0.34031  0.14360  0.28831  1.0000
  S   S67       1.0  0.38784  0.17567  0.19001  1.0000
  Fe  Fe31      1.0  0.17117  0.12106  0.32804  1.0000
  S   S68       1.0  0.18938  0.12394  0.30613  1.0000
  Fe  Fe32      1.0  0.13727  0.12874  0.34373  1.0000
  S   S69       1.0  0.11280  0.13890  0.34072  1.0000
  S   S70       1.0  0.15619  0.14186  0.33716  1.0000
  S   S71       1.0  0.15172  0.10924  0.33241  1.0000
  C   C155      1.0  0.44330  0.00275  0.29349  1.0000
  Fe  Fe33      1.0  0.28295  0.06529  0.28151  1.0000
  S   S72       1.0  0.26522  0.08101  0.26854  1.0000
  S   S73       1.0  0.28890  0.07608  0.29764  1.0000
  Fe  Fe34      1.0  0.28324  0.03736  0.26928  1.0000
  S   S74       1.0  0.26571  0.05107  0.25525  1.0000
  S   S75       1.0  0.29316  0.01167  0.27088  1.0000
  Fe  Fe35      1.0  0.27926  0.06961  0.24903  1.0000
  S   S76       1.0  0.28733  0.08377  0.22550  1.0000
  Fe  Fe36      1.0  0.25339  0.06107  0.27612  1.0000
  S   S77       1.0  0.22836  0.06097  0.28748  1.0000
  S   S78       1.0  0.29796  0.05513  0.26147  1.0000
  S   S79       1.0  0.27006  0.04608  0.29063  1.0000
  C   C156      1.0  0.26363  0.08337  0.18855  1.0000
  S   S80       1.0  0.00186  0.12703  0.18837  1.0000
  Fe  Fe37      1.0  0.07445  0.20400  0.23938  1.0000
  S   S81       1.0  0.08719  0.21021  0.25332  1.0000
  S   S82       1.0  0.07944  0.21142  0.21355  1.0000
  Fe  Fe38      1.0  0.05384  0.18818  0.26748  1.0000
  S   S83       1.0  0.06497  0.19268  0.28402  1.0000
  S   S84       1.0  0.03269  0.17808  0.27438  1.0000
  Fe  Fe39      1.0  0.06391  0.21639  0.26867  1.0000
  Fe  Fe40      1.0  0.08737  0.18605  0.26737  1.0000
  S   S85       1.0  0.11076  0.17277  0.27188  1.0000
  Fe  Fe41      1.0  0.99971  0.12164  0.21399  1.0000
  S   S86       1.0  0.07635  0.17931  0.25221  1.0000
  H   H160      1.0  0.36111  0.19024  0.32015  1.0000
  C   C157      1.0  0.04882  0.15415  0.25993  1.0000
  H   H161      1.0  0.05921  0.15649  0.26107  1.0000
  C   C158      1.0  0.27737  0.08465  0.21156  1.0000
  C   C159      1.0  0.26436  0.07819  0.21557  1.0000
  C   C160      1.0  0.25751  0.07756  0.20407  1.0000
  C   C161      1.0  0.27642  0.09017  0.18454  1.0000
  C   C162      1.0  0.28324  0.09086  0.19605  1.0000
  H   H162      1.0  0.25963  0.07358  0.22750  1.0000
  H   H163      1.0  0.29331  0.09587  0.19289  1.0000
  S   S87       1.0  0.00343  0.00661  0.31523  1.0000
  C   C163      1.0  0.26568  0.99847  0.25165  1.0000
  C   C164      1.0  0.27237  0.00757  0.25671  1.0000
  C   C165      1.0  0.28472  0.00062  0.26408  1.0000
  H   H164      1.0  0.30001  0.97904  0.27191  1.0000
  H   H165      1.0  0.44114  0.99603  0.30558  1.0000
  H   H166      1.0  0.25606  0.00391  0.24603  1.0000
  H   H167      1.0  0.26794  0.01993  0.25487  1.0000
  H   H168      1.0  0.43286  0.00490  0.28879  1.0000
  H   H169      1.0  0.07810  0.10869  0.35266  1.0000
  S   S88       1.0  0.05101  0.21251  0.25339  1.0000
  C   C166      1.0  0.11097  0.16204  0.29075  1.0000
  C   C167      1.0  0.12521  0.15426  0.29468  1.0000
  C   C168      1.0  0.12578  0.14664  0.30996  1.0000
  C   C169      1.0  0.11211  0.14690  0.32135  1.0000
  C   C170      1.0  0.09783  0.15431  0.31736  1.0000
  C   C171      1.0  0.09725  0.16186  0.30206  1.0000
  H   H170      1.0  0.13585  0.15431  0.28595  1.0000
  H   H171      1.0  0.13686  0.14090  0.31294  1.0000
  H   H172      1.0  0.08721  0.15448  0.32615  1.0000
  H   H173      1.0  0.08622  0.16769  0.29910  1.0000
  H   H174      1.0  0.07450  0.19714  0.32832  1.0000
  C   C172      1.0  0.19922  0.10676  0.29979  1.0000
  C   C173      1.0  0.21339  0.10645  0.28907  1.0000
  C   C174      1.0  0.22224  0.09249  0.28500  1.0000
  C   C175      1.0  0.21688  0.07881  0.29147  1.0000
  C   C176      1.0  0.20239  0.07924  0.30170  1.0000
  C   C177      1.0  0.19362  0.09318  0.30596  1.0000
  H   H175      1.0  0.21769  0.11697  0.28417  1.0000
  H   H176      1.0  0.23315  0.09238  0.27679  1.0000
  H   H177      1.0  0.19808  0.06873  0.30659  1.0000
  H   H178      1.0  0.18260  0.09337  0.31412  1.0000
  C   C178      1.0  0.33123  0.16410  0.33005  1.0000
  C   C179      1.0  0.32557  0.17008  0.34338  1.0000
  C   C180      1.0  0.32165  0.18616  0.34230  1.0000
  C   C181      1.0  0.32314  0.19638  0.32790  1.0000
  C   C182      1.0  0.32883  0.19036  0.31456  1.0000
  C   C183      1.0  0.33295  0.17427  0.31562  1.0000
  H   H179      1.0  0.32432  0.16226  0.35457  1.0000
  H   H180      1.0  0.31739  0.19053  0.35264  1.0000
  H   H181      1.0  0.33011  0.19816  0.30334  1.0000
  H   H182      1.0  0.33740  0.16975  0.30525  1.0000
  C   C184      1.0  0.33275  0.09560  0.28088  1.0000
  C   C185      1.0  0.32215  0.09861  0.29440  1.0000
  C   C186      1.0  0.30895  0.09215  0.29975  1.0000
  C   C187      1.0  0.30623  0.08283  0.29151  1.0000
  C   C188      1.0  0.31700  0.07959  0.27818  1.0000
  C   C189      1.0  0.33026  0.08588  0.27295  1.0000
  H   H183      1.0  0.32399  0.10610  0.30059  1.0000
  H   H184      1.0  0.30068  0.09462  0.31012  1.0000
  H   H185      1.0  0.31508  0.07234  0.27183  1.0000
  H   H186      1.0  0.33848  0.08341  0.26256  1.0000
  C   C190      1.0  0.36832  0.17567  0.24095  1.0000
  C   C191      1.0  0.37156  0.18926  0.23055  1.0000
  C   C192      1.0  0.37732  0.18938  0.21482  1.0000
  C   C193      1.0  0.37962  0.17597  0.20945  1.0000
  C   C194      1.0  0.37599  0.16249  0.21978  1.0000
  C   C195      1.0  0.37042  0.16231  0.23554  1.0000
  H   H187      1.0  0.36986  0.19964  0.23470  1.0000
  H   H188      1.0  0.37991  0.19989  0.20688  1.0000
  H   H189      1.0  0.37774  0.15210  0.21563  1.0000
  H   H190      1.0  0.36774  0.15186  0.24348  1.0000
  C   C196      1.0  0.42808  0.10890  0.33384  1.0000
  C   C197      1.0  0.41198  0.11334  0.33501  1.0000
  C   C198      1.0  0.40572  0.11518  0.32221  1.0000
  C   C199      1.0  0.41558  0.11251  0.30822  1.0000
  C   C200      1.0  0.43165  0.10818  0.30705  1.0000
  C   C201      1.0  0.43789  0.10645  0.31979  1.0000
  H   H191      1.0  0.40432  0.11521  0.34586  1.0000
  H   H192      1.0  0.39330  0.11846  0.32322  1.0000
  H   H193      1.0  0.43933  0.10619  0.29623  1.0000
  H   H194      1.0  0.45029  0.10327  0.31866  1.0000
  S   S89       1.0  0.13194  0.16361  0.17972  1.0000
  H   H195      1.0  0.02775  0.03771  0.28342  1.0000
  C   C202      1.0  0.09911  0.18735  0.32591  1.0000
  H   H196      1.0  0.02384  0.18673  0.23968  1.0000
  Fe  Fe42      1.0  0.00103  0.09500  0.24207  1.0000
  H   H197      1.0  0.44696  0.21549  0.19798  1.0000
  C   C203      1.0  0.29532  0.01610  0.22323  1.0000
  H   H198      1.0  0.24754  0.07240  0.20722  1.0000
  H   H199      1.0  0.35176  0.21382  0.33091  1.0000
  H   H200      1.0  0.25780  0.02077  0.28683  1.0000
  S   S90       1.0  0.99811  0.97764  0.34463  1.0000
  C   C204      1.0  0.99317  0.05509  0.32676  1.0000
  N   N16       1.0  0.11334  0.18573  0.31603  1.0000
  Fe  Fe43      1.0  0.00545  0.00018  0.33990  1.0000
  C   C205      1.0  0.47426  0.01323  0.32511  1.0000
  C   C206      1.0  0.11652  0.17666  0.18849  1.0000
  C   C207      1.0  0.11106  0.19158  0.18032  1.0000
  C   C208      1.0  0.09936  0.20213  0.18799  1.0000
  C   C209      1.0  0.09337  0.19787  0.20384  1.0000
  C   C210      1.0  0.09888  0.18294  0.21189  1.0000
  C   C211      1.0  0.11024  0.17230  0.20421  1.0000
  C   C212      1.0  0.13862  0.18871  0.20318  1.0000
  H   H201      1.0  0.09517  0.21368  0.18167  1.0000
  H   H202      1.0  0.09459  0.17953  0.22405  1.0000
  H   H203      1.0  0.11449  0.16079  0.21057  1.0000
  H   H204      1.0  0.47562  0.05048  0.32347  1.0000
  C   C213      1.0  0.27415  0.20840  0.35179  1.0000
  C   C214      1.0  0.11474  0.19256  0.30071  1.0000
  C   C215      1.0  0.29327  0.04657  0.20706  1.0000
  N   N17       1.0  0.01508  0.05156  0.29967  1.0000
  H   H205      1.0  0.30423  0.04941  0.22358  1.0000
  C   C216      1.0  0.09039  0.10972  0.34928  1.0000
  H   H206      1.0  0.42373  0.05275  0.32360  1.0000
  S   S91       1.0  0.99826  0.13939  0.22699  1.0000
  H   H207      1.0  0.13034  0.05667  0.34088  1.0000
  H   H208      1.0  0.09311  0.11324  0.35860  1.0000
  C   C217      1.0  0.47100  0.99786  0.28089  1.0000
  C   C218      1.0  0.45549  0.98162  0.27991  1.0000
  H   H209      1.0  0.00313  0.98935  0.26790  1.0000
  C   C219      1.0  0.35374  0.20245  0.33851  1.0000
  C   C220      1.0  0.99666  0.04559  0.27132  1.0000
  H   H210      1.0  0.20724  0.06211  0.33401  1.0000
  C   C221      1.0  0.12048  0.21121  0.21218  1.0000
  S   S92       1.0  0.41190  0.20526  0.18988  1.0000
  H   H211      1.0  0.44441  0.97829  0.28304  1.0000
  N   N18       1.0  0.41389  0.15567  0.22784  1.0000
  C   C222      1.0  0.41677  0.14060  0.23581  1.0000
  C   C223      1.0  0.40724  0.16745  0.23553  1.0000
  C   C224      1.0  0.41293  0.13702  0.25193  1.0000
  C   C225      1.0  0.40309  0.16426  0.25164  1.0000
  C   C226      1.0  0.40603  0.14895  0.25985  1.0000
  C   C227      1.0  0.41819  0.15904  0.21096  1.0000
  H   H212      1.0  0.42197  0.13125  0.22972  1.0000
  H   H213      1.0  0.40473  0.17939  0.22926  1.0000
  H   H214      1.0  0.41506  0.12506  0.25829  1.0000
  H   H215      1.0  0.39722  0.17357  0.25769  1.0000
  H   H216      1.0  0.40275  0.14627  0.27234  1.0000
  H   H217      1.0  0.43099  0.15603  0.20692  1.0000
  H   H218      1.0  0.41276  0.15240  0.20639  1.0000
  H   H219      1.0  0.41406  0.17149  0.20588  1.0000
  S   S93       1.0  0.02838  0.00355  0.34153  1.0000
  C   C228      1.0  0.04568  0.01020  0.35742  1.0000
  N   N19       1.0  0.22084  0.07901  0.32873  1.0000
  C   C229      1.0  0.23455  0.06948  0.32347  1.0000
  C   C230      1.0  0.21970  0.09465  0.32601  1.0000
  C   C231      1.0  0.24754  0.07557  0.31520  1.0000
  C   C232      1.0  0.23239  0.10115  0.31756  1.0000
  C   C233      1.0  0.24641  0.09151  0.31217  1.0000
  C   C234      1.0  0.20759  0.07229  0.33803  1.0000
  H   H220      1.0  0.23549  0.05710  0.32553  1.0000
  H   H221      1.0  0.20883  0.10229  0.32999  1.0000
  H   H222      1.0  0.25844  0.06802  0.31116  1.0000
  H   H223      1.0  0.14913  0.15150  0.22244  1.0000
  H   H224      1.0  0.46039  0.02299  0.36503  1.0000
  C   C235      1.0  0.25490  0.99201  0.29312  1.0000
  C   C236      1.0  0.43592  0.03833  0.34126  1.0000
  H   H225      1.0  0.26393  0.99327  0.29781  1.0000
  C   C237      1.0  0.11626  0.09527  0.33941  1.0000
  C   C238      1.0  0.30000  0.04145  0.21990  1.0000
  C   C239      1.0  0.43047  0.05238  0.33166  1.0000
  H   H226      1.0  0.10268  0.05669  0.35347  1.0000
  C   C240      1.0  0.02196  0.14715  0.25764  1.0000
  N   N20       1.0  0.27858  0.21062  0.33610  1.0000
  C   C241      1.0  0.06120  0.15504  0.20729  1.0000
  C   C242      1.0  0.00353  0.06470  0.29986  1.0000
  C   C243      1.0  0.46923  0.20324  0.16891  1.0000
  S   S94       1.0  0.25565  0.08128  0.17433  1.0000
  H   H227      1.0  0.29035  0.20015  0.31691  1.0000
  C   C244      1.0  0.27597  0.22635  0.32652  1.0000
  C   C245      1.0  0.03501  0.18952  0.23250  1.0000
  H   H228      1.0  0.10887  0.21312  0.22008  1.0000
  C   C246      1.0  0.98832  0.03954  0.28588  1.0000
  H   H229      1.0  0.11792  0.19059  0.23906  1.0000
  H   H230      1.0  0.00622  0.03310  0.33701  1.0000
  H   H231      1.0  0.12465  0.16776  0.33208  1.0000
  H   H232      1.0  0.01387  0.07763  0.21387  1.0000
  H   H233      1.0  0.11591  0.19502  0.16814  1.0000
  H   H234      1.0  0.02207  0.07556  0.19442  1.0000
  C   C247      1.0  0.28611  0.19831  0.32930  1.0000
  C   C248      1.0  0.23266  0.98862  0.28014  1.0000
  C   C249      1.0  0.28886  0.18323  0.33825  1.0000
  H   H235      1.0  0.28129  0.03357  0.18327  1.0000
  C   C250      1.0  0.28825  0.02175  0.21060  1.0000
  C   C251      1.0  0.35261  0.18639  0.36410  1.0000
  H   H236      1.0  0.03788  0.05079  0.28601  1.0000
  S   S95       1.0  0.46564  0.00306  0.31741  1.0000
  H   H237      1.0  0.13178  0.18541  0.32574  1.0000
  C   C252      1.0  0.12589  0.18579  0.22960  1.0000
  H   H238      1.0  0.47107  0.22513  0.19067  1.0000
  H   H239      1.0  0.14048  0.19575  0.19157  1.0000
  S   S96       1.0  0.00507  0.06902  0.24767  1.0000
  H   H240      1.0  0.34670  0.21132  0.35923  1.0000
  Fe  Fe44      1.0  0.15739  0.09821  0.35553  1.0000
  C   C253      1.0  0.23349  0.00327  0.28108  1.0000
  H   H241      1.0  0.08417  0.98810  0.33877  1.0000
  H   H242      1.0  0.36088  0.15125  0.34294  1.0000
  N   N21       1.0  0.45689  0.99406  0.28432  1.0000
  H   H243      1.0  0.37943  0.15670  0.33478  1.0000
  Fe  Fe45      1.0  0.16192  0.12824  0.35978  1.0000
  H   H244      1.0  0.19641  0.08073  0.33708  1.0000
  C   C254      1.0  0.10166  0.20125  0.29492  1.0000
  H   H245      1.0  0.42964  0.07694  0.32514  1.0000
  H   H246      1.0  0.26856  0.21816  0.35722  1.0000
  N   N22       1.0  0.10109  0.09516  0.34640  1.0000
  H   H247      1.0  0.11836  0.21528  0.20031  1.0000
  Fe  Fe46      1.0  0.43152  0.20336  0.16926  1.0000
  N   N23       1.0  0.99739  0.07992  0.20060  1.0000
  C   C255      1.0  0.13334  0.17011  0.23250  1.0000
  N   N24       1.0  0.36082  0.17468  0.34211  1.0000
  C   C256      1.0  0.35066  0.20106  0.35439  1.0000
  C   C257      1.0  0.24561  0.02027  0.28791  1.0000
  C   C258      1.0  0.43382  0.06596  0.33249  1.0000
  N   N25       1.0  0.12838  0.19480  0.21502  1.0000
  C   C259      1.0  0.14631  0.17309  0.20569  1.0000
  C   C260      1.0  0.27115  0.98233  0.25409  1.0000
  C   C261      1.0  0.98709  0.12284  0.18269  1.0000
  H   H248      1.0  0.13648  0.17195  0.31326  1.0000
  C   C262      1.0  0.08712  0.20306  0.30492  1.0000
  H   H249      1.0  0.05378  0.01206  0.34645  1.0000
  H   H250      1.0  0.02287  0.05795  0.27515  1.0000
  C   C263      1.0  0.08579  0.19599  0.32051  1.0000
  H   H251      1.0  0.08079  0.16437  0.20554  1.0000
  H   H252      1.0  0.47224  0.00749  0.28472  1.0000
  C   C264      1.0  0.02649  0.04942  0.28537  1.0000
  Fe  Fe47      1.0  0.01616  0.12148  0.23840  1.0000
  C   C265      1.0  0.47188  0.02945  0.32033  1.0000
  H   H253      1.0  0.44507  0.01416  0.29366  1.0000
  H   H254      1.0  0.00262  0.07360  0.28944  1.0000
  H   H255      1.0  0.24142  0.02931  0.27826  1.0000
  C   C266      1.0  0.35778  0.17323  0.35772  1.0000
  C   C267      1.0  0.06841  0.16526  0.20986  1.0000
  C   C268      1.0  0.44782  0.05112  0.35226  1.0000
  H   H256      1.0  0.04149  0.19032  0.24063  1.0000
  Fe  Fe48      1.0  0.99421  0.98519  0.32056  1.0000
  C   C269      1.0  0.08802  0.98105  0.34943  1.0000
  C   C270      1.0  0.10653  0.06754  0.34909  1.0000
  H   H257      1.0  0.09799  0.18179  0.33803  1.0000
  H   H258      1.0  0.12755  0.21836  0.21381  1.0000
  H   H259      1.0  0.29266  0.05846  0.20073  1.0000
  C   C271      1.0  0.12206  0.06752  0.34209  1.0000
  H   H260      1.0  0.00442  0.08215  0.17625  1.0000
  H   H261      1.0  0.01156  0.14451  0.25673  1.0000
  N   N26       1.0  0.31792  0.11697  0.24776  1.0000
  C   C272      1.0  0.31079  0.10868  0.24278  1.0000
  C   C273      1.0  0.31101  0.12238  0.26096  1.0000
  C   C274      1.0  0.29633  0.10567  0.25106  1.0000
  C   C275      1.0  0.29658  0.11952  0.26954  1.0000
  C   C276      1.0  0.28924  0.11106  0.26456  1.0000
  C   C277      1.0  0.33346  0.11921  0.23932  1.0000
  H   H262      1.0  0.31637  0.10408  0.23251  1.0000
  H   H263      1.0  0.31697  0.12833  0.26531  1.0000
  H   H264      1.0  0.29082  0.09891  0.24718  1.0000
  H   H265      1.0  0.29144  0.12327  0.28032  1.0000
  H   H266      1.0  0.27831  0.10829  0.27139  1.0000
  H   H267      1.0  0.33389  0.12336  0.22679  1.0000
  H   H268      1.0  0.33700  0.12782  0.24324  1.0000
  H   H269      1.0  0.34209  0.10809  0.24140  1.0000
  C   C278      1.0  0.36672  0.16073  0.33568  1.0000
  S   S97       1.0  0.47855  0.08640  0.32840  1.0000
  H   H270      1.0  0.22536  0.01341  0.27651  1.0000
  H   H271      1.0  0.00957  0.16522  0.27008  1.0000
  H   H272      1.0  0.09163  0.11913  0.33874  1.0000
  S   S98       1.0  0.15884  0.07256  0.36413  1.0000
  C   C279      1.0  0.44260  0.06533  0.34280  1.0000
  H   H273      1.0  0.12596  0.19105  0.29280  1.0000
  C   C280      1.0  0.04995  0.14245  0.25245  1.0000
  H   H274      1.0  0.29508  0.17352  0.33283  1.0000
  S   S99       1.0  0.47664  0.10916  0.35146  1.0000
  N   N27       1.0  0.04398  0.17755  0.22386  1.0000
  C   C281      1.0  0.03676  0.16781  0.22107  1.0000
  C   C282      1.0  0.05954  0.17657  0.21816  1.0000
  N   N28       1.0  0.44453  0.03784  0.35134  1.0000
  C   C283      1.0  0.30107  0.02608  0.22799  1.0000
  H   H275      1.0  0.35925  0.16184  0.36532  1.0000
  H   H276      1.0  0.13104  0.16294  0.24403  1.0000
  H   H277      1.0  0.30623  0.02192  0.23800  1.0000
  H   H278      1.0  0.06518  0.18449  0.22014  1.0000
  S   S100      1.0  0.45454  0.19269  0.17610  1.0000
  H   H279      1.0  0.23122  0.11361  0.31507  1.0000
  C   C284      1.0  0.48415  0.98917  0.27271  1.0000
  C   C285      1.0  0.35896  0.18905  0.33251  1.0000
  C   C286      1.0  0.48286  0.00553  0.33635  1.0000
  H   H280      1.0  0.25643  0.09630  0.30565  1.0000
  H   H281      1.0  0.15387  0.16816  0.19611  1.0000
  C   C287      1.0  0.01624  0.04042  0.31288  1.0000
  C   C288      1.0  0.03654  0.13901  0.25120  1.0000
  C   C289      1.0  0.27686  0.19352  0.36111  1.0000
  C   C290      1.0  0.04525  0.15642  0.21276  1.0000
  C   C291      1.0  0.28422  0.18085  0.35426  1.0000
  C   C292      1.0  0.02085  0.15885  0.26518  1.0000
  C   C293      1.0  0.48233  0.19844  0.17540  1.0000
  H   H282      1.0  0.46534  0.03549  0.31154  1.0000
  N   N29       1.0  0.28747  0.03678  0.20259  1.0000
  S   S101      1.0  0.01932  0.10492  0.22357  1.0000
  H   H283      1.0  0.02549  0.03006  0.31284  1.0000
  H   H284      1.0  0.02445  0.16843  0.22571  1.0000
  H   H285      1.0  0.06124  0.13609  0.24755  1.0000
  H   H286      1.0  0.03957  0.14833  0.21110  1.0000
  H   H287      1.0  0.44540  0.07579  0.34341  1.0000
  C   C294      1.0  0.12724  0.17736  0.32206  1.0000
  H   H288      1.0  0.27306  0.22637  0.31565  1.0000
  H   H289      1.0  0.03267  0.20093  0.22447  1.0000
  C   C295      1.0  0.03429  0.16249  0.26616  1.0000
  H   H290      1.0  0.12015  0.10608  0.33578  1.0000
  C   C296      1.0  0.27959  0.04268  0.18969  1.0000
  H   H291      1.0  0.10276  0.20634  0.28271  1.0000
  H   H292      1.0  0.45241  0.01324  0.35596  1.0000
  N   N30       1.0  0.24470  0.00482  0.28726  1.0000
  Fe  Fe49      1.0  0.39997  0.19527  0.17825  1.0000
  C   C297      1.0  0.00535  0.04204  0.32661  1.0000
  H   H293      1.0  0.28339  0.01402  0.20730  1.0000
  H   H294      1.0  0.00589  0.03796  0.26504  1.0000
  H   H295      1.0  0.23844  0.02330  0.29892  1.0000
  H   H296      1.0  0.28408  0.05255  0.18131  1.0000
  H   H297      1.0  0.26696  0.04690  0.19405  1.0000
  H   H298      1.0  0.99096  0.02725  0.29067  1.0000
  H   H299      1.0  0.43343  0.02777  0.34045  1.0000
  H   H300      1.0  0.28117  0.09473  0.17256  1.0000
  C   C298      1.0  0.09617  0.08152  0.35134  1.0000
  C   C299      1.0  0.47767  0.03797  0.32708  1.0000
  H   H301      1.0  0.01238  0.09450  0.19829  1.0000
  S   S102      1.0  0.99919  0.11034  0.25786  1.0000
  C   C300      1.0  0.98955  0.12089  0.16767  1.0000
  C   C301      1.0  0.99337  0.06155  0.26508  1.0000
  C   C302      1.0  0.14354  0.16372  0.22043  1.0000
  H   H302      1.0  0.22419  0.98741  0.27467  1.0000
  H   H303      1.0  0.09429  0.98790  0.35278  1.0000
  C   C303      1.0  0.01215  0.08200  0.20187  1.0000
  C   C304      1.0  0.99230  0.06658  0.31335  1.0000
  C   C305      1.0  0.03170  0.00636  0.35830  1.0000
  H   H304      1.0  0.07690  0.20985  0.30056  1.0000
  H   H305      1.0  0.48348  0.18806  0.18442  1.0000
  Fe  Fe50      1.0  0.30972  0.22628  0.34766  1.0000
  C   C306      1.0  0.44964  0.02312  0.36170  1.0000
  H   H306      1.0  0.36431  0.16296  0.32406  1.0000
  H   H307      1.0  0.21393  0.14092  0.17842  1.0000
  C   C307      1.0  0.29040  0.98450  0.26626  1.0000
  C   C308      1.0  0.99531  0.08022  0.18646  1.0000
  S   S103      1.0  0.46832  0.07497  0.36605  1.0000
  H   H308      1.0  0.45484  0.05071  0.36009  1.0000
  H   H309      1.0  0.28662  0.16926  0.36134  1.0000
  H   H310      1.0  0.98707  0.07856  0.22450  1.0000
  C   C309      1.0  0.99249  0.98649  0.26784  1.0000
  H   H311      1.0  0.48489  0.99306  0.34003  1.0000
  H   H312      1.0  0.14304  0.15954  0.36673  1.0000
  C   C310      1.0  0.48589  0.03028  0.33865  1.0000
  C   C311      1.0  0.47933  0.12896  0.41062  1.0000
  H   H313      1.0  0.16979  0.13975  0.40869  1.0000
  Fe  Fe51      1.0  0.18107  0.20322  0.53722  1.0000
  H   H314      1.0  0.44434  0.12125  0.49229  1.0000
  Fe  Fe52      1.0  0.16923  0.21826  0.41474  1.0000
  H   H315      1.0  0.22388  0.21787  0.44312  1.0000
  H   H316      1.0  0.12658  0.02860  0.46385  1.0000
  H   H317      1.0  0.07120  0.01550  0.50969  1.0000
  H   H318      1.0  0.48273  0.08080  0.51985  1.0000
  H   H319      1.0  0.15006  0.04319  0.37268  1.0000
  C   C312      1.0  0.43172  0.13595  0.53003  1.0000
  H   H320      1.0  0.13309  0.19709  0.41100  1.0000
  H   H321      1.0  0.42899  0.13979  0.54073  1.0000
  C   C313      1.0  0.16427  0.15813  0.37302  1.0000
  C   C314      1.0  0.07403  0.97771  0.37650  1.0000
  H   H322      1.0  0.43241  0.11202  0.54175  1.0000
  S   S104      1.0  0.17635  0.20255  0.43617  1.0000
  Fe  Fe53      1.0  0.15608  0.21961  0.38773  1.0000
  C   C315      1.0  0.16415  0.09801  0.55042  1.0000
  Fe  Fe54      1.0  0.08249  0.01406  0.54681  1.0000
  S   S105      1.0  0.07926  0.03853  0.53330  1.0000
  H   H323      1.0  0.43172  0.14102  0.39573  1.0000
  Fe  Fe55      1.0  0.11727  0.00797  0.53508  1.0000
  S   S106      1.0  0.11670  0.03213  0.52054  1.0000
  C   C316      1.0  0.16644  0.15067  0.41240  1.0000
  Fe  Fe56      1.0  0.09977  0.03949  0.54139  1.0000
  S   S107      1.0  0.09742  0.06016  0.55137  1.0000
  Fe  Fe57      1.0  0.09635  0.02867  0.51390  1.0000
  S   S108      1.0  0.09050  0.03736  0.49023  1.0000
  S   S109      1.0  0.10179  0.01556  0.55632  1.0000
  S   S110      1.0  0.09819  0.00398  0.52698  1.0000
  Fe  Fe58      1.0  0.09153  0.03003  0.39559  1.0000
  S   S111      1.0  0.11061  0.00998  0.40206  1.0000
  H   H324      1.0  0.02233  0.03267  0.51584  1.0000
  Fe  Fe59      1.0  0.06876  0.00942  0.40167  1.0000
  C   C317      1.0  0.44894  0.09700  0.40165  1.0000
  S   S112      1.0  0.04438  0.00812  0.40217  1.0000
  Fe  Fe60      1.0  0.09214  0.00198  0.42204  1.0000
  S   S113      1.0  0.09770  0.99286  0.44580  1.0000
  Fe  Fe61      1.0  0.10280  0.99769  0.38871  1.0000
  S   S114      1.0  0.07340  0.02275  0.41630  1.0000
  H   H325      1.0  0.08289  0.98153  0.37917  1.0000
  C   C318      1.0  0.44337  0.10493  0.38841  1.0000
  H   H326      1.0  0.03883  0.04786  0.49808  1.0000
  C   C319      1.0  0.43803  0.11486  0.51704  1.0000
  H   H327      1.0  0.14415  0.15682  0.40671  1.0000
  S   S115      1.0  0.45349  0.17826  0.47821  1.0000
  S   S116      1.0  0.46427  0.13938  0.46354  1.0000
  C   C320      1.0  0.14954  0.09450  0.55611  1.0000
  H   H328      1.0  0.13314  0.00591  0.45174  1.0000
  S   S117      1.0  0.38973  0.20057  0.45733  1.0000
  C   C321      1.0  0.47859  0.10534  0.50994  1.0000
  H   H329      1.0  0.24526  0.20519  0.54359  1.0000
  H   H330      1.0  0.20980  0.22053  0.39089  1.0000
  C   C322      1.0  0.21340  0.19316  0.56601  1.0000
  N   N31       1.0  0.11286  0.04616  0.43152  1.0000
  C   C323      1.0  0.11667  0.04448  0.44526  1.0000
  C   C324      1.0  0.04979  0.03952  0.50007  1.0000
  C   C325      1.0  0.47595  0.02295  0.56460  1.0000
  C   C326      1.0  0.46839  0.10910  0.54050  1.0000
  H   H331      1.0  0.01792  0.00896  0.53536  1.0000
  H   H332      1.0  0.47701  0.11839  0.37899  1.0000
  H   H333      1.0  0.11368  0.03521  0.41378  1.0000
  S   S118      1.0  0.14156  0.11693  0.36734  1.0000
  S   S119      1.0  0.47448  0.14551  0.41836  1.0000
  H   H334      1.0  0.44040  0.02130  0.37225  1.0000
  H   H335      1.0  0.46140  0.18612  0.42774  1.0000
  C   C327      1.0  0.13789  0.12185  0.55079  1.0000
  C   C328      1.0  0.03225  0.02358  0.51849  1.0000
  S   S120      1.0  0.18690  0.21956  0.54758  1.0000
  C   C329      1.0  0.02125  0.00406  0.37252  1.0000
  S   S121      1.0  0.26327  0.21916  0.39045  1.0000
  C   C330      1.0  0.05949  0.01402  0.51518  1.0000
  N   N32       1.0  0.04704  0.02537  0.51149  1.0000
  N   N33       1.0  0.43400  0.14618  0.51612  1.0000
  H   H336      1.0  0.45426  0.08470  0.40318  1.0000
  H   H337      1.0  0.20448  0.18773  0.56566  1.0000
  C   C331      1.0  0.17682  0.15546  0.41756  1.0000
  C   C332      1.0  0.45423  0.19614  0.43224  1.0000
  C   C333      1.0  0.44036  0.12537  0.50293  1.0000
  C   C334      1.0  0.43359  0.12017  0.53069  1.0000
  H   H338      1.0  0.11349  0.06660  0.41401  1.0000
  H   H339      1.0  0.45273  0.09891  0.42279  1.0000
  C   C335      1.0  0.43655  0.12864  0.39748  1.0000
  C   C336      1.0  0.43554  0.18406  0.47287  1.0000
  C   C337      1.0  0.42466  0.19686  0.47759  1.0000
  C   C338      1.0  0.41043  0.20194  0.47302  1.0000
  C   C339      1.0  0.40700  0.19406  0.46392  1.0000
  C   C340      1.0  0.41771  0.18101  0.45958  1.0000
  C   C341      1.0  0.43204  0.17612  0.46389  1.0000
  H   H340      1.0  0.42731  0.20300  0.48461  1.0000
  N   N34       1.0  0.44209  0.12078  0.41043  1.0000
  H   H341      1.0  0.41507  0.17491  0.45253  1.0000
  H   H342      1.0  0.44039  0.16637  0.46005  1.0000
  H   H343      1.0  0.18824  0.14816  0.41818  1.0000
  C   C342      1.0  0.15786  0.17920  0.42051  1.0000
  H   H344      1.0  0.15427  0.18598  0.55131  1.0000
  S   S122      1.0  0.18763  0.17795  0.54873  1.0000
  H   H345      1.0  0.42913  0.13056  0.42966  1.0000
  C   C343      1.0  0.45017  0.21538  0.44698  1.0000
  C   C344      1.0  0.45973  0.20270  0.44097  1.0000
  C   C345      1.0  0.43829  0.14109  0.50268  1.0000
  C   C346      1.0  0.35189  0.22232  0.40713  1.0000
  S   S123      1.0  0.18028  0.21182  0.39180  1.0000
  H   H346      1.0  0.18506  0.19357  0.46553  1.0000
  S   S124      1.0  0.14492  0.22400  0.41142  1.0000
  C   C347      1.0  0.17711  0.15212  0.56609  1.0000
  H   H347      1.0  0.17947  0.20768  0.48652  1.0000
  C   C348      1.0  0.15242  0.18944  0.37460  1.0000
  C   C349      1.0  0.03924  0.00853  0.38502  1.0000
  H   H348      1.0  0.44953  0.12294  0.42953  1.0000
  H   H349      1.0  0.12443  0.03609  0.38250  1.0000
  C   C350      1.0  0.12787  0.01732  0.44587  1.0000
  H   H350      1.0  0.44023  0.10256  0.51740  1.0000
  H   H351      1.0  0.05655  0.04539  0.50400  1.0000
  C   C351      1.0  0.04230  0.99854  0.53339  1.0000
  H   H352      1.0  0.35387  0.21031  0.41322  1.0000
  C   C352      1.0  0.21955  0.22596  0.38545  1.0000
  C   C353      1.0  0.02503  0.03545  0.55177  1.0000
  C   C354      1.0  0.04046  0.02779  0.55214  1.0000
  Fe  Fe62      1.0  0.48514  0.08748  0.36783  1.0000
  S   S125      1.0  0.30605  0.21089  0.37111  1.0000
  S   S126      1.0  0.14014  0.99086  0.53536  1.0000
  H   H353      1.0  0.02249  0.04697  0.54466  1.0000
  H   H354      1.0  0.04968  0.03343  0.54530  1.0000
  S   S127      1.0  0.06298  0.00316  0.56242  1.0000
  H   H355      1.0  0.43292  0.12701  0.37588  1.0000
  C   C355      1.0  0.09157  0.02458  0.47860  1.0000
  C   C356      1.0  0.08589  0.03055  0.46505  1.0000
  C   C357      1.0  0.08736  0.02091  0.45506  1.0000
  C   C358      1.0  0.09448  0.00517  0.45858  1.0000
  C   C359      1.0  0.09980  0.99914  0.47233  1.0000
  C   C360      1.0  0.09839  0.00879  0.48230  1.0000
  H   H356      1.0  0.08056  0.04275  0.46211  1.0000
  H   H357      1.0  0.08318  0.02568  0.44453  1.0000
  H   H358      1.0  0.18042  0.17367  0.42582  1.0000
  H   H359      1.0  0.10290  0.00405  0.49263  1.0000
  H   H360      1.0  0.12663  0.00927  0.42663  1.0000
  H   H361      1.0  0.13426  0.17038  0.56373  1.0000
  C   C361      1.0  0.16708  0.18192  0.37754  1.0000
  H   H362      1.0  0.23781  0.18714  0.53317  1.0000
  C   C362      1.0  0.43716  0.12084  0.38626  1.0000
  C   C363      1.0  0.47941  0.11721  0.39007  1.0000
  C   C364      1.0  0.32985  0.22633  0.52085  1.0000
  H   H363      1.0  0.17375  0.18802  0.38070  1.0000
  C   C365      1.0  0.04380  0.01296  0.56140  1.0000
  Fe  Fe63      1.0  0.47079  0.15956  0.46720  1.0000
  H   H364      1.0  0.17671  0.11618  0.54058  1.0000
  C   C366      1.0  0.43285  0.16255  0.51548  1.0000
  S   S128      1.0  0.11985  0.98566  0.37047  1.0000
  H   H365      1.0  0.06722  0.99172  0.52947  1.0000
  H   H366      1.0  0.01707  0.00304  0.39688  1.0000
  N   N35       1.0  0.22524  0.19553  0.55344  1.0000
  H   H367      1.0  0.44049  0.14918  0.49170  1.0000
  H   H368      1.0  0.21956  0.18162  0.54164  1.0000
  H   H369      1.0  0.12407  0.18214  0.42471  1.0000
  C   C367      1.0  0.17302  0.16630  0.37668  1.0000
  C   C368      1.0  0.11670  0.03382  0.42466  1.0000
  C   C369      1.0  0.23355  0.21973  0.39036  1.0000
  C   C370      1.0  0.11172  0.05944  0.38358  1.0000
  H   H370      1.0  0.40209  0.21188  0.47659  1.0000
  H   H371      1.0  0.12792  0.09092  0.37270  1.0000
  C   C371      1.0  0.46865  0.12204  0.52827  1.0000
  H   H372      1.0  0.44467  0.16490  0.51243  1.0000
  Fe  Fe64      1.0  0.37860  0.22584  0.45599  1.0000
  S   S129      1.0  0.48425  0.10298  0.49084  1.0000
  C   C372      1.0  0.12419  0.03003  0.45265  1.0000
  H   H373      1.0  0.47357  0.08414  0.54694  1.0000
  H   H374      1.0  0.09957  0.06935  0.43175  1.0000
  Fe  Fe65      1.0  0.48503  0.12526  0.47302  1.0000
  S   S130      1.0  0.08521  0.01866  0.38040  1.0000
  C   C373      1.0  0.43930  0.20233  0.42962  1.0000
  H   H375      1.0  0.16375  0.14351  0.54149  1.0000
  H   H376      1.0  0.05658  0.03656  0.48889  1.0000
  C   C374      1.0  0.02503  0.00516  0.38584  1.0000
  H   H377      1.0  0.11510  0.98054  0.55958  1.0000
  C   C375      1.0  0.04943  0.01130  0.37071  1.0000
  S   S131      1.0  0.31196  0.22175  0.55013  1.0000
  H   H378      1.0  0.18425  0.16042  0.37924  1.0000
  H   H379      1.0  0.45447  0.22018  0.45398  1.0000
  C   C376      1.0  0.05732  0.00048  0.52622  1.0000
  S   S132      1.0  0.08601  0.98770  0.40925  1.0000
  S   S133      1.0  0.15828  0.21898  0.53336  1.0000
  H   H380      1.0  0.43474  0.19713  0.42316  1.0000
  H   H381      1.0  0.06033  0.01401  0.36990  1.0000
  C   C377      1.0  0.43006  0.21502  0.43578  1.0000
  H   H382      1.0  0.12866  0.18304  0.40415  1.0000
  C   C378      1.0  0.11281  0.07489  0.38089  1.0000
  H   H383      1.0  0.46450  0.13358  0.53056  1.0000
  H   H384      1.0  0.12754  0.13111  0.55121  1.0000
  S   S134      1.0  0.14392  0.20844  0.37717  1.0000
  H   H385      1.0  0.47154  0.14164  0.38982  1.0000
  H   H386      1.0  0.27339  0.19193  0.37356  1.0000
  Fe  Fe66      1.0  0.48118  0.14300  0.44077  1.0000
  C   C379      1.0  0.13967  0.05204  0.37504  1.0000
  H   H387      1.0  0.09563  0.06000  0.41916  1.0000
  H   H388      1.0  0.11351  0.05418  0.45083  1.0000
  H   H389      1.0  0.10243  0.08379  0.38308  1.0000
  S   S135      1.0  0.99368  0.03814  0.55998  1.0000
  C   C380      1.0  0.17791  0.20520  0.46449  1.0000
  C   C381      1.0  0.47884  0.09233  0.52220  1.0000
  C   C382      1.0  0.17190  0.21230  0.45124  1.0000
  C   C383      1.0  0.12518  0.04800  0.38070  1.0000
  C   C384      1.0  0.34360  0.22716  0.39543  1.0000
  S   S136      1.0  0.45963  0.11208  0.55912  1.0000
  H   H390      1.0  0.17449  0.08875  0.55038  1.0000
  H   H391      1.0  0.42649  0.17014  0.50653  1.0000
  C   C385      1.0  0.15377  0.14128  0.53854  1.0000
  C   C386      1.0  0.16532  0.11352  0.54496  1.0000
  C   C387      1.0  0.11040  0.05999  0.56240  1.0000
  C   C388      1.0  0.22568  0.19116  0.53925  1.0000
  H   H392      1.0  0.47291  0.13025  0.50381  1.0000
  C   C389      1.0  0.15751  0.17413  0.55744  1.0000
  C   C390      1.0  0.17301  0.16752  0.55811  1.0000
  H   H393      1.0  0.22000  0.20133  0.53146  1.0000
  C   C391      1.0  0.14072  0.06755  0.37203  1.0000
  S   S137      1.0  0.17076  0.13802  0.37459  1.0000
  H   H394      1.0  0.13260  0.18726  0.36801  1.0000
  C   C392      1.0  0.02966  0.01013  0.52950  1.0000
  H   H395      1.0  0.47118  0.19778  0.44343  1.0000
  C   C393      1.0  0.10503  0.06131  0.42378  1.0000
  C   C394      1.0  0.44097  0.12914  0.42220  1.0000
  C   C395      1.0  0.12418  0.01920  0.43176  1.0000
  C   C396      1.0  0.01287  0.02829  0.56062  1.0000
  S   S138      1.0  0.19438  0.21146  0.51325  1.0000
  C   C397      1.0  0.17479  0.21317  0.47635  1.0000
  H   H396      1.0  0.47516  0.02826  0.55277  1.0000
  C   C398      1.0  0.12725  0.07895  0.37502  1.0000
  N   N36       1.0  0.14792  0.17462  0.41501  1.0000
  S   S139      1.0  0.09326  0.05509  0.38982  1.0000
  C   C399      1.0  0.17249  0.16978  0.42174  1.0000
  C   C400      1.0  0.13631  0.10647  0.55638  1.0000
  H   H397      1.0  0.44392  0.09880  0.37977  1.0000
  H   H398      1.0  0.23453  0.20950  0.39956  1.0000
  N   N37       1.0  0.15227  0.12520  0.54520  1.0000
  S   S140      1.0  0.33549  0.21393  0.39156  1.0000
  H   H399      1.0  0.41834  0.21952  0.43397  1.0000
  N   N38       1.0  0.43552  0.22135  0.44437  1.0000
  H   H400      1.0  0.14330  0.14960  0.54317  1.0000
  H   H401      1.0  0.12490  0.10385  0.56093  1.0000
  C   C401      1.0  0.47633  0.13036  0.39622  1.0000
  H   H402      1.0  0.15462  0.19027  0.42386  1.0000
  C   C402      1.0  0.14985  0.16580  0.36953  1.0000
  H   H403      1.0  0.42657  0.16586  0.52662  1.0000
  C   C403      1.0  0.44810  0.10514  0.41267  1.0000
  C   C404      1.0  0.15193  0.16043  0.41124  1.0000
  H   H404      1.0  0.44365  0.14077  0.41678  1.0000
  C   C405      1.0  0.13264  0.18465  0.41376  1.0000
  C   C406      1.0  0.12309  0.04760  0.56448  1.0000
  Fe  Fe67      1.0  0.31778  0.22579  0.37721  1.0000
  H   H405      1.0  0.10533  0.98698  0.47512  1.0000
  H   H406      1.0  0.04046  0.98829  0.54230  1.0000
  C   C407      1.0  0.47359  0.12017  0.51306  1.0000
  C   C408      1.0  0.23622  0.20276  0.55375  1.0000
  H   H407      1.0  0.01045  0.00109  0.37331  1.0000
  H   H408      1.0  0.15547  0.14374  0.52583  1.0000
  H   H409      1.0  0.14849  0.08252  0.56042  1.0000
  C   C409      1.0  0.24616  0.22683  0.38356  1.0000
  C   C410      1.0  0.14620  0.16529  0.56451  1.0000
  S   S141      1.0  0.47046  0.99732  0.55926  1.0000
  H   H410      1.0  0.33726  0.21530  0.52473  1.0000
  H   H411      1.0  0.32157  0.22170  0.42900  1.0000
  C   C411      1.0  0.47380  0.09420  0.53751  1.0000
  H   H412      1.0  0.17563  0.98232  0.56307  1.0000
  C   C412      1.0  0.14394  0.18145  0.37033  1.0000
  C   C413      1.0  0.48550  0.10260  0.39833  1.0000
  H   H413      1.0  0.35006  0.18533  0.37648  1.0000
  H   H414      1.0  0.06522  0.05248  0.56295  1.0000
  H   H415      1.0  0.12511  0.03785  0.55927  1.0000
  C   C414      1.0  0.48545  0.11436  0.41888  1.0000
  C   C415      1.0  0.16266  0.22732  0.44996  1.0000
  H   H416      1.0  0.18909  0.14698  0.56667  1.0000
  H   H417      1.0  0.06844  0.03208  0.57076  1.0000
  Fe  Fe68      1.0  0.13019  0.09834  0.62673  1.0000
  C   C416      1.0  0.46622  0.22008  0.73895  1.0000
  H   H418      1.0  0.16909  0.13139  0.57921  1.0000
  S   S142      1.0  0.41835  0.19456  0.73214  1.0000
  H   H419      1.0  0.36097  0.18017  0.60862  1.0000
  C   C417      1.0  0.31114  0.18359  0.60725  1.0000
  S   S143      1.0  0.13627  0.13858  0.57956  1.0000
  C   C418      1.0  0.41424  0.14732  0.64324  1.0000
  Fe  Fe69      1.0  0.43568  0.20741  0.73241  1.0000
  N   N39       1.0  0.36007  0.20277  0.69138  1.0000
  H   H420      1.0  0.03929  0.15126  0.68170  1.0000
  C   C419      1.0  0.30537  0.21721  0.62527  1.0000
  C   C420      1.0  0.28716  0.06678  0.66433  1.0000
  S   S144      1.0  0.44426  0.09094  0.63591  1.0000
  H   H421      1.0  0.46413  0.11274  0.63820  1.0000
  Fe  Fe70      1.0  0.36544  0.14408  0.65233  1.0000
  S   S145      1.0  0.36296  0.13000  0.67667  1.0000
  S   S146      1.0  0.38005  0.13758  0.63019  1.0000
  Fe  Fe71      1.0  0.34399  0.17293  0.66179  1.0000
  S   S147      1.0  0.33930  0.16149  0.68676  1.0000
  S   S148      1.0  0.33631  0.19835  0.65246  1.0000
  Fe  Fe72      1.0  0.36487  0.15144  0.68250  1.0000
  S   S149      1.0  0.37739  0.15142  0.70022  1.0000
  Fe  Fe73      1.0  0.33760  0.14121  0.67881  1.0000
  S   S150      1.0  0.31876  0.12877  0.69350  1.0000
  S   S151      1.0  0.36966  0.16439  0.65805  1.0000
  S   S152      1.0  0.33988  0.15375  0.65401  1.0000
  N   N40       1.0  0.06456  0.20152  0.74540  1.0000
  H   H422      1.0  0.01135  0.07038  0.57650  1.0000
  Fe  Fe74      1.0  0.07266  0.16607  0.69108  1.0000
  S   S153      1.0  0.14752  0.07607  0.62403  1.0000
  H   H423      1.0  0.17450  0.11059  0.62938  1.0000
  C   C421      1.0  0.08349  0.22261  0.73138  1.0000
  C   C422      1.0  0.20954  0.04114  0.62400  1.0000
  S   S154      1.0  0.45804  0.19340  0.73930  1.0000
  N   N41       1.0  0.08324  0.15544  0.63335  1.0000
  S   S155      1.0  0.38025  0.20551  0.76052  1.0000
  Fe  Fe75      1.0  0.46064  0.08673  0.61364  1.0000
  H   H424      1.0  0.99898  0.12289  0.68692  1.0000
  H   H425      1.0  0.29269  0.13925  0.71779  1.0000
  C   C423      1.0  0.00284  0.99250  0.75084  1.0000
  S   S156      1.0  0.27223  0.12951  0.74836  1.0000
  Fe  Fe76      1.0  0.14299  0.11521  0.59491  1.0000
  H   H426      1.0  0.05583  0.20898  0.72493  1.0000
  S   S157      1.0  0.14782  0.11302  0.61791  1.0000
  C   C424      1.0  0.08956  0.16803  0.63049  1.0000
  Fe  Fe77      1.0  0.22307  0.10047  0.67753  1.0000
  S   S158      1.0  0.24550  0.08594  0.66718  1.0000
  S   S159      1.0  0.20253  0.11173  0.66647  1.0000
  Fe  Fe78      1.0  0.23328  0.09701  0.70704  1.0000
  S   S160      1.0  0.25657  0.08209  0.69928  1.0000
  S   S161      1.0  0.22534  0.10225  0.73077  1.0000
  Fe  Fe79      1.0  0.25672  0.09906  0.67659  1.0000
  S   S162      1.0  0.27830  0.10696  0.66165  1.0000
  Fe  Fe80      1.0  0.24339  0.07032  0.69069  1.0000
  S   S163      1.0  0.24895  0.04424  0.69523  1.0000
  S   S164      1.0  0.23437  0.11505  0.68500  1.0000
  S   S165      1.0  0.22003  0.08376  0.70038  1.0000
  C   C425      1.0  0.08403  0.21384  0.74624  1.0000
  C   C426      1.0  0.21239  0.19803  0.57935  1.0000
  S   S166      1.0  0.22689  0.01484  0.65323  1.0000
  C   C427      1.0  0.10708  0.11745  0.65527  1.0000
  C   C428      1.0  0.01619  0.01340  0.56979  1.0000
  S   S167      1.0  0.07687  0.15390  0.74730  1.0000
  Fe  Fe81      1.0  0.04470  0.15423  0.71085  1.0000
  S   S168      1.0  0.02869  0.13837  0.71421  1.0000
  Fe  Fe82      1.0  0.40078  0.21292  0.74317  1.0000
  S   S169      1.0  0.07014  0.14507  0.71013  1.0000
  H   H427      1.0  0.36341  0.21367  0.66752  1.0000
  S   S170      1.0  0.01217  0.13268  0.65451  1.0000
  H   H428      1.0  0.29958  0.15631  0.70631  1.0000
  H   H429      1.0  0.19312  0.04761  0.66853  1.0000
  C   C429      1.0  0.04510  0.09246  0.70821  1.0000
  C   C430      1.0  0.02308  0.13822  0.69758  1.0000
  C   C431      1.0  0.01175  0.13014  0.69897  1.0000
  C   C432      1.0  0.00768  0.12914  0.68581  1.0000
  C   C433      1.0  0.01530  0.13577  0.67118  1.0000
  C   C434      1.0  0.02658  0.14390  0.66976  1.0000
  C   C435      1.0  0.03036  0.14525  0.68293  1.0000
  H   H430      1.0  0.00636  0.12440  0.71024  1.0000
  H   H431      1.0  0.43565  0.99692  0.60224  1.0000
  H   H432      1.0  0.03251  0.14903  0.65845  1.0000
  C   C436      1.0  0.24218  0.03614  0.68400  1.0000
  C   C437      1.0  0.24549  0.01999  0.68585  1.0000
  C   C438      1.0  0.24076  0.01329  0.67654  1.0000
  C   C439      1.0  0.23270  0.02276  0.66534  1.0000
  C   C440      1.0  0.22934  0.03892  0.66352  1.0000
  C   C441      1.0  0.23408  0.04561  0.67282  1.0000
  H   H433      1.0  0.25175  0.01262  0.69451  1.0000
  H   H434      1.0  0.24334  0.00081  0.67803  1.0000
  H   H435      1.0  0.22320  0.04630  0.65479  1.0000
  H   H436      1.0  0.23157  0.05808  0.67128  1.0000
  C   C442      1.0  0.25848  0.12272  0.74365  1.0000
  C   C443      1.0  0.24731  0.11594  0.75509  1.0000
  C   C444      1.0  0.23716  0.10966  0.75105  1.0000
  C   C445      1.0  0.23822  0.11006  0.73557  1.0000
  C   C446      1.0  0.24917  0.11711  0.72411  1.0000
  C   C447      1.0  0.25913  0.12362  0.72816  1.0000
  H   H437      1.0  0.32581  0.22236  0.62792  1.0000
  H   H438      1.0  0.22859  0.10431  0.75990  1.0000
  H   H439      1.0  0.24981  0.11776  0.71211  1.0000
  H   H440      1.0  0.26740  0.12930  0.71925  1.0000
  H   H441      1.0  0.18768  0.08467  0.69070  1.0000
  H   H442      1.0  0.43612  0.01352  0.57599  1.0000
  H   H443      1.0  0.14802  0.16003  0.74625  1.0000
  H   H444      1.0  0.45332  0.02692  0.62563  1.0000
  H   H445      1.0  0.12156  0.15811  0.60299  1.0000
  C   C448      1.0  0.18384  0.07961  0.68354  1.0000
  H   H446      1.0  0.07512  0.19631  0.76457  1.0000
  C   C449      1.0  0.09068  0.16370  0.74762  1.0000
  C   C450      1.0  0.16579  0.14330  0.57323  1.0000
  C   C451      1.0  0.09399  0.12003  0.66715  1.0000
  C   C452      1.0  0.08922  0.13419  0.67193  1.0000
  C   C453      1.0  0.09766  0.14576  0.66495  1.0000
  H   H447      1.0  0.08742  0.11113  0.67249  1.0000
  H   H448      1.0  0.07880  0.13629  0.68071  1.0000
  C   C454      1.0  0.20901  0.08960  0.64924  1.0000
  C   C455      1.0  0.19983  0.10378  0.65244  1.0000
  C   C456      1.0  0.18749  0.11135  0.64510  1.0000
  C   C457      1.0  0.18406  0.10465  0.63492  1.0000
  H   H449      1.0  0.21852  0.08368  0.65488  1.0000
  H   H450      1.0  0.18042  0.12236  0.64745  1.0000
  S   S171      1.0  0.11204  0.10008  0.64872  1.0000
  C   C458      1.0  0.05258  0.10469  0.70113  1.0000
  C   C459      1.0  0.04579  0.10603  0.67738  1.0000
  H   H451      1.0  0.21480  0.13751  0.73190  1.0000
  H   H452      1.0  0.05751  0.10931  0.70779  1.0000
  C   C460      1.0  0.19164  0.06498  0.68070  1.0000
  S   S172      1.0  0.04159  0.16796  0.72844  1.0000
  C   C461      1.0  0.11123  0.18074  0.74883  1.0000
  C   C462      1.0  0.05321  0.11132  0.68555  1.0000
  C   C463      1.0  0.32030  0.20187  0.64434  1.0000
  C   C464      1.0  0.31014  0.19180  0.64973  1.0000
  C   C465      1.0  0.29738  0.19466  0.64312  1.0000
  H   H453      1.0  0.20970  0.01096  0.63382  1.0000
  H   H454      1.0  0.31193  0.18195  0.65918  1.0000
  H   H455      1.0  0.28940  0.18696  0.64744  1.0000
  C   C466      1.0  0.30750  0.12322  0.68424  1.0000
  C   C467      1.0  0.31180  0.12348  0.66847  1.0000
  C   C468      1.0  0.30271  0.11855  0.66161  1.0000
  C   C469      1.0  0.28929  0.11339  0.67047  1.0000
  C   C470      1.0  0.28496  0.11325  0.68622  1.0000
  C   C471      1.0  0.29406  0.11816  0.69304  1.0000
  H   H456      1.0  0.32220  0.12728  0.66159  1.0000
  H   H457      1.0  0.30612  0.11868  0.64942  1.0000
  H   H458      1.0  0.27459  0.10940  0.69310  1.0000
  H   H459      1.0  0.29064  0.11816  0.70514  1.0000
  H   H460      1.0  0.05872  0.12104  0.68005  1.0000
  C   C472      1.0  0.39925  0.18075  0.70692  1.0000
  C   C473      1.0  0.39144  0.16892  0.70921  1.0000
  C   C474      1.0  0.38762  0.16605  0.69679  1.0000
  C   C475      1.0  0.39187  0.17495  0.68200  1.0000
  C   C476      1.0  0.39988  0.18664  0.67968  1.0000
  H   H461      1.0  0.40193  0.18298  0.71661  1.0000
  H   H462      1.0  0.38825  0.16204  0.72068  1.0000
  H   H463      1.0  0.38915  0.17276  0.67232  1.0000
  C   C477      1.0  0.17624  0.01831  0.62189  1.0000
  H   H464      1.0  0.17516  0.17268  0.74544  1.0000
  C   C478      1.0  0.32616  0.19973  0.58689  1.0000
  C   C479      1.0  0.42597  0.10285  0.63418  1.0000
  C   C480      1.0  0.42251  0.10987  0.61971  1.0000
  C   C481      1.0  0.40819  0.12023  0.61860  1.0000
  C   C482      1.0  0.39737  0.12367  0.63191  1.0000
  C   C483      1.0  0.40078  0.11649  0.64636  1.0000
  C   C484      1.0  0.41505  0.10608  0.64748  1.0000
  H   H465      1.0  0.43094  0.10748  0.60939  1.0000
  H   H466      1.0  0.40560  0.12577  0.60739  1.0000
  H   H467      1.0  0.39253  0.11907  0.65667  1.0000
  H   H468      1.0  0.41770  0.10068  0.65868  1.0000
  N   N42       1.0  0.99250  0.01917  0.75254  1.0000
  C   C485      1.0  0.15501  0.16476  0.73489  1.0000
  H   H469      1.0  0.04568  0.11174  0.66545  1.0000
  C   C486      1.0  0.03543  0.05839  0.57489  1.0000
  H   H470      1.0  0.26802  0.08206  0.74434  1.0000
  H   H471      1.0  0.15056  0.16299  0.72568  1.0000
  C   C487      1.0  0.20262  0.14303  0.73255  1.0000
  H   H472      1.0  0.03011  0.00835  0.75518  1.0000
  H   H473      1.0  0.35231  0.16426  0.61955  1.0000
  H   H474      1.0  0.18408  0.05407  0.61262  1.0000
  Fe  Fe83      1.0  0.16484  0.09105  0.61353  1.0000
  C   C488      1.0  0.36219  0.20245  0.70551  1.0000
  C   C489      1.0  0.17447  0.03429  0.61624  1.0000
  C   C490      1.0  0.01913  0.00752  0.75367  1.0000
  C   C491      1.0  0.18700  0.05892  0.67092  1.0000
  N   N43       1.0  0.04555  0.04459  0.57863  1.0000
  H   H475      1.0  0.47000  0.20833  0.70215  1.0000
  H   H476      1.0  0.27484  0.06771  0.63279  1.0000
  H   H477      1.0  0.21250  0.07180  0.63683  1.0000
  C   C492      1.0  0.18559  0.04162  0.61695  1.0000
  H   H478      1.0  0.48137  0.18069  0.70116  1.0000
  H   H479      1.0  0.03972  0.06860  0.56808  1.0000
  C   C493      1.0  0.29502  0.20733  0.63083  1.0000
  N   N44       1.0  0.33714  0.18308  0.60805  1.0000
  C   C494      1.0  0.43924  0.13261  0.63259  1.0000
  C   C495      1.0  0.43148  0.13097  0.65960  1.0000
  H   H480      1.0  0.98749  0.10172  0.69134  1.0000
  Fe  Fe84      1.0  0.46829  0.09430  0.57881  1.0000
  S   S173      1.0  0.47178  0.10495  0.59627  1.0000
  H   H481      1.0  0.99551  0.11247  0.73965  1.0000
  C   C496      1.0  0.10797  0.07261  0.56920  1.0000
  H   H482      1.0  0.42270  0.14717  0.61911  1.0000
  C   C497      1.0  0.00654  0.02028  0.75392  1.0000
  C   C498      1.0  0.15035  0.14984  0.57231  1.0000
  C   C499      1.0  0.02991  0.08946  0.67584  1.0000
  C   C500      1.0  0.10755  0.18174  0.73486  1.0000
  H   H483      1.0  0.02284  0.09979  0.66939  1.0000
  H   H484      1.0  0.02175  0.08220  0.68353  1.0000
  H   H485      1.0  0.20630  0.04436  0.63535  1.0000
  H   H486      1.0  0.29132  0.07395  0.66912  1.0000
  C   C501      1.0  0.30051  0.09644  0.73298  1.0000
  H   H487      1.0  0.32065  0.14803  0.76246  1.0000
  H   H488      1.0  0.20284  0.19636  0.58919  1.0000
  C   C502      1.0  0.18900  0.00989  0.62823  1.0000
  C   C503      1.0  0.47543  0.00073  0.58596  1.0000
  S   S174      1.0  0.41282  0.20494  0.68896  1.0000
  S   S175      1.0  0.45502  0.07754  0.59634  1.0000
  Fe  Fe85      1.0  0.14324  0.08101  0.60024  1.0000
  H   H489      1.0  0.31334  0.09810  0.74846  1.0000
  S   S176      1.0  0.03052  0.21067  0.71148  1.0000
  H   H490      1.0  0.16773  0.01246  0.62141  1.0000
  H   H491      1.0  0.44702  0.04647  0.61622  1.0000
  S   S177      1.0  0.04733  0.17436  0.69078  1.0000
  N   N45       1.0  0.44120  0.02940  0.60837  1.0000
  C   C504      1.0  0.44113  0.03874  0.59401  1.0000
  C   C505      1.0  0.43900  0.01465  0.61145  1.0000
  C   C506      1.0  0.43906  0.03325  0.58223  1.0000
  C   C507      1.0  0.43692  0.00878  0.59993  1.0000
  C   C508      1.0  0.43705  0.01815  0.58521  1.0000
  H   H492      1.0  0.04253  0.19698  0.75753  1.0000
  H   H493      1.0  0.44321  0.05031  0.59145  1.0000
  H   H494      1.0  0.34711  0.18202  0.62646  1.0000
  C   C509      1.0  0.28778  0.09175  0.73188  1.0000
  C   C510      1.0  0.99783  0.09244  0.71096  1.0000
  H   H495      1.0  0.09217  0.21485  0.75222  1.0000
  H   H496      1.0  0.12851  0.98678  0.58853  1.0000
  C   C511      1.0  0.01376  0.04644  0.58842  1.0000
  H   H497      1.0  0.25847  0.04657  0.64231  1.0000
  N   N46       1.0  0.27554  0.04891  0.65240  1.0000
  C   C512      1.0  0.27782  0.06318  0.64397  1.0000
  C   C513      1.0  0.27919  0.04328  0.66655  1.0000
  C   C514      1.0  0.28373  0.07229  0.64977  1.0000
  H   H498      1.0  0.10861  0.17899  0.61762  1.0000
  C   C515      1.0  0.40351  0.18964  0.69214  1.0000
  C   C516      1.0  0.26933  0.03963  0.64601  1.0000
  C   C517      1.0  0.29383  0.08762  0.76060  1.0000
  H   H499      1.0  0.35291  0.18122  0.69898  1.0000
  C   C518      1.0  0.30357  0.09437  0.74743  1.0000
  H   H500      1.0  0.27797  0.03573  0.63601  1.0000
  H   H501      1.0  0.26635  0.02918  0.65465  1.0000
  H   H502      1.0  0.00688  0.00770  0.57648  1.0000
  H   H503      1.0  0.02680  0.98346  0.75221  1.0000
  Fe  Fe86      1.0  0.23311  0.98875  0.65579  1.0000
  C   C519      1.0  0.11073  0.15746  0.61142  1.0000
  C   C520      1.0  0.03818  0.08717  0.69960  1.0000
  H   H504      1.0  0.19047  0.99745  0.63274  1.0000
  H   H505      1.0  0.28094  0.15809  0.71952  1.0000
  H   H506      1.0  0.43918  0.00722  0.62279  1.0000
  C   C521      1.0  0.04012  0.03182  0.58755  1.0000
  H   H507      1.0  0.03835  0.08281  0.66753  1.0000
  H   H508      1.0  0.20141  0.05847  0.68590  1.0000
  N   N47       1.0  0.19820  0.03323  0.62298  1.0000
  N   N48       1.0  0.30065  0.15070  0.72994  1.0000
  C   C522      1.0  0.29219  0.15608  0.74285  1.0000
  C   C523      1.0  0.31618  0.14431  0.72847  1.0000
  H   H509      1.0  0.45419  0.10451  0.65688  1.0000
  C   C524      1.0  0.32366  0.14333  0.74006  1.0000
  S   S178      1.0  0.23627  0.98111  0.63390  1.0000
  C   C525      1.0  0.29307  0.15120  0.71779  1.0000
  H   H510      1.0  0.43375  0.12617  0.67105  1.0000
  H   H511      1.0  0.32282  0.13984  0.71832  1.0000
  H   H512      1.0  0.32717  0.20830  0.57610  1.0000
  C   C526      1.0  0.05432  0.19065  0.75280  1.0000
  H   H513      1.0  0.01989  0.02226  0.59914  1.0000
  H   H514      1.0  0.46342  0.12040  0.65435  1.0000
  H   H515      1.0  0.05885  0.18149  0.76217  1.0000
  C   C527      1.0  0.36989  0.21280  0.70717  1.0000
  C   C528      1.0  0.19290  0.09027  0.63207  1.0000
  C   C529      1.0  0.17785  0.14465  0.72742  1.0000
  C   C530      1.0  0.19352  0.13735  0.72660  1.0000
  H   H516      1.0  0.17086  0.14012  0.72280  1.0000
  H   H517      1.0  0.19863  0.12732  0.72140  1.0000
  N   N49       1.0  0.16712  0.08208  0.66678  1.0000
  C   C531      1.0  0.17462  0.06767  0.66403  1.0000
  C   C532      1.0  0.17147  0.08801  0.67652  1.0000
  C   C533      1.0  0.27815  0.08525  0.74529  1.0000
  C   C534      1.0  0.15405  0.09095  0.65958  1.0000
  H   H518      1.0  0.17126  0.06305  0.65618  1.0000
  H   H519      1.0  0.16576  0.09954  0.67851  1.0000
  H   H520      1.0  0.14317  0.08731  0.66646  1.0000
  H   H521      1.0  0.15238  0.10363  0.65850  1.0000
  H   H522      1.0  0.15620  0.08917  0.64772  1.0000
  C   C535      1.0  0.20555  0.08288  0.63905  1.0000
  H   H523      1.0  0.34899  0.19819  0.58945  1.0000
  C   C536      1.0  0.31512  0.14885  0.75324  1.0000
  C   C537      1.0  0.35000  0.17714  0.61604  1.0000
  H   H524      1.0  0.05866  0.21652  0.68915  1.0000
  H   H525      1.0  0.00748  0.09796  0.70572  1.0000
  H   H526      1.0  0.11765  0.15184  0.64805  1.0000
  C   C538      1.0  0.11103  0.14297  0.65344  1.0000
  H   H527      1.0  0.21012  0.05183  0.61479  1.0000
  C   C539      1.0  0.33844  0.19393  0.59449  1.0000
  S   S179      1.0  0.01150  0.08031  0.73542  1.0000
  C   C540      1.0  0.47924  0.02476  0.58909  1.0000
  S   S180      1.0  0.12294  0.19268  0.74934  1.0000
  Fe  Fe87      1.0  0.41548  0.21121  0.70986  1.0000
  H   H528      1.0  0.40318  0.19346  0.66821  1.0000
  C   C541      1.0  0.31245  0.19449  0.59333  1.0000
  H   H529      1.0  0.30031  0.17986  0.61260  1.0000
  H   H530      1.0  0.30278  0.19903  0.58763  1.0000
  H   H531      1.0  0.08534  0.13390  0.62762  1.0000
  H   H532      1.0  0.35688  0.18835  0.67863  1.0000
  H   H533      1.0  0.32242  0.16981  0.62555  1.0000
  S   S181      1.0  0.27916  0.21039  0.62256  1.0000
  H   H534      1.0  0.33941  0.19760  0.69030  1.0000
  H   H535      1.0  0.06733  0.16056  0.65397  1.0000
  C   C542      1.0  0.47055  0.20395  0.74092  1.0000
  C   C543      1.0  0.36515  0.21343  0.67870  1.0000
  C   C544      1.0  0.29929  0.15530  0.75463  1.0000
  C   C545      1.0  0.06232  0.04356  0.57355  1.0000
  C   C546      1.0  0.02417  0.03253  0.59252  1.0000
  S   S182      1.0  0.41829  0.22444  0.74549  1.0000
  S   S183      1.0  0.48132  0.03519  0.60141  1.0000
  S   S184      1.0  0.07188  0.18147  0.70654  1.0000
  H   H536      1.0  0.44748  0.12888  0.62267  1.0000
  C   C547      1.0  0.06375  0.21029  0.73096  1.0000
  Fe  Fe88      1.0  0.06740  0.16099  0.72567  1.0000
  C   C548      1.0  0.13087  0.06055  0.57994  1.0000
  C   C549      1.0  0.09736  0.17322  0.73425  1.0000
  C   C550      1.0  0.01939  0.05950  0.57966  1.0000
  H   H537      1.0  0.03225  0.07776  0.70530  1.0000
  H   H538      1.0  0.28703  0.04796  0.68433  1.0000
  C   C551      1.0  0.32365  0.17803  0.61454  1.0000
  C   C552      1.0  0.05209  0.22721  0.69265  1.0000
  Fe  Fe89      1.0  0.00419  0.07303  0.76102  1.0000
  C   C553      1.0  0.07438  0.20331  0.75314  1.0000
  C   C554      1.0  0.35185  0.19198  0.68980  1.0000
  C   C555      1.0  0.42524  0.14299  0.63048  1.0000
  C   C556      1.0  0.28486  0.05220  0.67281  1.0000
  H   H539      1.0  0.05354  0.18456  0.74434  1.0000
  H   H540      1.0  0.00106  0.98158  0.75013  1.0000
  C   C557      1.0  0.11811  0.07288  0.57798  1.0000
  H   H541      1.0  0.30791  0.10180  0.72268  1.0000
  H   H542      1.0  0.04423  0.08739  0.72042  1.0000
  C   C558      1.0  0.31788  0.21462  0.63217  1.0000
  S   S185      1.0  0.18783  0.08085  0.62063  1.0000
  C   C559      1.0  0.45672  0.11560  0.64924  1.0000
  H   H543      1.0  0.43289  0.03640  0.62978  1.0000
  H   H544      1.0  0.00802  0.03098  0.75553  1.0000
  N   N50       1.0  0.28128  0.08322  0.75940  1.0000
  H   H545      1.0  0.22136  0.03351  0.62275  1.0000
  H   H546      1.0  0.43964  0.04044  0.57071  1.0000
  N   N51       1.0  0.03812  0.09432  0.68453  1.0000
  C   C560      1.0  0.11569  0.12890  0.64857  1.0000
  C   C561      1.0  0.19597  0.15580  0.73936  1.0000
  S   S186      1.0  0.12410  0.10185  0.60397  1.0000
  H   H547      1.0  0.16455  0.04098  0.61134  1.0000
  H   H548      1.0  0.03413  0.99428  0.57738  1.0000
  H   H549      1.0  0.33599  0.13826  0.73885  1.0000
  C   C562      1.0  0.18027  0.16281  0.74001  1.0000
  C   C563      1.0  0.48202  0.20336  0.70280  1.0000
  H   H550      1.0  0.20290  0.16026  0.74414  1.0000
  H   H551      1.0  0.09475  0.17399  0.72339  1.0000
  C   C564      1.0  0.19988  0.01760  0.62876  1.0000
  H   H552      1.0  0.04815  0.02084  0.59043  1.0000
  H   H553      1.0  0.11243  0.18930  0.72449  1.0000
  N   N52       1.0  0.17149  0.15735  0.73388  1.0000
  H   H554      1.0  0.12583  0.12708  0.63954  1.0000
  H   H555      1.0  0.40316  0.15495  0.64176  1.0000
  H   H556      1.0  0.15304  0.17752  0.73357  1.0000
  S   S187      1.0  0.27338  0.22195  0.58082  1.0000
  S   S188      1.0  0.09102  0.16429  0.66928  1.0000
  H   H557      1.0  0.10976  0.13558  0.60804  1.0000
  Fe  Fe90      1.0  0.04622  0.18753  0.70829  1.0000
  S   S189      1.0  0.99098  0.09884  0.66112  1.0000
  C   C565      1.0  0.99650  0.08355  0.72597  1.0000
  H   H558      1.0  0.27720  0.03206  0.67338  1.0000
  H   H559      1.0  0.27978  0.16067  0.74428  1.0000
  H   H560      1.0  0.04679  0.12559  0.75859  1.0000
  H   H561      1.0  0.35833  0.19387  0.71554  1.0000
  C   C566      1.0  0.01725  0.99357  0.75205  1.0000
  H   H562      1.0  0.08414  0.17703  0.63702  1.0000
  S   S190      1.0  0.16185  0.09463  0.58941  1.0000
  S   S191      1.0  0.43449  0.22250  0.70899  1.0000
  N   N53       1.0  0.44217  0.12671  0.64703  1.0000
  C   C567      1.0  0.10344  0.16918  0.61957  1.0000
  C   C568      1.0  0.99047  0.00543  0.75129  1.0000
  H   H563      1.0  0.22295  0.20933  0.58998  1.0000
  C   C569      1.0  0.06854  0.15458  0.64463  1.0000
  S   S192      1.0  0.14432  0.06066  0.59033  1.0000
  C   C570      1.0  0.10494  0.17088  0.76218  1.0000
  Fe  Fe91      1.0  0.99072  0.12416  0.65666  1.0000
  C   C571      1.0  0.44363  0.03508  0.62063  1.0000
  H   H564      1.0  0.28521  0.08378  0.64325  1.0000
  C   C572      1.0  0.47825  0.03160  0.57381  1.0000
  C   C573      1.0  0.07322  0.22093  0.72370  1.0000
  H   H565      1.0  0.47395  0.98900  0.59079  1.0000
  C   C574      1.0  0.03163  0.00578  0.57022  1.0000
  C   C575      1.0  0.09025  0.14395  0.62531  1.0000
  C   C576      1.0  0.09465  0.16240  0.76157  1.0000
  H   H566      1.0  0.06797  0.14235  0.65028  1.0000
  C   C577      1.0  0.47803  0.00926  0.59506  1.0000
  C   C578      1.0  0.22366  0.20526  0.57982  1.0000
  H   H567      1.0  0.40876  0.14444  0.66795  1.0000
  H   H568      1.0  0.28515  0.09345  0.72074  1.0000
  C   C579      1.0  0.10409  0.14478  0.61426  1.0000
  H   H569      1.0  0.00137  0.04703  0.59187  1.0000
  C   C580      1.0  0.41735  0.14132  0.65791  1.0000
  H   H570      1.0  0.30371  0.22688  0.61575  1.0000
  H   H571      1.0  0.05865  0.16009  0.63887  1.0000
  H   H572      1.0  0.11601  0.08256  0.58330  1.0000
  C   C581      1.0  0.98647  0.09462  0.70281  1.0000
  H   H573      1.0  0.06691  0.04524  0.58271  1.0000
  C   C582      1.0  0.37539  0.22351  0.69424  1.0000
  H   H574      1.0  0.37206  0.21215  0.71829  1.0000
  H   H575      1.0  0.14314  0.03835  0.57461  1.0000
  Fe  Fe92      1.0  0.47844  0.06132  0.59621  1.0000
  C   C583      1.0  0.13328  0.04791  0.57319  1.0000
  C   C584      1.0  0.14053  0.98051  0.58703  1.0000
  H   H576      1.0  0.43020  0.18610  0.76012  1.0000
  H   H577      1.0  0.29252  0.15948  0.76489  1.0000
  C   C585      1.0  0.15171  0.98632  0.57484  1.0000
  H   H578      1.0  0.09813  0.08219  0.56771  1.0000
  C   C586      1.0  0.37302  0.22386  0.67991  1.0000
  H   H579      1.0  0.47873  0.00395  0.60691  1.0000
  H   H580      1.0  0.47925  0.04352  0.56910  1.0000
  H   H581      1.0  0.98842  0.13309  0.73367  1.0000
  C   C587      1.0  0.47441  0.00754  0.57069  1.0000
  H   H582      1.0  0.98612  0.07436  0.60218  1.0000
  H   H583      1.0  0.98681  0.98088  0.63765  1.0000
  C   C588      1.0  0.16706  0.97781  0.57271  1.0000
  H   H584      1.0  0.45496  0.22624  0.73660  1.0000
  S   S193      1.0  0.48314  0.06948  0.61486  1.0000
  S   S194      1.0  0.98606  0.09280  0.62246  1.0000
  C   C589      1.0  0.48521  0.19611  0.74390  1.0000
  H   H585      1.0  0.24445  0.21325  0.56723  1.0000
  H   H586      1.0  0.14841  0.99712  0.56678  1.0000
  C   C590      1.0  0.23574  0.20748  0.56701  1.0000
  Fe  Fe93      1.0  0.05599  0.12087  0.84888  1.0000
  S   S195      1.0  0.03227  0.11884  0.86313  1.0000
  S   S196      1.0  0.06040  0.13846  0.82695  1.0000
  Fe  Fe94      1.0  0.07265  0.09472  0.87065  1.0000
  S   S197      1.0  0.05044  0.09016  0.88683  1.0000
  S   S198      1.0  0.09681  0.08184  0.87308  1.0000
  Fe  Fe95      1.0  0.04213  0.09323  0.86548  1.0000
  S   S199      1.0  0.03051  0.07583  0.86332  1.0000
  Fe  Fe96      1.0  0.04284  0.11606  0.88304  1.0000
  S   S200      1.0  0.03091  0.12754  0.90295  1.0000
  S   S201      1.0  0.06499  0.09555  0.84947  1.0000
  S   S202      1.0  0.06575  0.12037  0.86862  1.0000
  H   H587      1.0  0.04324  0.10652  0.76723  1.0000
  H   H588      1.0  0.39642  0.09122  0.95277  1.0000
  S   S203      1.0  0.06309  0.20535  0.92796  1.0000
  Fe  Fe97      1.0  0.02073  0.20241  0.94816  1.0000
  S   S204      1.0  0.02684  0.21632  0.92407  1.0000
  Fe  Fe98      1.0  0.04678  0.19598  0.92084  1.0000
  S   S205      1.0  0.05374  0.18759  0.89864  1.0000
  H   H589      1.0  0.33876  0.01126  0.88239  1.0000
  S   S206      1.0  0.03970  0.18156  0.94438  1.0000
  C   C591      1.0  0.28424  0.17351  0.83430  1.0000
  Fe  Fe99      1.0  0.12034  0.01157  0.93256  1.0000
  H   H590      1.0  0.19908  0.15397  0.82315  1.0000
  S   S207      1.0  0.09813  0.02950  0.93363  1.0000
  Fe  Fe100     1.0  0.15460  0.00245  0.91897  1.0000
  S   S208      1.0  0.17410  0.01266  0.90245  1.0000
  S   S209      1.0  0.29512  0.11617  0.78074  1.0000
  H   H591      1.0  0.19234  0.02434  0.92112  1.0000
  C   C592      1.0  0.20327  0.15422  0.81096  1.0000
  S   S210      1.0  0.13350  0.00154  0.91195  1.0000
  S   S211      1.0  0.14124  0.01462  0.93814  1.0000
  Fe  Fe101     1.0  0.33797  0.02132  0.96182  1.0000
  H   H592      1.0  0.05351  0.02883  0.90742  1.0000
  C   C593      1.0  0.31676  0.15864  0.81059  1.0000
  Fe  Fe102     1.0  0.37036  0.00212  0.95549  1.0000
  S   S212      1.0  0.44190  0.10460  0.94513  1.0000
  S   S213      1.0  0.26488  0.14438  0.78612  1.0000
  H   H593      1.0  0.37335  0.22498  0.83062  1.0000
  H   H594      1.0  0.09528  0.01461  0.90934  1.0000
  Fe  Fe103     1.0  0.42329  0.12630  0.94678  1.0000
  S   S214      1.0  0.41738  0.14443  0.92589  1.0000
  H   H595      1.0  0.08962  0.15498  0.77197  1.0000
  H   H596      1.0  0.40790  0.16605  0.81480  1.0000
  Fe  Fe104     1.0  0.34157  0.15709  0.85397  1.0000
  S   S215      1.0  0.33982  0.18185  0.84119  1.0000
  S   S216      1.0  0.33508  0.13772  0.84829  1.0000
  Fe  Fe105     1.0  0.35254  0.16209  0.88002  1.0000
  S   S217      1.0  0.35169  0.18743  0.86956  1.0000
  S   S218      1.0  0.35729  0.14804  0.90317  1.0000
  Fe  Fe106     1.0  0.32921  0.18798  0.86422  1.0000
  Fe  Fe107     1.0  0.36244  0.17958  0.84725  1.0000
  C   C594      1.0  0.24512  0.98734  0.81586  1.0000
  S   S219      1.0  0.32896  0.16336  0.87660  1.0000
  S   S220      1.0  0.36525  0.15415  0.85812  1.0000
  S   S221      1.0  0.30746  0.20699  0.86488  1.0000
  H   H597      1.0  0.01414  0.00658  0.83109  1.0000
  H   H598      1.0  0.07420  0.11200  0.81204  1.0000
  S   S222      1.0  0.01552  0.02197  0.79637  1.0000
  Fe  Fe108     1.0  0.35355  0.01622  0.92942  1.0000
  S   S223      1.0  0.37706  0.01674  0.93179  1.0000
  S   S224      1.0  0.34974  0.01522  0.90670  1.0000
  Fe  Fe109     1.0  0.36437  0.03704  0.94284  1.0000
  S   S225      1.0  0.36969  0.06078  0.93758  1.0000
  S   S226      1.0  0.34133  0.03752  0.93877  1.0000
  S   S227      1.0  0.14697  0.20209  0.77264  1.0000
  S   S228      1.0  0.26168  0.99517  0.86405  1.0000
  H   H599      1.0  0.04412  0.05010  0.88666  1.0000
  H   H600      1.0  0.07110  0.21486  0.88701  1.0000
  S   S229      1.0  0.29728  0.99559  0.86511  1.0000
  H   H601      1.0  0.37268  0.15740  0.96194  1.0000
  Fe  Fe110     1.0  0.27298  0.00886  0.87249  1.0000
  S   S230      1.0  0.26576  0.03484  0.86941  1.0000
  S   S231      1.0  0.26937  0.99473  0.89673  1.0000
  C   C595      1.0  1.00000  0.99184  0.83014  1.0000
  H   H602      1.0  0.09833  0.98926  0.89025  1.0000
  N   N54       1.0  0.23506  0.98679  0.83128  1.0000
  C   C596      1.0  0.33905  0.00221  0.90642  1.0000
  C   C597      1.0  0.33486  0.00309  0.89272  1.0000
  C   C598      1.0  0.08261  0.01660  0.91018  1.0000
  C   C599      1.0  0.23656  0.99536  0.84049  1.0000
  C   C600      1.0  0.00047  0.15410  0.89255  1.0000
  C   C601      1.0  0.33411  0.99152  0.91970  1.0000
  C   C602      1.0  0.22213  0.98081  0.90007  1.0000
  H   H603      1.0  0.33733  0.99071  0.93028  1.0000
  C   C603      1.0  0.28983  0.04810  0.82584  1.0000
  C   C604      1.0  0.28377  0.03892  0.83994  1.0000
  C   C605      1.0  0.27284  0.04594  0.85128  1.0000
  H   H604      1.0  0.29839  0.04262  0.81715  1.0000
  H   H605      1.0  0.28767  0.02644  0.84206  1.0000
  C   C606      1.0  0.32679  0.14127  0.83234  1.0000
  C   C607      1.0  0.32147  0.12938  0.83008  1.0000
  C   C608      1.0  0.31335  0.13223  0.81845  1.0000
  H   H606      1.0  0.42067  0.06614  0.92317  1.0000
  H   H607      1.0  0.15730  0.21101  0.80613  1.0000
  C   C609      1.0  0.32455  0.15589  0.82247  1.0000
  H   H608      1.0  0.32334  0.11799  0.83758  1.0000
  H   H609      1.0  0.30902  0.12307  0.81699  1.0000
  H   H610      1.0  0.32869  0.16509  0.82406  1.0000
  H   H611      1.0  0.41428  0.04195  0.96212  1.0000
  C   C610      1.0  0.37086  0.18969  0.80656  1.0000
  H   H612      1.0  0.27932  0.17919  0.82425  1.0000
  H   H613      1.0  0.24121  0.99845  0.80800  1.0000
  C   C611      1.0  0.32538  0.99366  0.89240  1.0000
  Fe  Fe111     1.0  0.28562  0.98052  0.85865  1.0000
  H   H614      1.0  0.36387  0.18205  0.81467  1.0000
  N   N55       1.0  0.29162  0.15032  0.85287  1.0000
  H   H615      1.0  0.20450  0.01890  0.89057  1.0000
  C   C612      1.0  0.31982  0.22525  0.87522  1.0000
  C   C613      1.0  0.41298  0.17012  0.80275  1.0000
  S   S232      1.0  0.02149  0.06295  0.77591  1.0000
  C   C614      1.0  0.38361  0.06280  0.94612  1.0000
  C   C615      1.0  0.38423  0.07768  0.94671  1.0000
  H   H616      1.0  0.40858  0.17272  0.76684  1.0000
  C   C616      1.0  0.32887  0.22688  0.82998  1.0000
  C   C617      1.0  0.01243  0.99491  0.79217  1.0000
  C   C618      1.0  0.38431  0.15239  0.96465  1.0000
  C   C619      1.0  0.22056  0.99679  0.89444  1.0000
  C   C620      1.0  0.40049  0.14562  0.91976  1.0000
  C   C621      1.0  0.39794  0.15548  0.90569  1.0000
  C   C622      1.0  0.38469  0.15645  0.90043  1.0000
  C   C623      1.0  0.37384  0.14767  0.90934  1.0000
  C   C624      1.0  0.37634  0.13790  0.92344  1.0000
  C   C625      1.0  0.38964  0.13680  0.92858  1.0000
  H   H617      1.0  0.40630  0.16233  0.89877  1.0000
  H   H618      1.0  0.38286  0.16399  0.88952  1.0000
  H   H619      1.0  0.36800  0.13102  0.93033  1.0000
  H   H620      1.0  0.39148  0.12902  0.93930  1.0000
  H   H621      1.0  0.28047  0.15130  0.83516  1.0000
  Fe  Fe112     1.0  0.00641  0.07951  0.79057  1.0000
  Fe  Fe113     1.0  0.26040  0.97973  0.88758  1.0000
  N   N56       1.0  0.00021  0.16205  0.90311  1.0000
  H   H622      1.0  0.42915  0.17993  0.80762  1.0000
  H   H623      1.0  0.09202  0.14672  0.85294  1.0000
  H   H624      1.0  0.39746  0.16243  0.79435  1.0000
  H   H625      1.0  0.21782  0.10652  0.81676  1.0000
  H   H626      1.0  0.98949  0.00086  0.83114  1.0000
  H   H627      1.0  0.29100  0.12784  0.85106  1.0000
  H   H628      1.0  0.31496  0.17000  0.80303  1.0000
  C   C626      1.0  0.99378  0.15625  0.91943  1.0000
  C   C627      1.0  0.09155  0.22264  0.87251  1.0000
  H   H629      1.0  0.21836  0.15520  0.76729  1.0000
  S   S233      1.0  0.43195  0.13255  0.96426  1.0000
  H   H630      1.0  0.27046  0.06467  0.77244  1.0000
  H   H631      1.0  0.17378  0.02125  0.93177  1.0000
  H   H632      1.0  0.17118  0.99766  0.95130  1.0000
  C   C628      1.0  0.40711  0.16809  0.79128  1.0000
  C   C629      1.0  0.20822  0.99714  0.93272  1.0000
  H   H633      1.0  0.17003  0.14356  0.82277  1.0000
  C   C630      1.0  0.99013  0.19934  0.93488  1.0000
  Fe  Fe114     1.0  0.25428  0.12727  0.80568  1.0000
  H   H634      1.0  0.39742  0.21541  0.77669  1.0000
  H   H635      1.0  0.06299  0.06241  0.86544  1.0000
  C   C631      1.0  0.98855  0.99078  0.78947  1.0000
  C   C632      1.0  0.18597  0.01934  0.93274  1.0000
  H   H636      1.0  0.05595  0.13888  0.77259  1.0000
  H   H637      1.0  0.35433  0.07235  0.96475  1.0000
  S   S234      1.0  0.34790  0.00000  0.95219  1.0000
  C   C633      1.0  0.00419  0.98524  0.79009  1.0000
  C   C634      1.0  0.06219  0.10072  0.80299  1.0000
  C   C635      1.0  0.08519  0.15182  0.81244  1.0000
  H   H638      1.0  0.10014  0.03230  0.88597  1.0000
  C   C636      1.0  0.09759  0.06805  0.89043  1.0000
  C   C637      1.0  0.08456  0.06791  0.90257  1.0000
  C   C638      1.0  0.08491  0.05619  0.91594  1.0000
  C   C639      1.0  0.09838  0.04466  0.91730  1.0000
  C   C640      1.0  0.11164  0.04507  0.90539  1.0000
  C   C641      1.0  0.11124  0.05678  0.89196  1.0000
  H   H639      1.0  0.07422  0.07686  0.90177  1.0000
  H   H640      1.0  0.07470  0.05601  0.92522  1.0000
  H   H641      1.0  0.12216  0.03632  0.90648  1.0000
  H   H642      1.0  0.12143  0.05695  0.88266  1.0000
  C   C642      1.0  0.03726  0.14426  0.90146  1.0000
  C   C643      1.0  0.03426  0.15017  0.91461  1.0000
  C   C644      1.0  0.03895  0.16366  0.91368  1.0000
  C   C645      1.0  0.04688  0.17124  0.89970  1.0000
  C   C646      1.0  0.04961  0.16551  0.88644  1.0000
  C   C647      1.0  0.04477  0.15205  0.88731  1.0000
  H   H643      1.0  0.02830  0.14429  0.92555  1.0000
  H   H644      1.0  0.03640  0.16811  0.92384  1.0000
  H   H645      1.0  0.05544  0.17148  0.87549  1.0000
  H   H646      1.0  0.04655  0.14794  0.87698  1.0000
  C   C648      1.0  0.02607  0.08139  0.84509  1.0000
  C   C649      1.0  0.02092  0.07134  0.83972  1.0000
  C   C650      1.0  0.01776  0.07572  0.82494  1.0000
  C   C651      1.0  0.01955  0.09024  0.81566  1.0000
  C   C652      1.0  0.02447  0.10034  0.82114  1.0000
  C   C653      1.0  0.02792  0.09584  0.83573  1.0000
  H   H647      1.0  0.01954  0.06012  0.84692  1.0000
  C   C654      1.0  0.44341  0.19221  0.77907  1.0000
  H   H648      1.0  0.28990  0.19406  0.83617  1.0000
  H   H649      1.0  0.03191  0.10365  0.83975  1.0000
  C   C655      1.0  0.09011  0.12776  0.83113  1.0000
  C   C656      1.0  0.07991  0.13930  0.82309  1.0000
  H   H650      1.0  0.22809  0.00217  0.86238  1.0000
  H   H651      1.0  0.09115  0.05373  0.86530  1.0000
  H   H652      1.0  0.08630  0.11776  0.83897  1.0000
  C   C657      1.0  0.29025  0.18181  0.84089  1.0000
  N   N57       1.0  0.09476  0.13582  0.87567  1.0000
  C   C658      1.0  0.08525  0.14377  0.88655  1.0000
  C   C659      1.0  0.09801  0.11995  0.87889  1.0000
  C   C660      1.0  0.07871  0.13582  0.90109  1.0000
  C   C661      1.0  0.09176  0.11164  0.89337  1.0000
  C   C662      1.0  0.08194  0.11965  0.90446  1.0000
  C   C663      1.0  0.10058  0.14441  0.86017  1.0000
  H   H653      1.0  0.08242  0.15635  0.88396  1.0000
  H   H654      1.0  0.10512  0.11359  0.87014  1.0000
  H   H655      1.0  0.07094  0.14219  0.90957  1.0000
  H   H656      1.0  0.09424  0.09907  0.89583  1.0000
  H   H657      1.0  0.07668  0.11335  0.91557  1.0000
  Fe  Fe115     1.0  0.13358  0.16698  0.80239  1.0000
  H   H658      1.0  0.10261  0.15565  0.86047  1.0000
  S   S235      1.0  0.29277  0.07549  0.80523  1.0000
  H   H659      1.0  0.20524  0.12312  0.77275  1.0000
  C   C664      1.0  0.22687  0.99535  0.85513  1.0000
  C   C665      1.0  0.42491  0.17814  0.79860  1.0000
  Fe  Fe116     1.0  0.13129  0.18802  0.77119  1.0000
  C   C666      1.0  0.21309  0.11349  0.79400  1.0000
  H   H660      1.0  0.99992  0.20459  0.92913  1.0000
  H   H661      1.0  0.02456  0.99063  0.79257  1.0000
  H   H662      1.0  0.08008  0.00566  0.90970  1.0000
  N   N58       1.0  0.30295  0.03357  0.88657  1.0000
  C   C667      1.0  0.31121  0.03848  0.89377  1.0000
  C   C668      1.0  0.29374  0.02335  0.89479  1.0000
  C   C669      1.0  0.31066  0.03284  0.90954  1.0000
  C   C670      1.0  0.29307  0.01732  0.91053  1.0000
  C   C671      1.0  0.30163  0.02209  0.91792  1.0000
  C   C672      1.0  0.30342  0.03973  0.87010  1.0000
  H   H663      1.0  0.31861  0.04649  0.88729  1.0000
  H   H664      1.0  0.28709  0.01960  0.88911  1.0000
  H   H665      1.0  0.31773  0.03626  0.91508  1.0000
  H   H666      1.0  0.28624  0.00874  0.91683  1.0000
  H   H667      1.0  0.30158  0.01719  0.93002  1.0000
  H   H668      1.0  0.30240  0.03082  0.86463  1.0000
  H   H669      1.0  0.29360  0.04986  0.86847  1.0000
  H   H670      1.0  0.31451  0.04328  0.86389  1.0000
  N   N59       1.0  0.39772  0.09886  0.90704  1.0000
  C   C673      1.0  0.40345  0.08338  0.91211  1.0000
  C   C674      1.0  0.40527  0.10959  0.90736  1.0000
  C   C675      1.0  0.41657  0.07837  0.91851  1.0000
  C   C676      1.0  0.41826  0.10502  0.91392  1.0000
  C   C677      1.0  0.42382  0.08930  0.91968  1.0000
  C   C678      1.0  0.38371  0.10395  0.90076  1.0000
  H   H671      1.0  0.39753  0.07483  0.91180  1.0000
  H   H672      1.0  0.40109  0.12181  0.90277  1.0000
  H   H673      1.0  0.42383  0.11365  0.91469  1.0000
  H   H674      1.0  0.43361  0.08557  0.92521  1.0000
  H   H675      1.0  0.37568  0.09595  0.90649  1.0000
  H   H676      1.0  0.37714  0.11566  0.90273  1.0000
  H   H677      1.0  0.38688  0.10443  0.88819  1.0000
  H   H678      1.0  0.41820  0.18449  0.95438  1.0000
  C   C679      1.0  0.38056  0.19563  0.81151  1.0000
  H   H679      1.0  0.18210  0.16883  0.80493  1.0000
  S   S236      1.0  0.38150  0.19084  0.83099  1.0000
  N   N60       1.0  0.18405  0.12865  0.80784  1.0000
  C   C680      1.0  0.21829  0.14616  0.80552  1.0000
  C   C681      1.0  0.11029  0.14225  0.81932  1.0000
  C   C682      1.0  0.27380  0.07131  0.83422  1.0000
  C   C683      1.0  0.01391  0.99514  0.83020  1.0000
  H   H680      1.0  0.02569  0.11165  0.81407  1.0000
  H   H681      1.0  0.07671  0.01948  0.92159  1.0000
  S   S237      1.0  0.01644  0.09584  0.79689  1.0000
  C   C684      1.0  0.39005  0.20504  0.80072  1.0000
  H   H682      1.0  0.01835  0.17609  0.86014  1.0000
  C   C685      1.0  0.26787  0.06214  0.84839  1.0000
  C   C686      1.0  0.28487  0.06430  0.82295  1.0000
  H   H683      1.0  0.11181  0.13778  0.85451  1.0000
  H   H684      1.0  0.29634  0.08601  0.77178  1.0000
  H   H685      1.0  0.00639  0.18114  0.90691  1.0000
  C   C687      1.0  0.34387  0.22267  0.83264  1.0000
  H   H686      1.0  0.16171  0.12805  0.82232  1.0000
  H   H687      1.0  0.20832  0.98611  0.87183  1.0000
  H   H688      1.0  0.23517  0.14023  0.78544  1.0000
  H   H689      1.0  0.99965  0.14394  0.92313  1.0000
  H   H690      1.0  0.32467  0.21916  0.82595  1.0000
  C   C688      1.0  0.20573  0.00650  0.89481  1.0000
  S   S238      1.0  0.03440  0.21246  0.95787  1.0000
  H   H691      1.0  0.07740  0.16065  0.80603  1.0000
  C   C689      1.0  0.16879  0.13661  0.81529  1.0000
  C   C690      1.0  0.38027  0.20228  0.78008  1.0000
  H   H692      1.0  0.27501  0.07491  0.78388  1.0000
  H   H693      1.0  0.44491  0.19576  0.78899  1.0000
  Fe  Fe117     1.0  0.27244  0.12518  0.77343  1.0000
  C   C691      1.0  0.05419  0.10236  0.79163  1.0000
  S   S239      1.0  0.30008  0.15110  0.79460  1.0000
  S   S240      1.0  0.26016  0.10878  0.79228  1.0000
  S   S241      1.0  0.42233  0.06897  0.96423  1.0000
  H   H694      1.0  0.40878  0.16466  0.94840  1.0000
  C   C692      1.0  0.39000  0.20827  0.78499  1.0000
  H   H695      1.0  0.45450  0.18475  0.77421  1.0000
  C   C693      1.0  0.32032  0.98308  0.90572  1.0000
  Fe  Fe118     1.0  0.13467  0.97869  0.92902  1.0000
  C   C694      1.0  0.13699  0.22665  0.81582  1.0000
  H   H696      1.0  0.21558  0.00473  0.92501  1.0000
  C   C695      1.0  0.05783  0.12805  0.78098  1.0000
  C   C696      1.0  0.01300  0.17232  0.87216  1.0000
  C   C697      1.0  0.20926  0.11256  0.80984  1.0000
  H   H697      1.0  0.19186  0.11983  0.82888  1.0000
  C   C698      1.0  0.28493  0.15770  0.84053  1.0000
  H   H698      1.0  0.37599  0.08770  0.94221  1.0000
  H   H699      1.0  0.32213  0.99446  0.88181  1.0000
  C   C699      1.0  0.00610  0.17511  0.89852  1.0000
  C   C700      1.0  0.20225  0.12199  0.78513  1.0000
  C   C701      1.0  0.27096  0.07633  0.77322  1.0000
  Fe  Fe119     1.0  0.00520  0.04740  0.78957  1.0000
  H   H700      1.0  0.06335  0.09016  0.81186  1.0000
  C   C702      1.0  0.21479  0.98137  0.93727  1.0000
  H   H701      1.0  0.35133  0.21178  0.83028  1.0000
  C   C703      1.0  0.16320  0.22585  0.81701  1.0000
  N   N61       1.0  0.43084  0.18392  0.78343  1.0000
  C   C704      1.0  0.40581  0.05194  0.95794  1.0000
  C   C705      1.0  0.39576  0.07970  0.95273  1.0000
  H   H702      1.0  0.24539  0.00215  0.83660  1.0000
  C   C706      1.0  0.41333  0.17389  0.77584  1.0000
  N   N62       1.0  0.07735  0.02928  0.89786  1.0000
  C   C707      1.0  0.06183  0.03417  0.89813  1.0000
  C   C708      1.0  0.08784  0.03602  0.88613  1.0000
  C   C709      1.0  0.05644  0.04614  0.88646  1.0000
  C   C710      1.0  0.08285  0.04809  0.87434  1.0000
  C   C711      1.0  0.06705  0.05310  0.87451  1.0000
  H   H703      1.0  0.01756  0.19059  0.87951  1.0000
  H   H704      1.0  0.01408  0.06784  0.82071  1.0000
  C   C712      1.0  0.10530  0.12922  0.82923  1.0000
  H   H705      1.0  0.11303  0.12043  0.83574  1.0000
  Fe  Fe120     1.0  0.16143  0.17917  0.78204  1.0000
  S   S242      1.0  0.98916  0.05611  0.77330  1.0000
  C   C713      1.0  0.31090  0.14691  0.80875  1.0000
  S   S243      1.0  0.27523  0.11810  0.81621  1.0000
  H   H706      1.0  0.25944  0.06762  0.85715  1.0000
  H   H707      1.0  0.26991  0.08379  0.83209  1.0000
  H   H708      1.0  0.10430  0.16308  0.80254  1.0000
  S   S244      1.0  0.18686  0.17204  0.77189  1.0000
  C   C714      1.0  0.98630  0.19516  0.95095  1.0000
  C   C715      1.0  0.10039  0.15328  0.81055  1.0000
  C   C716      1.0  0.37058  0.19316  0.79091  1.0000
  C   C717      1.0  0.22372  0.14664  0.78974  1.0000
  H   H709      1.0  0.18626  0.02568  0.94122  1.0000
  H   H710      1.0  0.04926  0.09289  0.79180  1.0000
  C   C718      1.0  0.29210  0.13380  0.85950  1.0000
  S   S245      1.0  0.12848  0.14507  0.81887  1.0000
  H   H711      1.0  0.28256  0.13239  0.86985  1.0000
  H   H712      1.0  0.32940  0.21542  0.87667  1.0000
  H   H713      1.0  0.36313  0.18842  0.78714  1.0000
  S   S246      1.0  0.14948  0.17903  0.80674  1.0000
  C   C719      1.0  0.29687  0.17422  0.85357  1.0000
  H   H714      1.0  0.03852  0.98633  0.82816  1.0000
  C   C720      1.0  0.29745  0.15839  0.85946  1.0000
  Fe  Fe121     1.0  0.29287  0.98034  0.88877  1.0000
  S   S247      1.0  0.14688  0.16521  0.77851  1.0000
  C   C721      1.0  0.06604  0.12674  0.79207  1.0000
  C   C722      1.0  0.00506  0.01012  0.79365  1.0000
  S   S248      1.0  0.11660  0.18885  0.79486  1.0000
  H   H715      1.0  0.30342  0.12792  0.86276  1.0000
  H   H716      1.0  0.24645  0.11563  0.76700  1.0000
  C   C723      1.0  0.39420  0.04990  0.95204  1.0000
  C   C724      1.0  0.30741  0.22404  0.87006  1.0000
  S   S249      1.0  0.99054  0.09103  0.77438  1.0000
  H   H717      1.0  0.30163  0.18054  0.85875  1.0000
  S   S250      1.0  0.11983  0.98869  0.94907  1.0000
  C   C725      1.0  0.21574  0.98637  0.86040  1.0000
  C   C726      1.0  0.18767  0.12954  0.79229  1.0000
  H   H718      1.0  0.36565  0.21599  0.85016  1.0000
  H   H719      1.0  0.30293  0.15250  0.86911  1.0000
  H   H720      1.0  0.00763  0.15236  0.86870  1.0000
  C   C727      1.0  0.40797  0.18062  0.96182  1.0000
  Fe  Fe122     1.0  0.28643  0.13387  0.79538  1.0000
  H   H721      1.0  0.17555  0.22109  0.81405  1.0000
  N   N63       1.0  0.05211  0.11590  0.78081  1.0000
  C   C728      1.0  0.19363  0.16258  0.80067  1.0000
  H   H722      1.0  0.23074  0.00169  0.89002  1.0000
  C   C729      1.0  0.19900  0.16286  0.78492  1.0000
  H   H723      1.0  0.17946  0.13650  0.78527  1.0000
  N   N64       1.0  0.19267  0.00278  0.93751  1.0000
  S   S251      1.0  0.22987  0.13469  0.81853  1.0000
  H   H724      1.0  0.39215  0.14789  0.95457  1.0000
  Fe  Fe123     1.0  0.28218  0.10108  0.80078  1.0000
  N   N65       1.0  0.99979  0.97770  0.82817  1.0000
  H   H725      1.0  0.11383  0.98485  0.90962  1.0000
  Fe  Fe124     1.0  0.44910  0.10958  0.96426  1.0000
  C   C730      1.0  0.02761  0.98384  0.82839  1.0000
  C   C731      1.0  0.15289  0.22011  0.81255  1.0000
  C   C732      1.0  0.19250  0.00024  0.90105  1.0000
  Fe  Fe125     1.0  0.13368  0.20089  0.79716  1.0000
  C   C733      1.0  0.07799  0.22356  0.88402  1.0000
  H   H726      1.0  0.33505  0.06643  0.95498  1.0000
  H   H727      1.0  0.16226  0.14475  0.80674  1.0000
  C   C734      1.0  0.40677  0.06684  0.95807  1.0000
  Fe  Fe126     1.0  0.04251  0.22440  0.93338  1.0000
  C   C735      1.0  0.01252  0.18048  0.88299  1.0000
  C   C736      1.0  0.19458  0.12022  0.81663  1.0000
  H   H728      1.0  0.09526  0.21326  0.86641  1.0000
  Fe  Fe127     1.0  0.14201  0.99070  0.95293  1.0000
  H   H729      1.0  0.39761  0.20964  0.80449  1.0000
  C   C737      1.0  0.06818  0.11299  0.80316  1.0000
  C   C738      1.0  0.18343  0.99318  0.94729  1.0000
  H   H730      1.0  0.07042  0.13644  0.79231  1.0000
  Fe  Fe128     1.0  0.05407  0.19281  0.95188  1.0000
  H   H731      1.0  0.22459  0.10797  0.78858  1.0000
  H   H732      1.0  0.25733  0.98625  0.81634  1.0000
  C   C739      1.0  0.42536  0.18168  0.77212  1.0000
  C   C740      1.0  0.21413  0.15504  0.77946  1.0000
  H   H733      1.0  0.39374  0.03838  0.95170  1.0000
  C   C741      1.0  0.19414  0.98424  0.90644  1.0000
  C   C742      1.0  0.00696  0.15903  0.87694  1.0000
  S   S252      1.0  0.99731  0.19844  0.96196  1.0000
  S   S253      1.0  0.99135  0.06315  0.80570  1.0000
  H   H734      1.0  0.99541  0.16297  0.92693  1.0000
  H   H735      1.0  0.18403  0.97930  0.91085  1.0000
  H   H736      1.0  0.47062  0.13455  0.96609  1.0000
  Fe  Fe129     1.0  0.42487  0.09277  0.96382  1.0000
  H   H737      1.0  0.99621  0.14350  0.89628  1.0000
  H   H738      1.0  0.14869  0.01399  0.96482  1.0000
  C   C743      1.0  0.98936  0.01557  0.79329  1.0000
  H   H739      1.0  0.10775  0.17002  0.77301  1.0000
  S   S254      1.0  0.12405  0.22145  0.80840  1.0000
  C   C744      1.0  0.36467  0.22703  0.84135  1.0000
  H   H740      1.0  0.44096  0.20294  0.77010  1.0000
  C   C745      1.0  0.40263  0.16934  0.95855  1.0000
  S   S255      1.0  0.15701  0.97864  0.93429  1.0000
  H   H741      1.0  0.03038  0.12278  0.77455  1.0000
  C   C746      1.0  0.32487  0.98188  0.91931  1.0000
  H   H742      1.0  0.25913  0.08389  0.77441  1.0000
  C   C747      1.0  0.04271  0.11783  0.76970  1.0000
  S   S256      1.0  0.40577  0.11401  0.96401  1.0000
  S   S257      1.0  0.47443  0.10189  0.96595  1.0000
  C   C748      1.0  0.10280  0.97759  0.89609  1.0000
  C   C749      1.0  0.22392  0.97822  0.83622  1.0000
  C   C750      1.0  0.21424  0.97772  0.85091  1.0000
  S   S258      1.0  0.35998  0.02251  0.96675  1.0000
  H   H743      1.0  0.24510  0.97759  0.81096  1.0000
  H   H744      1.0  0.38150  0.97744  0.93881  1.0000
  S   S259      1.0  0.07301  0.29708  0.99214  1.0000
  C   C751      1.0  0.01958  0.45011  0.11158  1.0000
  H   H745      1.0  0.99389  0.37351  0.98286  1.0000
  Fe  Fe130     1.0  0.28710  0.29164  0.00488  1.0000
  S   S260      1.0  0.30586  0.26985  0.00337  1.0000
  Fe  Fe131     1.0  0.25266  0.30589  0.01382  1.0000
  S   S261      1.0  0.23125  0.29643  0.02604  1.0000
  Fe  Fe132     1.0  0.27647  0.32181  0.01633  1.0000
  S   S262      1.0  0.28516  0.33107  0.03186  1.0000
  S   S263      1.0  0.26764  0.29746  0.99273  1.0000
  S   S264      1.0  0.27184  0.29797  0.02662  1.0000
  Fe  Fe133     1.0  0.14258  0.30178  0.08505  1.0000
  S   S265      1.0  0.14617  0.32545  0.08311  1.0000
  S   S266      1.0  0.15735  0.28018  0.09672  1.0000
  Fe  Fe134     1.0  0.11912  0.31406  0.06480  1.0000
  S   S267      1.0  0.12096  0.33876  0.06060  1.0000
  S   S268      1.0  0.10191  0.30618  0.05737  1.0000
  Fe  Fe135     1.0  0.14665  0.32871  0.05806  1.0000
  S   S269      1.0  0.16488  0.34022  0.04053  1.0000
  Fe  Fe136     1.0  0.12038  0.33344  0.08590  1.0000
  S   S270      1.0  0.10382  0.34838  0.10186  1.0000
  S   S271      1.0  0.14474  0.30449  0.05982  1.0000
  S   S272      1.0  0.11671  0.30938  0.09028  1.0000
  S   S273      1.0  0.11511  0.30511  0.98720  1.0000
  H   H746      1.0  0.07904  0.24160  0.00516  1.0000
  H   H747      1.0  0.25284  0.37573  0.10025  1.0000
  C   C752      1.0  0.15142  0.43567  0.11547  1.0000
  H   H748      1.0  0.01893  0.43245  0.14726  1.0000
  H   H749      1.0  0.35772  0.40911  0.12748  1.0000
  H   H750      1.0  0.46433  0.45327  0.13515  1.0000
  C   C753      1.0  0.08622  0.34772  0.15726  1.0000
  S   S274      1.0  0.36537  0.35758  0.13712  1.0000
  S   S275      1.0  0.37869  0.38610  0.15252  1.0000
  Fe  Fe137     1.0  0.34092  0.35717  0.15016  1.0000
  S   S276      1.0  0.31902  0.36573  0.14111  1.0000
  Fe  Fe138     1.0  0.37144  0.33385  0.15193  1.0000
  S   S277      1.0  0.38827  0.31457  0.14151  1.0000
  H   H751      1.0  0.09308  0.34325  0.04352  1.0000
  H   H752      1.0  0.36453  0.26408  0.15692  1.0000
  H   H753      1.0  0.06427  0.32650  0.01951  1.0000
  S   S278      1.0  0.26315  0.43596  0.05054  1.0000
  Fe  Fe139     1.0  0.09762  0.42685  0.11633  1.0000
  S   S279      1.0  0.08562  0.45160  0.10888  1.0000
  S   S280      1.0  0.11519  0.41376  0.09940  1.0000
  Fe  Fe140     1.0  0.08423  0.42653  0.15015  1.0000
  H   H754      1.0  0.11410  0.25468  0.10810  1.0000
  Fe  Fe141     1.0  0.06514  0.44538  0.12694  1.0000
  Fe  Fe142     1.0  0.09320  0.45580  0.12808  1.0000
  S   S281      1.0  0.07625  0.42009  0.13251  1.0000
  S   S282      1.0  0.10665  0.43141  0.13437  1.0000
  H   H755      1.0  0.13569  0.42918  0.10637  1.0000
  Fe  Fe143     1.0  0.29990  0.41158  0.06476  1.0000
  S   S283      1.0  0.29984  0.42012  0.03955  1.0000
  S   S284      1.0  0.32271  0.39909  0.07123  1.0000
  Fe  Fe144     1.0  0.27717  0.41277  0.04606  1.0000
  S   S285      1.0  0.26821  0.40302  0.03120  1.0000
  S   S286      1.0  0.27827  0.40238  0.07082  1.0000
  H   H756      1.0  0.05822  0.43382  0.10477  1.0000
  C   C754      1.0  0.15345  0.25777  0.06749  1.0000
  H   H757      1.0  0.00365  0.42057  0.13779  1.0000
  H   H758      1.0  0.08227  0.33787  0.15672  1.0000
  C   C755      1.0  0.32817  0.46300  0.04592  1.0000
  H   H759      1.0  0.11638  0.34855  0.02331  1.0000
  C   C756      1.0  0.45331  0.46078  0.13891  1.0000
  H   H760      1.0  0.09905  0.35063  0.13359  1.0000
  H   H761      1.0  0.21061  0.47217  0.16483  1.0000
  Fe  Fe145     1.0  0.26596  0.42628  0.07477  1.0000
  S   S287      1.0  0.28920  0.46580  0.03246  1.0000
  H   H762      1.0  0.13758  0.47691  0.09250  1.0000
  C   C757      1.0  0.32034  0.37339  0.12131  1.0000
  C   C758      1.0  0.30667  0.37989  0.11584  1.0000
  C   C759      1.0  0.30729  0.38741  0.10033  1.0000
  C   C760      1.0  0.32163  0.38832  0.09023  1.0000
  C   C761      1.0  0.33532  0.38136  0.09556  1.0000
  C   C762      1.0  0.33469  0.37396  0.11110  1.0000
  H   H763      1.0  0.29555  0.37947  0.12372  1.0000
  H   H764      1.0  0.29669  0.39279  0.09630  1.0000
  H   H765      1.0  0.34643  0.38200  0.08773  1.0000
  H   H766      1.0  0.34527  0.36888  0.11519  1.0000
  H   H767      1.0  0.33386  0.30610  0.00353  1.0000
  C   C763      1.0  0.40043  0.26875  0.15927  1.0000
  C   C764      1.0  0.39997  0.28347  0.14948  1.0000
  Fe  Fe146     1.0  0.07499  0.28712  0.97199  1.0000
  C   C765      1.0  0.04148  0.40313  0.13181  1.0000
  H   H768      1.0  0.21068  0.47412  0.11611  1.0000
  H   H769      1.0  0.35085  0.39236  0.13941  1.0000
  H   H770      1.0  0.40676  0.28461  0.13778  1.0000
  C   C766      1.0  0.23884  0.45039  0.09510  1.0000
  S   S288      1.0  0.24517  0.43067  0.09403  1.0000
  S   S289      1.0  0.25586  0.33049  0.00518  1.0000
  C   C767      1.0  0.09621  0.37312  0.15824  1.0000
  H   H771      1.0  0.34291  0.26953  0.06399  1.0000
  C   C768      1.0  0.10667  0.30404  0.03829  1.0000
  C   C769      1.0  0.12056  0.30700  0.02836  1.0000
  C   C770      1.0  0.12340  0.30657  0.01277  1.0000
  C   C771      1.0  0.11232  0.30334  0.00709  1.0000
  C   C772      1.0  0.09875  0.29976  0.01719  1.0000
  C   C773      1.0  0.09594  0.30008  0.03278  1.0000
  H   H772      1.0  0.12889  0.31007  0.03256  1.0000
  H   H773      1.0  0.13396  0.30929  0.00499  1.0000
  H   H774      1.0  0.08524  0.29768  0.04048  1.0000
  C   C774      1.0  0.10687  0.36690  0.09989  1.0000
  C   C775      1.0  0.12101  0.37088  0.09194  1.0000
  C   C776      1.0  0.12341  0.38542  0.09159  1.0000
  C   C777      1.0  0.11168  0.39599  0.09915  1.0000
  C   C778      1.0  0.09741  0.39212  0.10670  1.0000
  C   C779      1.0  0.09504  0.37760  0.10713  1.0000
  H   H775      1.0  0.13017  0.36268  0.08628  1.0000
  H   H776      1.0  0.13444  0.38840  0.08560  1.0000
  H   H777      1.0  0.08816  0.40032  0.11211  1.0000
  H   H778      1.0  0.08402  0.37462  0.11311  1.0000
  C   C780      1.0  0.18309  0.32806  0.03506  1.0000
  C   C781      1.0  0.19593  0.33459  0.02698  1.0000
  C   C782      1.0  0.21077  0.32502  0.02355  1.0000
  C   C783      1.0  0.21275  0.30889  0.02805  1.0000
  C   C784      1.0  0.19983  0.30240  0.03560  1.0000
  C   C785      1.0  0.18509  0.31194  0.03920  1.0000
  H   H779      1.0  0.19444  0.34706  0.02368  1.0000
  H   H780      1.0  0.22068  0.33011  0.01772  1.0000
  H   H781      1.0  0.20129  0.28993  0.03904  1.0000
  H   H782      1.0  0.17533  0.30679  0.04531  1.0000
  C   C786      1.0  0.28076  0.35116  0.03118  1.0000
  C   C787      1.0  0.27097  0.36165  0.02199  1.0000
  C   C788      1.0  0.26745  0.37756  0.02192  1.0000
  C   C789      1.0  0.27372  0.38310  0.03097  1.0000
  C   C790      1.0  0.28353  0.37262  0.04016  1.0000
  C   C791      1.0  0.28700  0.35669  0.04028  1.0000
  H   H783      1.0  0.26612  0.35751  0.01493  1.0000
  H   H784      1.0  0.25983  0.38561  0.01480  1.0000
  H   H785      1.0  0.28838  0.37678  0.04720  1.0000
  H   H786      1.0  0.29459  0.34864  0.04741  1.0000
  H   H787      1.0  0.01099  0.45791  0.11819  1.0000
  C   C792      1.0  0.01506  0.44332  0.10221  1.0000
  S   S290      1.0  0.03966  0.33307  0.99219  1.0000
  C   C793      1.0  0.32437  0.40425  0.13177  1.0000
  H   H788      1.0  0.47873  0.25613  0.16230  1.0000
  H   H789      1.0  0.06545  0.23523  0.97335  1.0000
  C   C794      1.0  0.32723  0.24843  0.01809  1.0000
  C   C795      1.0  0.31460  0.26111  0.01919  1.0000
  C   C796      1.0  0.30881  0.26619  0.03302  1.0000
  C   C797      1.0  0.31550  0.25846  0.04574  1.0000
  H   H790      1.0  0.06319  0.34367  0.00416  1.0000
  H   H791      1.0  0.11962  0.44602  0.09048  1.0000
  H   H792      1.0  0.29910  0.27595  0.03399  1.0000
  H   H793      1.0  0.31095  0.26239  0.05644  1.0000
  C   C798      1.0  0.13489  0.23832  0.11310  1.0000
  C   C799      1.0  0.31117  0.41718  0.11098  1.0000
  C   C800      1.0  0.15718  0.24939  0.10875  1.0000
  C   C801      1.0  0.14846  0.26422  0.10368  1.0000
  C   C802      1.0  0.13292  0.26604  0.10353  1.0000
  C   C803      1.0  0.12612  0.25316  0.10833  1.0000
  H   H794      1.0  0.32590  0.44065  0.01429  1.0000
  H   H795      1.0  0.16923  0.24788  0.10888  1.0000
  H   H796      1.0  0.12609  0.27735  0.09964  1.0000
  S   S291      1.0  0.04041  0.45483  0.12472  1.0000
  C   C804      1.0  0.02292  0.47683  0.07569  1.0000
  S   S292      1.0  0.07163  0.45149  0.14569  1.0000
  H   H797      1.0  0.03864  0.42360  0.14768  1.0000
  C   C805      1.0  0.12411  0.45646  0.08915  1.0000
  C   C806      1.0  0.44336  0.45564  0.15288  1.0000
  C   C807      1.0  0.01451  0.41324  0.13323  1.0000
  C   C808      1.0  0.12090  0.23699  0.08012  1.0000
  C   C809      1.0  0.12352  0.46586  0.13920  1.0000
  C   C810      1.0  0.24154  0.47715  0.08590  1.0000
  C   C811      1.0  0.15043  0.23642  0.11339  1.0000
  H   H798      1.0  0.25930  0.35646  0.08383  1.0000
  N   N66       1.0  0.02779  0.41237  0.13761  1.0000
  H   H799      1.0  0.11408  0.46570  0.09283  1.0000
  C   C812      1.0  0.38710  0.28179  0.11705  1.0000
  H   H800      1.0  0.05019  0.42167  0.08835  1.0000
  C   C813      1.0  0.00070  0.41239  0.98006  1.0000
  S   S293      1.0  0.29308  0.31485  0.99529  1.0000
  H   H801      1.0  0.23816  0.41908  0.05107  1.0000
  H   H802      1.0  0.47826  0.23553  0.14305  1.0000
  C   C814      1.0  0.02607  0.43299  0.09390  1.0000
  C   C815      1.0  0.99432  0.32610  0.98994  1.0000
  C   C816      1.0  0.31059  0.41011  0.12649  1.0000
  C   C817      1.0  0.14170  0.46521  0.09863  1.0000
  H   H803      1.0  0.01676  0.46050  0.06695  1.0000
  C   C818      1.0  0.04618  0.43649  0.10410  1.0000
  C   C819      1.0  0.32798  0.45191  0.00770  1.0000
  H   H804      1.0  0.36139  0.39185  0.12011  1.0000
  C   C820      1.0  0.31517  0.45929  0.04402  1.0000
  H   H805      1.0  0.31278  0.44794  0.04940  1.0000
  C   C821      1.0  0.32810  0.24574  0.04464  1.0000
  H   H806      1.0  0.11845  0.34654  0.99651  1.0000
  S   S294      1.0  0.28770  0.43446  0.07111  1.0000
  H   H807      1.0  0.15937  0.25758  0.05531  1.0000
  C   C822      1.0  0.02925  0.34862  0.98058  1.0000
  Fe  Fe147     1.0  0.99590  0.43134  0.08020  1.0000
  C   C823      1.0  0.33901  0.41245  0.10665  1.0000
  H   H808      1.0  0.00304  0.44591  0.10163  1.0000
  C   C824      1.0  0.00924  0.32342  0.98075  1.0000
  H   H809      1.0  0.34404  0.29578  0.14710  1.0000
  C   C825      1.0  0.10851  0.24907  0.07649  1.0000
  C   C826      1.0  0.15289  0.46258  0.10718  1.0000
  C   C827      1.0  0.33398  0.24076  0.03078  1.0000
  H   H810      1.0  0.30064  0.42118  0.10659  1.0000
  H   H811      1.0  0.16592  0.44574  0.12284  1.0000
  C   C828      1.0  0.39029  0.26575  0.12254  1.0000
  S   S295      1.0  0.07287  0.26252  0.97577  1.0000
  H   H812      1.0  0.36057  0.46992  0.01244  1.0000
  H   H813      1.0  0.47989  0.47630  0.13897  1.0000
  C   C829      1.0  0.98875  0.41828  0.97207  1.0000
  H   H814      1.0  0.25250  0.36473  0.05816  1.0000
  C   C830      1.0  0.22586  0.45502  0.10638  1.0000
  C   C831      1.0  0.01437  0.35620  0.98708  1.0000
  H   H815      1.0  0.33179  0.24449  0.00739  1.0000
  S   S296      1.0  0.33673  0.23680  0.06051  1.0000
  H   H816      1.0  0.35519  0.29031  0.16186  1.0000
  H   H817      1.0  0.44673  0.44423  0.15989  1.0000
  N   N67       1.0  0.08349  0.33751  0.01314  1.0000
  C   C832      1.0  0.09618  0.34058  0.00190  1.0000
  C   C833      1.0  0.08214  0.33880  0.02785  1.0000
  C   C834      1.0  0.10814  0.34471  0.00534  1.0000
  C   C835      1.0  0.09389  0.34290  0.03169  1.0000
  C   C836      1.0  0.10699  0.34581  0.02036  1.0000
  Fe  Fe148     1.0  0.06048  0.31901  0.97883  1.0000
  H   H818      1.0  0.99171  0.43857  0.00204  1.0000
  H   H819      1.0  0.07221  0.33616  0.03685  1.0000
  C   C837      1.0  0.35274  0.39943  0.12746  1.0000
  C   C838      1.0  0.00535  0.36781  0.97775  1.0000
  C   C839      1.0  0.32546  0.41836  0.10097  1.0000
  H   H820      1.0  0.14145  0.45635  0.15215  1.0000
  H   H821      1.0  0.40085  0.47053  0.13521  1.0000
  H   H822      1.0  0.00443  0.40641  0.11835  1.0000
  H   H823      1.0  0.16059  0.24906  0.07522  1.0000
  C   C840      1.0  0.42914  0.46536  0.15779  1.0000
  H   H824      1.0  0.15270  0.26925  0.06973  1.0000
  S   S297      1.0  0.02056  0.42338  0.08308  1.0000
  H   H825      1.0  0.21976  0.44649  0.11433  1.0000
  Fe  Fe149     1.0  0.28589  0.44231  0.04639  1.0000
  Fe  Fe150     1.0  0.27232  0.32136  0.98483  1.0000
  H   H826      1.0  0.25651  0.45811  0.07591  1.0000
  C   C841      1.0  0.24661  0.46152  0.08478  1.0000
  C   C842      1.0  0.13645  0.46626  0.14418  1.0000
  C   C843      1.0  0.37560  0.29122  0.12602  1.0000
  H   H827      1.0  0.37344  0.30372  0.12183  1.0000
  C   C844      1.0  0.29463  0.23059  0.05070  1.0000
  C   C845      1.0  0.04164  0.42967  0.09478  1.0000
  H   H828      1.0  0.02931  0.39033  0.10709  1.0000
  C   C846      1.0  0.03512  0.44665  0.11256  1.0000
  N   N68       1.0  0.13567  0.45331  0.09838  1.0000
  H   H829      1.0  0.40761  0.25866  0.15508  1.0000
  H   H830      1.0  0.35011  0.41311  0.09874  1.0000
  H   H831      1.0  0.10148  0.27349  0.06683  1.0000
  H   H832      1.0  0.11860  0.45570  0.14335  1.0000
  C   C847      1.0  0.11102  0.26396  0.06968  1.0000
  C   C848      1.0  0.14047  0.43864  0.10655  1.0000
  H   H833      1.0  0.32382  0.39828  0.14373  1.0000
  H   H834      1.0  0.15490  0.42412  0.12222  1.0000
  N   N69       1.0  0.33834  0.40546  0.12186  1.0000
  C   C849      1.0  0.07113  0.33317  0.00925  1.0000
  C   C850      1.0  0.38199  0.25936  0.13688  1.0000
  H   H835      1.0  0.09030  0.29698  0.01299  1.0000
  H   H836      1.0  0.09739  0.33927  0.99029  1.0000
  H   H837      1.0  0.32608  0.42321  0.08876  1.0000
  N   N70       1.0  0.19968  0.29384  0.07366  1.0000
  C   C851      1.0  0.18738  0.30584  0.07662  1.0000
  C   C852      1.0  0.21394  0.29667  0.06580  1.0000
  C   C853      1.0  0.18910  0.32120  0.07142  1.0000
  C   C854      1.0  0.21612  0.31187  0.06063  1.0000
  C   C855      1.0  0.20356  0.32419  0.06333  1.0000
  C   C856      1.0  0.19717  0.27800  0.07843  1.0000
  H   H838      1.0  0.17607  0.30355  0.08264  1.0000
  H   H839      1.0  0.22357  0.28728  0.06280  1.0000
  H   H840      1.0  0.17915  0.33073  0.07309  1.0000
  H   H841      1.0  0.22726  0.31408  0.05374  1.0000
  H   H842      1.0  0.20488  0.33606  0.05865  1.0000
  H   H843      1.0  0.19198  0.27530  0.09099  1.0000
  H   H844      1.0  0.18899  0.27690  0.07216  1.0000
  H   H845      1.0  0.20811  0.26922  0.07606  1.0000
  N   N71       1.0  0.32949  0.29371  0.02680  1.0000
  C   C857      1.0  0.32196  0.29778  0.04057  1.0000
  C   C858      1.0  0.34177  0.28124  0.02611  1.0000
  C   C859      1.0  0.32679  0.28930  0.05413  1.0000
  C   C860      1.0  0.34695  0.27256  0.03943  1.0000
  C   C861      1.0  0.33934  0.27658  0.05352  1.0000
  C   C862      1.0  0.32413  0.30230  0.01270  1.0000
  H   H846      1.0  0.31203  0.30752  0.04115  1.0000
  H   H847      1.0  0.34735  0.27769  0.01527  1.0000
  H   H848      1.0  0.32066  0.29242  0.06505  1.0000
  H   H849      1.0  0.35635  0.26234  0.03896  1.0000
  H   H850      1.0  0.46145  0.47254  0.16348  1.0000
  H   H851      1.0  0.31929  0.29476  0.00862  1.0000
  H   H852      1.0  0.39664  0.40560  0.15572  1.0000
  H   H853      1.0  0.36508  0.47639  0.99173  1.0000
  C   C863      1.0  0.34051  0.45707  0.00872  1.0000
  H   H854      1.0  0.00967  0.35283  0.99930  1.0000
  H   H855      1.0  0.24012  0.40286  0.09072  1.0000
  C   C864      1.0  0.08021  0.22924  0.00651  1.0000
  Fe  Fe151     1.0  0.09452  0.30536  0.97848  1.0000
  N   N72       1.0  0.36766  0.28486  0.14017  1.0000
  H   H856      1.0  0.23999  0.39202  0.04897  1.0000
  C   C865      1.0  0.35574  0.47696  0.00228  1.0000
  H   H857      1.0  0.39366  0.28691  0.10603  1.0000
  H   H858      1.0  0.07609  0.32556  0.00083  1.0000
  C   C866      1.0  0.09565  0.35493  0.14413  1.0000
  N   N73       1.0  0.00155  0.41953  0.99084  1.0000
  N   N74       1.0  0.13794  0.25474  0.07063  1.0000
  C   C867      1.0  0.12592  0.26660  0.06675  1.0000
  C   C868      1.0  0.13566  0.24002  0.07698  1.0000
  H   H859      1.0  0.39928  0.25824  0.11581  1.0000
  H   H860      1.0  0.99226  0.32072  0.00212  1.0000
  H   H861      1.0  0.12771  0.27825  0.06155  1.0000
  H   H862      1.0  0.19566  0.45724  0.15704  1.0000
  H   H863      1.0  0.14510  0.23061  0.08028  1.0000
  H   H864      1.0  0.10783  0.37352  0.13446  1.0000
  C   C869      1.0  0.01482  0.40515  0.12237  1.0000
  H   H865      1.0  0.29961  0.40854  0.13425  1.0000
  H   H866      1.0  0.33567  0.45454  0.05293  1.0000
  C   C870      1.0  0.30550  0.47018  0.03494  1.0000
  H   H867      1.0  0.02421  0.41827  0.99298  1.0000
  H   H868      1.0  0.21989  0.41662  0.06423  1.0000
  C   C871      1.0  0.02719  0.42102  0.14896  1.0000
  H   H869      1.0  0.28471  0.24855  0.03320  1.0000
  C   C872      1.0  0.37063  0.26913  0.14561  1.0000
  H   H870      1.0  0.31495  0.31287  0.01456  1.0000
  H   H871      1.0  0.34818  0.44956  0.01608  1.0000
  H   H872      1.0  0.05197  0.40231  0.13540  1.0000
  H   H873      1.0  0.28926  0.23724  0.05957  1.0000
  C   C873      1.0  0.22074  0.47068  0.10744  1.0000
  H   H874      1.0  0.35775  0.30672  0.14654  1.0000
  C   C874      1.0  0.32025  0.47630  0.99056  1.0000
  N   N75       1.0  0.34268  0.47159  0.00102  1.0000
  H   H875      1.0  0.06107  0.40620  0.16023  1.0000
  C   C875      1.0  0.02882  0.39608  0.11604  1.0000
  C   C876      1.0  0.35551  0.29488  0.14935  1.0000
  H   H876      1.0  0.23389  0.42313  0.06979  1.0000
  N   N76       1.0  0.23946  0.39903  0.06924  1.0000
  C   C877      1.0  0.24247  0.38841  0.06039  1.0000
  C   C878      1.0  0.24265  0.39450  0.08360  1.0000
  C   C879      1.0  0.24955  0.37294  0.06554  1.0000
  C   C880      1.0  0.24980  0.37912  0.08910  1.0000
  C   C881      1.0  0.25339  0.36833  0.07991  1.0000
  C   C882      1.0  0.23244  0.41526  0.06334  1.0000
  C   C883      1.0  0.29200  0.23705  0.03584  1.0000
  H   H877      1.0  0.05321  0.38810  0.11582  1.0000
  C   C884      1.0  0.41916  0.47285  0.11475  1.0000
  C   C885      1.0  0.15765  0.44774  0.11575  1.0000
  S   S298      1.0  0.34678  0.33268  0.16342  1.0000
  H   H878      1.0  0.42536  0.46093  0.11782  1.0000
  C   C886      1.0  0.39035  0.29663  0.15460  1.0000
  H   H879      1.0  0.43681  0.47319  0.08202  1.0000
  C   C887      1.0  0.04224  0.39496  0.12085  1.0000
  H   H880      1.0  0.38457  0.24693  0.14128  1.0000
  H   H881      1.0  0.38972  0.22837  0.09840  1.0000
  H   H882      1.0  0.01015  0.41555  0.01105  1.0000
  Fe  Fe152     1.0  0.36748  0.36602  0.15684  1.0000
  C   C888      1.0  0.01404  0.41311  0.99928  1.0000
  H   H883      1.0  0.34391  0.23120  0.02972  1.0000
  H   H884      1.0  0.01758  0.40029  0.00082  1.0000
  H   H885      1.0  0.12930  0.46026  0.07677  1.0000
  C   C889      1.0  0.99105  0.43289  0.99349  1.0000
  H   H886      1.0  0.09697  0.24692  0.07910  1.0000
  S   S299      1.0  0.99104  0.44907  0.05910  1.0000
  H   H887      1.0  0.02361  0.41427  0.16081  1.0000
  C   C890      1.0  0.31775  0.46166  0.99864  1.0000
  C   C891      1.0  0.43949  0.47678  0.09130  1.0000
  H   H888      1.0  0.00915  0.40194  0.97769  1.0000
  C   C892      1.0  0.10061  0.36776  0.14462  1.0000
  H   H889      1.0  0.01889  0.31608  0.98574  1.0000
  C   C893      1.0  0.29948  0.22894  0.02417  1.0000
  H   H890      1.0  0.44702  0.46680  0.09762  1.0000
  H   H891      1.0  0.30768  0.45799  0.99821  1.0000
  C   C894      1.0  0.44915  0.47570  0.12997  1.0000
  H   H892      1.0  0.29798  0.23415  0.01249  1.0000
  H   H893      1.0  0.15743  0.47210  0.10761  1.0000
  H   H894      1.0  0.09983  0.38320  0.15876  1.0000
  H   H895      1.0  0.08876  0.22995  0.98234  1.0000
  H   H896      1.0  0.03104  0.46806  0.08182  1.0000
  C   C895      1.0  0.01496  0.47260  0.06727  1.0000
  C   C896      1.0  0.39458  0.39729  0.16651  1.0000
  Fe  Fe153     1.0  0.32177  0.37760  0.26856  1.0000
  S   S300      1.0  0.30131  0.36662  0.27827  1.0000
  S   S301      1.0  0.33164  0.38580  0.24352  1.0000
  Fe  Fe154     1.0  0.32886  0.37288  0.29959  1.0000
  S   S302      1.0  0.30920  0.36112  0.31234  1.0000
  S   S303      1.0  0.34711  0.37563  0.30972  1.0000
  Fe  Fe155     1.0  0.31635  0.34864  0.29295  1.0000
  S   S304      1.0  0.31868  0.32341  0.29360  1.0000
  Fe  Fe156     1.0  0.29567  0.37998  0.29670  1.0000
  S   S305      1.0  0.27075  0.39021  0.30627  1.0000
  S   S306      1.0  0.33731  0.35865  0.28169  1.0000
  S   S307      1.0  0.31481  0.39286  0.28556  1.0000
  Fe  Fe157     1.0  0.42626  0.42216  0.22387  1.0000
  H   H897      1.0  0.16099  0.27483  0.35584  1.0000
  C   C897      1.0  0.41132  0.41084  0.34156  1.0000
  H   H898      1.0  0.06032  0.34709  0.18173  1.0000
  S   S308      1.0  0.38373  0.45784  0.33984  1.0000
  H   H899      1.0  0.00886  0.30548  0.24298  1.0000
  H   H900      1.0  0.07620  0.24391  0.24972  1.0000
  S   S309      1.0  0.01941  0.36037  0.24441  1.0000
  H   H901      1.0  0.34637  0.38431  0.21210  1.0000
  H   H902      1.0  0.32539  0.33706  0.23695  1.0000
  Fe  Fe158     1.0  0.09270  0.34445  0.32941  1.0000
  S   S310      1.0  0.11561  0.35126  0.32209  1.0000
  S   S311      1.0  0.08828  0.33001  0.31568  1.0000
  Fe  Fe159     1.0  0.10210  0.37346  0.32922  1.0000
  S   S312      1.0  0.10512  0.39665  0.31389  1.0000
  S   S313      1.0  0.07887  0.36733  0.33482  1.0000
  C   C898      1.0  0.20597  0.44323  0.20402  1.0000
  S   S314      1.0  0.29511  0.28126  0.35818  1.0000
  H   H903      1.0  0.26619  0.23432  0.33256  1.0000
  H   H904      1.0  0.31116  0.38784  0.36347  1.0000
  C   C899      1.0  0.03115  0.25480  0.25108  1.0000
  S   S315      1.0  0.08310  0.41168  0.17417  1.0000
  S   S316      1.0  0.05647  0.34495  0.23209  1.0000
  C   C900      1.0  0.36112  0.40096  0.27064  1.0000
  H   H905      1.0  0.35027  0.36437  0.19735  1.0000
  H   H906      1.0  0.34734  0.32773  0.26990  1.0000
  S   S317      1.0  0.06644  0.30040  0.23421  1.0000
  Fe  Fe160     1.0  0.35041  0.34330  0.18078  1.0000
  Fe  Fe161     1.0  0.20838  0.44003  0.26246  1.0000
  S   S318      1.0  0.19602  0.42740  0.25394  1.0000
  S   S319      1.0  0.23445  0.43586  0.25653  1.0000
  Fe  Fe162     1.0  0.18013  0.42632  0.27735  1.0000
  S   S320      1.0  0.17454  0.40381  0.29220  1.0000
  H   H907      1.0  0.32197  0.35672  0.25190  1.0000
  C   C901      1.0  0.06403  0.28288  0.24734  1.0000
  C   C902      1.0  0.07235  0.26882  0.24322  1.0000
  C   C903      1.0  0.06995  0.25468  0.25311  1.0000
  C   C904      1.0  0.05940  0.25455  0.26730  1.0000
  C   C905      1.0  0.05134  0.26861  0.27159  1.0000
  C   C906      1.0  0.05355  0.28275  0.26157  1.0000
  H   H908      1.0  0.08048  0.26888  0.23222  1.0000
  S   S321      1.0  0.16350  0.44852  0.27015  1.0000
  H   H909      1.0  0.04321  0.26854  0.28259  1.0000
  H   H910      1.0  0.22983  0.25643  0.35747  1.0000
  C   C907      1.0  0.06619  0.39284  0.19685  1.0000
  C   C908      1.0  0.04720  0.38153  0.19276  1.0000
  H   H911      1.0  0.08384  0.36957  0.18179  1.0000
  N   N77       1.0  0.02269  0.28252  0.24709  1.0000
  C   C909      1.0  0.44799  0.47264  0.26076  1.0000
  H   H912      1.0  0.15412  0.39839  0.33454  1.0000
  C   C910      1.0  0.12456  0.39798  0.30649  1.0000
  C   C911      1.0  0.12807  0.41172  0.29657  1.0000
  C   C912      1.0  0.14349  0.41346  0.29163  1.0000
  C   C913      1.0  0.15541  0.40143  0.29655  1.0000
  C   C914      1.0  0.15191  0.38751  0.30606  1.0000
  C   C915      1.0  0.13652  0.38579  0.31105  1.0000
  H   H913      1.0  0.11884  0.42117  0.29300  1.0000
  H   H914      1.0  0.14609  0.42418  0.28423  1.0000
  H   H915      1.0  0.16110  0.37818  0.30990  1.0000
  H   H916      1.0  0.13391  0.37520  0.31877  1.0000
  C   C916      1.0  0.07574  0.33939  0.30302  1.0000
  C   C917      1.0  0.07363  0.33124  0.29330  1.0000
  C   C918      1.0  0.06419  0.33868  0.28262  1.0000
  C   C919      1.0  0.05684  0.35431  0.28167  1.0000
  C   C920      1.0  0.05881  0.36242  0.29148  1.0000
  C   C921      1.0  0.06821  0.35497  0.30216  1.0000
  H   H917      1.0  0.07945  0.31916  0.29392  1.0000
  H   H918      1.0  0.06273  0.33235  0.27507  1.0000
  H   H919      1.0  0.06978  0.36135  0.30959  1.0000
  C   C922      1.0  0.36173  0.33993  0.25031  1.0000
  S   S322      1.0  0.99319  0.32932  0.26488  1.0000
  C   C923      1.0  0.44530  0.36240  0.20608  1.0000
  C   C924      1.0  0.40329  0.45233  0.34091  1.0000
  C   C925      1.0  0.40811  0.44180  0.35371  1.0000
  C   C926      1.0  0.42397  0.43672  0.35376  1.0000
  C   C927      1.0  0.45066  0.42297  0.27340  1.0000
  C   C928      1.0  0.11051  0.29807  0.34538  1.0000
  H   H920      1.0  0.19073  0.45465  0.33407  1.0000
  C   C929      1.0  0.34087  0.39092  0.31933  1.0000
  C   C930      1.0  0.32546  0.39923  0.32139  1.0000
  C   C931      1.0  0.32039  0.41053  0.33030  1.0000
  C   C932      1.0  0.33072  0.41356  0.33709  1.0000
  C   C933      1.0  0.34621  0.40551  0.33465  1.0000
  C   C934      1.0  0.35128  0.39421  0.32578  1.0000
  H   H921      1.0  0.31734  0.39671  0.31645  1.0000
  H   H922      1.0  0.30838  0.41673  0.33215  1.0000
  H   H923      1.0  0.35422  0.40767  0.33986  1.0000
  H   H924      1.0  0.36320  0.38779  0.32422  1.0000
  C   C935      1.0  0.31268  0.31161  0.31170  1.0000
  C   C936      1.0  0.30563  0.31802  0.32466  1.0000
  C   C937      1.0  0.30031  0.30857  0.33885  1.0000
  C   C938      1.0  0.30213  0.29264  0.34021  1.0000
  C   C939      1.0  0.30925  0.28617  0.32728  1.0000
  C   C940      1.0  0.31446  0.29568  0.31303  1.0000
  H   H925      1.0  0.30408  0.33026  0.32375  1.0000
  H   H926      1.0  0.29477  0.31360  0.34883  1.0000
  H   H927      1.0  0.31066  0.27389  0.32826  1.0000
  H   H928      1.0  0.31985  0.29066  0.30302  1.0000
  C   C941      1.0  0.26081  0.40280  0.29234  1.0000
  C   C942      1.0  0.26885  0.40892  0.27770  1.0000
  C   C943      1.0  0.26065  0.41898  0.26674  1.0000
  C   C944      1.0  0.24440  0.42276  0.27028  1.0000
  C   C945      1.0  0.23638  0.41638  0.28484  1.0000
  C   C946      1.0  0.24456  0.40656  0.29590  1.0000
  H   H929      1.0  0.28140  0.40606  0.27486  1.0000
  H   H930      1.0  0.26693  0.42389  0.25549  1.0000
  H   H931      1.0  0.22388  0.41906  0.28765  1.0000
  H   H932      1.0  0.23829  0.40179  0.30721  1.0000
  C   C947      1.0  0.33378  0.37192  0.23298  1.0000
  C   C948      1.0  0.34176  0.37403  0.21756  1.0000
  C   C949      1.0  0.34388  0.36279  0.20915  1.0000
  C   C950      1.0  0.33794  0.34947  0.21611  1.0000
  C   C951      1.0  0.32992  0.34739  0.23151  1.0000
  C   C952      1.0  0.32793  0.35856  0.23996  1.0000
  C   C953      1.0  0.22775  0.45733  0.28968  1.0000
  H   H933      1.0  0.99268  0.33762  0.23230  1.0000
  N   N78       1.0  0.99910  0.35130  0.29170  1.0000
  S   S323      1.0  0.13943  0.32758  0.35287  1.0000
  C   C954      1.0  0.06839  0.40109  0.18149  1.0000
  H   H934      1.0  0.11801  0.44745  0.31784  1.0000
  C   C955      1.0  0.23603  0.44866  0.30099  1.0000
  C   C956      1.0  0.47505  0.25356  0.17508  1.0000
  H   H935      1.0  0.18770  0.43833  0.19730  1.0000
  S   S324      1.0  0.34243  0.36777  0.16858  1.0000
  C   C957      1.0  0.04914  0.39002  0.17752  1.0000
  C   C958      1.0  0.15862  0.28142  0.34441  1.0000
  H   H936      1.0  0.45726  0.34630  0.22295  1.0000
  C   C959      1.0  0.17749  0.47427  0.21148  1.0000
  C   C960      1.0  0.13019  0.40980  0.33472  1.0000
  C   C961      1.0  0.45856  0.35414  0.21174  1.0000
  C   C962      1.0  0.45123  0.41414  0.24665  1.0000
  H   H937      1.0  0.37475  0.32291  0.20590  1.0000
  H   H938      1.0  0.48493  0.44159  0.24420  1.0000
  H   H939      1.0  0.35222  0.40017  0.28121  1.0000
  H   H940      1.0  0.45014  0.40448  0.33469  1.0000
  Fe  Fe163     1.0  0.01565  0.33612  0.25123  1.0000
  H   H941      1.0  0.99809  0.32784  0.29405  1.0000
  H   H942      1.0  0.45158  0.41099  0.23614  1.0000
  N   N79       1.0  0.42621  0.41151  0.33380  1.0000
  H   H943      1.0  0.42601  0.43122  0.27493  1.0000
  Fe  Fe164     1.0  0.42501  0.43685  0.19052  1.0000
  C   C963      1.0  0.36955  0.34052  0.23494  1.0000
  H   H944      1.0  0.46775  0.38981  0.22280  1.0000
  S   S325      1.0  0.45479  0.43355  0.34003  1.0000
  C   C964      1.0  0.13713  0.29961  0.33386  1.0000
  Fe  Fe165     1.0  0.46957  0.43856  0.31622  1.0000
  H   H945      1.0  0.43855  0.45744  0.31868  1.0000
  S   S326      1.0  0.47713  0.40147  0.18987  1.0000
  Fe  Fe166     1.0  0.03490  0.35353  0.22281  1.0000
  S   S327      1.0  0.43661  0.39839  0.21921  1.0000
  Fe  Fe167     1.0  0.11706  0.34242  0.34686  1.0000
  Fe  Fe168     1.0  0.18062  0.45081  0.24742  1.0000
  C   C965      1.0  0.12137  0.30502  0.33375  1.0000
  S   S328      1.0  0.39171  0.24885  0.18671  1.0000
  S   S329      1.0  0.32317  0.24014  0.35332  1.0000
  C   C966      1.0  0.39151  0.26718  0.17432  1.0000
  C   C967      1.0  0.35376  0.32815  0.25805  1.0000
  S   S330      1.0  0.36722  0.42108  0.35456  1.0000
  C   C968      1.0  0.44742  0.25769  0.17604  1.0000
  C   C969      1.0  0.01689  0.32915  0.30272  1.0000
  H   H946      1.0  0.38718  0.36756  0.20515  1.0000
  H   H947      1.0  0.48202  0.37050  0.24146  1.0000
  H   H948      1.0  0.45042  0.42644  0.28368  1.0000
  H   H949      1.0  0.04270  0.38878  0.16997  1.0000
  H   H950      1.0  0.18213  0.45439  0.31107  1.0000
  H   H951      1.0  0.37539  0.34992  0.22890  1.0000
  H   H952      1.0  0.04939  0.24614  0.23310  1.0000
  N   N80       1.0  0.08777  0.37844  0.26507  1.0000
  C   C970      1.0  0.08900  0.39150  0.26854  1.0000
  C   C971      1.0  0.09512  0.36409  0.27189  1.0000
  C   C972      1.0  0.09784  0.39040  0.27903  1.0000
  C   C973      1.0  0.10396  0.36257  0.28251  1.0000
  C   C974      1.0  0.10541  0.37584  0.28596  1.0000
  C   C975      1.0  0.07846  0.38003  0.25398  1.0000
  H   H953      1.0  0.08308  0.40286  0.26324  1.0000
  H   H954      1.0  0.09386  0.35368  0.26948  1.0000
  H   H955      1.0  0.09876  0.40072  0.28192  1.0000
  H   H956      1.0  0.10940  0.35115  0.28824  1.0000
  H   H957      1.0  0.11229  0.37491  0.29408  1.0000
  H   H958      1.0  0.06632  0.38614  0.25803  1.0000
  H   H959      1.0  0.08342  0.38666  0.24252  1.0000
  H   H960      1.0  0.07791  0.36859  0.25259  1.0000
  C   C976      1.0  0.18539  0.46540  0.32728  1.0000
  Fe  Fe169     1.0  0.04948  0.32204  0.23983  1.0000
  H   H961      1.0  0.34667  0.39912  0.25697  1.0000
  C   C977      1.0  0.12595  0.43676  0.32168  1.0000
  C   C978      1.0  0.42049  0.39521  0.36424  1.0000
  Fe  Fe170     1.0  0.48163  0.42857  0.28571  1.0000
  Fe  Fe171     1.0  0.45156  0.41035  0.19834  1.0000
  H   H962      1.0  0.37427  0.30527  0.17380  1.0000
  C   C979      1.0  0.47722  0.44725  0.23593  1.0000
  S   S331      1.0  0.03568  0.32628  0.26301  1.0000
  H   H963      1.0  0.47281  0.46558  0.25514  1.0000
  S   S332      1.0  0.10569  0.36531  0.35346  1.0000
  S   S333      1.0  0.44264  0.43379  0.20422  1.0000
  H   H964      1.0  0.47581  0.43788  0.23135  1.0000
  H   H965      1.0  0.04721  0.29351  0.26490  1.0000
  C   C980      1.0  0.22439  0.46881  0.31538  1.0000
  C   C981      1.0  0.43354  0.25264  0.18035  1.0000
  S   S334      1.0  0.17181  0.45830  0.22546  1.0000
  S   S335      1.0  0.43518  0.41430  0.18290  1.0000
  H   H966      1.0  0.03462  0.29559  0.22663  1.0000
  N   N81       1.0  0.36947  0.32965  0.22748  1.0000
  H   H967      1.0  0.05312  0.37453  0.29079  1.0000
  S   S336      1.0  0.03492  0.36840  0.19897  1.0000
  H   H968      1.0  0.41953  0.43029  0.31566  1.0000
  C   C982      1.0  0.38594  0.38637  0.16811  1.0000
  N   N82       1.0  0.19875  0.45480  0.17964  1.0000
  H   H969      1.0  0.09823  0.30230  0.34542  1.0000
  C   C983      1.0  0.02172  0.26809  0.25605  1.0000
  C   C984      1.0  0.43445  0.46233  0.24845  1.0000
  H   H970      1.0  0.03063  0.24342  0.25844  1.0000
  S   S337      1.0  0.09526  0.33368  0.35363  1.0000
  C   C985      1.0  0.47983  0.38472  0.21902  1.0000
  C   C986      1.0  0.15159  0.42254  0.32304  1.0000
  H   H971      1.0  0.05146  0.27246  0.21729  1.0000
  H   H972      1.0  0.47575  0.40565  0.24518  1.0000
  C   C987      1.0  0.40826  0.40271  0.35688  1.0000
  H   H973      1.0  0.00344  0.37343  0.28975  1.0000
  N   N83       1.0  0.08205  0.35299  0.17060  1.0000
  H   H974      1.0  0.39065  0.32697  0.21080  1.0000
  Fe  Fe172     1.0  0.41933  0.40441  0.20443  1.0000
  C   C988      1.0  0.44687  0.37256  0.19170  1.0000
  C   C989      1.0  0.36174  0.31801  0.23498  1.0000
  S   S338      1.0  0.46183  0.44722  0.29376  1.0000
  C   C990      1.0  0.38168  0.29513  0.16976  1.0000
  H   H975      1.0  0.42374  0.46104  0.24668  1.0000
  C   C991      1.0  0.38929  0.37584  0.19438  1.0000
  C   C992      1.0  0.23425  0.45444  0.31396  1.0000
  H   H976      1.0  0.41059  0.46650  0.31861  1.0000
  S   S339      1.0  0.34145  0.33484  0.20604  1.0000
  S   S340      1.0  0.40584  0.38619  0.20819  1.0000
  H   H977      1.0  0.31334  0.47579  0.35141  1.0000
  C   C993      1.0  0.43686  0.42555  0.26851  1.0000
  S   S341      1.0  0.32377  0.42646  0.34960  1.0000
  S   S342      1.0  0.40769  0.42730  0.21082  1.0000
  N   N84       1.0  0.26459  0.36232  0.28090  1.0000
  C   C994      1.0  0.27460  0.35001  0.27530  1.0000
  C   C995      1.0  0.26054  0.36176  0.29640  1.0000
  C   C996      1.0  0.28069  0.33664  0.28534  1.0000
  C   C997      1.0  0.26644  0.34860  0.30674  1.0000
  C   C998      1.0  0.27651  0.33595  0.30115  1.0000
  C   C999      1.0  0.25913  0.37655  0.27011  1.0000
  H   H978      1.0  0.27828  0.35065  0.26299  1.0000
  H   H979      1.0  0.25294  0.37164  0.30085  1.0000
  H   H980      1.0  0.28899  0.32705  0.28091  1.0000
  H   H981      1.0  0.26346  0.34836  0.31898  1.0000
  H   H982      1.0  0.28130  0.32572  0.30901  1.0000
  H   H983      1.0  0.25619  0.37383  0.26046  1.0000
  H   H984      1.0  0.24854  0.38399  0.27582  1.0000
  H   H985      1.0  0.26830  0.38337  0.26538  1.0000
  N   N85       1.0  0.14195  0.28751  0.34519  1.0000
  H   H986      1.0  0.14616  0.45747  0.31818  1.0000
  N   N86       1.0  0.14155  0.43606  0.31828  1.0000
  C   C1000     1.0  0.43410  0.47137  0.25845  1.0000
  H   H987      1.0  0.01385  0.26678  0.26725  1.0000
  H   H988      1.0  0.22905  0.45273  0.27970  1.0000
  C   C1001     1.0  0.35374  0.31711  0.25036  1.0000
  Fe  Fe173     1.0  0.29992  0.25545  0.36052  1.0000
  H   H989      1.0  0.15986  0.44718  0.30432  1.0000
  H   H990      1.0  0.44886  0.44751  0.23330  1.0000
  Fe  Fe174     1.0  0.40246  0.22826  0.17573  1.0000
  C   C1002     1.0  0.01956  0.35498  0.30075  1.0000
  H   H991      1.0  0.46292  0.38273  0.17229  1.0000
  H   H992      1.0  0.44527  0.39015  0.36181  1.0000
  H   H993      1.0  0.16344  0.27355  0.33623  1.0000
  H   H994      1.0  0.05392  0.37684  0.21435  1.0000
  H   H995      1.0  0.31620  0.35569  0.35659  1.0000
  C   C1003     1.0  0.05960  0.39986  0.17195  1.0000
  H   H996      1.0  0.37549  0.27926  0.19131  1.0000
  S   S343      1.0  0.41672  0.45989  0.17551  1.0000
  C   C1004     1.0  0.43501  0.44194  0.34091  1.0000
  H   H997      1.0  0.00251  0.29387  0.26140  1.0000
  C   C1005     1.0  0.42921  0.42008  0.31774  1.0000
  H   H998      1.0  0.13508  0.27125  0.36584  1.0000
  C   C1006     1.0  0.38233  0.28042  0.17963  1.0000
  C   C1007     1.0  0.43720  0.42140  0.25496  1.0000
  H   H999      1.0  0.10775  0.42399  0.33201  1.0000
  C   C1008     1.0  0.37572  0.40260  0.27068  1.0000
  C   C1009     1.0  0.46159  0.37444  0.18324  1.0000
  C   C1010     1.0  0.46472  0.41592  0.26492  1.0000
  S   S344      1.0  0.48227  0.41360  0.27003  1.0000
  N   N87       1.0  0.46229  0.45552  0.24367  1.0000
  H   H1000     1.0  0.28661  0.23096  0.32360  1.0000
  S   S345      1.0  0.05562  0.23705  0.27957  1.0000
  C   C1011     1.0  0.43566  0.39574  0.35615  1.0000
  H   H1001     1.0  0.43984  0.42470  0.31494  1.0000
  H   H1002     1.0  0.31263  0.37447  0.34366  1.0000
  H   H1003     1.0  0.37818  0.40320  0.28126  1.0000
  S   S346      1.0  0.42040  0.42655  0.24771  1.0000
  S   S347      1.0  0.28684  0.24313  0.35240  1.0000
  H   H1004     1.0  0.40729  0.40590  0.17746  1.0000
  H   H1005     1.0  0.36734  0.38773  0.22925  1.0000
  H   H1006     1.0  0.19338  0.47724  0.22304  1.0000
  H   H1007     1.0  0.18287  0.44690  0.17210  1.0000
  S   S348      1.0  0.19368  0.43731  0.28639  1.0000
  C   C1012     1.0  0.19679  0.44478  0.19370  1.0000
  H   H1008     1.0  0.39965  0.43743  0.36347  1.0000
  C   C1013     1.0  0.32172  0.36489  0.34825  1.0000
  C   C1014     1.0  0.37798  0.33048  0.21142  1.0000
  S   S349      1.0  0.19433  0.46359  0.25398  1.0000
  Fe  Fe175     1.0  0.04066  0.35005  0.25426  1.0000
  Fe  Fe176     1.0  0.08359  0.35720  0.35852  1.0000
  H   H1009     1.0  0.01980  0.30108  0.25769  1.0000
  N   N88       1.0  0.47297  0.35596  0.20330  1.0000
  S   S350      1.0  0.02912  0.33015  0.22869  1.0000
  H   H1010     1.0  0.37639  0.36745  0.18349  1.0000
  C   C1015     1.0  0.47460  0.36593  0.18920  1.0000
  H   H1011     1.0  0.07288  0.39381  0.20432  1.0000
  H   H1012     1.0  0.14110  0.45693  0.30086  1.0000
  C   C1016     1.0  0.13136  0.28067  0.35669  1.0000
  H   H1013     1.0  0.37509  0.34248  0.20455  1.0000
  H   H1014     1.0  0.43665  0.37911  0.18724  1.0000
  H   H1015     1.0  0.43066  0.41238  0.30986  1.0000
  C   C1017     1.0  0.40064  0.39744  0.17880  1.0000
  H   H1016     1.0  0.36126  0.30967  0.22893  1.0000
  C   C1018     1.0  0.05557  0.38313  0.20250  1.0000
  H   H1017     1.0  0.48291  0.45547  0.22627  1.0000
  H   H1018     1.0  0.40168  0.41701  0.33606  1.0000
  S   S351      1.0  0.04523  0.36413  0.26826  1.0000
  C   C1019     1.0  0.02469  0.33896  0.30511  1.0000
  H   H1019     1.0  0.16121  0.30111  0.36500  1.0000
  C   C1020     1.0  0.41431  0.45815  0.32841  1.0000
  N   N89       1.0  0.33052  0.37054  0.35570  1.0000
  N   N90       1.0  0.46067  0.24793  0.17989  1.0000
  S   S352      1.0  0.37572  0.34226  0.17053  1.0000
  H   H1020     1.0  0.32937  0.36010  0.33823  1.0000
  H   H1021     1.0  0.37382  0.40531  0.21893  1.0000
  H   H1022     1.0  0.24046  0.44776  0.32292  1.0000
  H   H1023     1.0  0.47832  0.44316  0.35179  1.0000
  H   H1024     1.0  0.35163  0.35449  0.34920  1.0000
  H   H1025     1.0  0.43384  0.36112  0.21282  1.0000
  C   C1021     1.0  0.18060  0.46525  0.31421  1.0000
  C   C1022     1.0  0.46493  0.41120  0.25174  1.0000
  H   H1026     1.0  0.12581  0.39941  0.34060  1.0000
  N   N91       1.0  0.36926  0.40122  0.24355  1.0000
  C   C1023     1.0  0.38372  0.40247  0.24357  1.0000
  C   C1024     1.0  0.35807  0.40031  0.25689  1.0000
  C   C1025     1.0  0.38711  0.40340  0.25706  1.0000
  C   C1026     1.0  0.39808  0.38663  0.19272  1.0000
  C   C1027     1.0  0.43015  0.45294  0.32840  1.0000
  C   C1028     1.0  0.36594  0.40008  0.22936  1.0000
  H   H1027     1.0  0.39271  0.40281  0.23311  1.0000
  C   C1029     1.0  0.38322  0.37572  0.18212  1.0000
  H   H1028     1.0  0.39851  0.40474  0.25692  1.0000
  H   H1029     1.0  0.11757  0.31466  0.32479  1.0000
  Fe  Fe177     1.0  0.17840  0.45963  0.27722  1.0000
  H   H1030     1.0  0.35387  0.40627  0.22847  1.0000
  N   N92       1.0  0.21808  0.47139  0.29118  1.0000
  H   H1031     1.0  0.22687  0.47008  0.18275  1.0000
  C   C1030     1.0  0.21699  0.45223  0.20002  1.0000
  H   H1032     1.0  0.16483  0.29105  0.34068  1.0000
  H   H1033     1.0  0.02092  0.31667  0.30584  1.0000
  H   H1034     1.0  0.34726  0.30814  0.25619  1.0000
  C   C1031     1.0  0.43834  0.40387  0.34080  1.0000
  C   C1032     1.0  0.14742  0.45007  0.31007  1.0000
  C   C1033     1.0  0.12005  0.42363  0.32985  1.0000
  C   C1034     1.0  0.01303  0.29637  0.25258  1.0000
  H   H1035     1.0  0.22376  0.45153  0.20818  1.0000
  C   C1035     1.0  0.44690  0.22750  0.19214  1.0000
  H   H1036     1.0  0.36154  0.34879  0.25604  1.0000
  H   H1037     1.0  0.16400  0.42182  0.32005  1.0000
  C   C1036     1.0  0.03327  0.28415  0.23336  1.0000
  H   H1038     1.0  0.20397  0.43568  0.21536  1.0000
  C   C1037     1.0  0.14606  0.40923  0.33134  1.0000
  H   H1039     1.0  0.39646  0.40241  0.36312  1.0000
  H   H1040     1.0  0.14547  0.30527  0.32492  1.0000
  C   C1038     1.0  0.46206  0.46459  0.25323  1.0000
  H   H1041     1.0  0.24372  0.43752  0.29972  1.0000
  C   C1039     1.0  0.20947  0.46375  0.17567  1.0000
  C   C1040     1.0  0.04171  0.25634  0.23692  1.0000
  C   C1041     1.0  0.44874  0.45459  0.24097  1.0000
  C   C1042     1.0  0.43332  0.23743  0.18842  1.0000
  C   C1043     1.0  0.34581  0.36366  0.35545  1.0000
  C   C1044     1.0  0.04285  0.27110  0.22801  1.0000
  C   C1045     1.0  0.11549  0.28593  0.35704  1.0000
  H   H1042     1.0  0.03489  0.33420  0.31005  1.0000
  C   C1046     1.0  0.46053  0.23300  0.18787  1.0000
  Fe  Fe178     1.0  0.36787  0.44407  0.35786  1.0000
  Fe  Fe179     1.0  0.47983  0.46137  0.28733  1.0000
  H   H1043     1.0  0.02577  0.36271  0.30221  1.0000
  H   H1044     1.0  0.48477  0.24482  0.17957  1.0000
  H   H1045     1.0  0.17970  0.46754  0.16939  1.0000
  C   C1047     1.0  0.00688  0.36098  0.29374  1.0000
  H   H1046     1.0  0.47340  0.26422  0.17929  1.0000
  C   C1048     1.0  0.21875  0.46259  0.18577  1.0000
  H   H1047     1.0  0.20128  0.47312  0.27888  1.0000
  C   C1049     1.0  0.00401  0.33555  0.29599  1.0000
  H   H1048     1.0  0.07705  0.33273  0.18715  1.0000
  H   H1049     1.0  0.16286  0.47422  0.19698  1.0000
  C   C1050     1.0  0.08702  0.36544  0.17123  1.0000
  H   H1050     1.0  0.42265  0.23333  0.19167  1.0000
  C   C1051     1.0  0.18878  0.45667  0.16906  1.0000
  H   H1051     1.0  0.48512  0.34688  0.22150  1.0000
  C   C1052     1.0  0.21642  0.47724  0.30375  1.0000
  H   H1052     1.0  0.22268  0.47334  0.32552  1.0000
  C   C1053     1.0  0.32321  0.38218  0.36346  1.0000
  H   H1053     1.0  0.07012  0.35017  0.19440  1.0000
  H   H1054     1.0  0.42301  0.26040  0.17739  1.0000
  H   H1055     1.0  0.44756  0.26947  0.16954  1.0000
  H   H1056     1.0  0.99028  0.36010  0.27141  1.0000
  Fe  Fe180     1.0  0.34141  0.42932  0.36059  1.0000
  S   S353      1.0  0.34207  0.45308  0.36179  1.0000
  C   C1054     1.0  0.35424  0.36858  0.36293  1.0000
  H   H1057     1.0  0.42767  0.42837  0.36357  1.0000
  H   H1058     1.0  0.36641  0.36325  0.36256  1.0000
  C   C1055     1.0  0.07195  0.34535  0.18411  1.0000
  C   C1056     1.0  0.98597  0.35788  0.28412  1.0000
  H   H1059     1.0  0.25433  0.24586  0.36667  1.0000
  H   H1060     1.0  0.42310  0.47737  0.26440  1.0000
  C   C1057     1.0  0.23088  0.24615  0.36661  1.0000
  S   S354      1.0  0.48588  0.45441  0.31051  1.0000
  H   H1061     1.0  0.10715  0.28066  0.36638  1.0000
  N   N93       1.0  0.48462  0.32408  0.45735  1.0000
  S   S355      1.0  0.37699  0.38955  0.39080  1.0000
  H   H1062     1.0  0.22756  0.25138  0.40028  1.0000
  S   S356      1.0  0.33958  0.41970  0.38583  1.0000
  H   H1063     1.0  0.11451  0.44965  0.52339  1.0000
  Fe  Fe181     1.0  0.41860  0.34655  0.48641  1.0000
  S   S357      1.0  0.39564  0.34289  0.50175  1.0000
  S   S358      1.0  0.44105  0.33138  0.49189  1.0000
  Fe  Fe182     1.0  0.40428  0.37296  0.46350  1.0000
  S   S359      1.0  0.38007  0.37194  0.47666  1.0000
  S   S360      1.0  0.40949  0.39089  0.44184  1.0000
  Fe  Fe183     1.0  0.38909  0.36884  0.49764  1.0000
  S   S361      1.0  0.37555  0.38248  0.51573  1.0000
  Fe  Fe184     1.0  0.38854  0.34617  0.47956  1.0000
  S   S362      1.0  0.37236  0.33342  0.47662  1.0000
  S   S363      1.0  0.41260  0.37230  0.48425  1.0000
  S   S364      1.0  0.41214  0.34743  0.46452  1.0000
  S   S365      1.0  0.12340  0.36243  0.54435  1.0000
  S   S366      1.0  0.15039  0.32168  0.54119  1.0000
  C   C1058     1.0  0.37191  0.46846  0.52869  1.0000
  S   S367      1.0  0.07788  0.36823  0.55060  1.0000
  H   H1064     1.0  0.39292  0.41158  0.39307  1.0000
  H   H1065     1.0  0.38308  0.43472  0.53115  1.0000
  Fe  Fe185     1.0  0.05493  0.40653  0.43957  1.0000
  S   S368      1.0  0.06439  0.40949  0.41399  1.0000
  Fe  Fe186     1.0  0.06143  0.38914  0.47106  1.0000
  S   S369      1.0  0.07995  0.37041  0.48117  1.0000
  S   S370      1.0  0.04899  0.38481  0.45558  1.0000
  S   S371      1.0  0.06934  0.40950  0.45398  1.0000
  C   C1059     1.0  0.23023  0.24640  0.55952  1.0000
  C   C1060     1.0  0.09402  0.37658  0.42190  1.0000
  C   C1061     1.0  0.31314  0.25862  0.41410  1.0000
  S   S372      1.0  0.36034  0.26962  0.44869  1.0000
  H   H1066     1.0  0.38401  0.42119  0.44880  1.0000
  C   C1062     1.0  0.13493  0.46765  0.54515  1.0000
  C   C1063     1.0  0.99009  0.41473  0.45314  1.0000
  C   C1064     1.0  0.01642  0.38726  0.43538  1.0000
  H   H1067     1.0  0.99938  0.42075  0.45041  1.0000
  S   S373      1.0  0.17203  0.24283  0.40668  1.0000
  H   H1068     1.0  0.15776  0.23279  0.43993  1.0000
  C   C1065     1.0  0.35667  0.26820  0.49734  1.0000
  H   H1069     1.0  0.34912  0.44684  0.52622  1.0000
  S   S374      1.0  0.16141  0.23875  0.48941  1.0000
  C   C1066     1.0  0.13899  0.30052  0.51431  1.0000
  N   N94       1.0  0.99617  0.40364  0.41612  1.0000
  H   H1070     1.0  0.47163  0.32111  0.49759  1.0000
  H   H1071     1.0  0.33738  0.47209  0.51110  1.0000
  C   C1067     1.0  0.47978  0.35685  0.48224  1.0000
  H   H1072     1.0  0.32550  0.26228  0.44921  1.0000
  H   H1073     1.0  0.35584  0.37977  0.55282  1.0000
  C   C1068     1.0  0.32054  0.47252  0.40339  1.0000
  H   H1074     1.0  0.33057  0.31123  0.49143  1.0000
  H   H1075     1.0  0.20543  0.31557  0.52657  1.0000
  C   C1069     1.0  0.13912  0.29608  0.55900  1.0000
  H   H1076     1.0  0.25001  0.23685  0.52522  1.0000
  C   C1070     1.0  0.46018  0.34605  0.44648  1.0000
  S   S375      1.0  0.17779  0.24683  0.51805  1.0000
  C   C1071     1.0  0.35381  0.45691  0.52453  1.0000
  H   H1077     1.0  0.99123  0.41442  0.39404  1.0000
  Fe  Fe187     1.0  0.19871  0.22885  0.52348  1.0000
  H   H1078     1.0  0.36296  0.36156  0.54683  1.0000
  C   C1072     1.0  0.14475  0.27556  0.50780  1.0000
  H   H1079     1.0  0.02947  0.40500  0.42395  1.0000
  H   H1080     1.0  0.36359  0.22926  0.42036  1.0000
  H   H1081     1.0  0.43539  0.34520  0.52159  1.0000
  C   C1073     1.0  0.30691  0.24646  0.52597  1.0000
  H   H1082     1.0  0.46893  0.30885  0.46612  1.0000
  H   H1083     1.0  0.29654  0.25105  0.53370  1.0000
  H   H1084     1.0  0.12126  0.30332  0.53480  1.0000
  C   C1074     1.0  0.12025  0.29829  0.39014  1.0000
  H   H1085     1.0  0.42453  0.24528  0.44092  1.0000
  H   H1086     1.0  0.09614  0.38823  0.41810  1.0000
  C   C1075     1.0  0.13289  0.28590  0.39246  1.0000
  H   H1087     1.0  0.41390  0.23278  0.45628  1.0000
  H   H1088     1.0  0.36482  0.43310  0.54467  1.0000
  C   C1076     1.0  0.14708  0.44119  0.55486  1.0000
  C   C1077     1.0  0.15951  0.23524  0.46180  1.0000
  H   H1089     1.0  0.30990  0.25764  0.40407  1.0000
  Fe  Fe188     1.0  0.18106  0.23701  0.38343  1.0000
  C   C1078     1.0  0.22761  0.23411  0.42133  1.0000
  N   N95       1.0  0.31479  0.24619  0.42620  1.0000
  H   H1090     1.0  0.11707  0.27670  0.54024  1.0000
  C   C1079     1.0  0.08995  0.45292  0.48192  1.0000
  C   C1080     1.0  0.21275  0.24353  0.54567  1.0000
  C   C1081     1.0  0.14757  0.29043  0.50461  1.0000
  Fe  Fe189     1.0  0.35137  0.25063  0.46702  1.0000
  H   H1091     1.0  0.46861  0.38980  0.49756  1.0000
  C   C1082     1.0  0.33361  0.23460  0.50558  1.0000
  Fe  Fe190     1.0  0.36548  0.41351  0.38001  1.0000
  H   H1092     1.0  0.38754  0.27919  0.50089  1.0000
  C   C1083     1.0  0.21823  0.23911  0.37350  1.0000
  C   C1084     1.0  0.00913  0.40873  0.41498  1.0000
  H   H1093     1.0  0.25438  0.24291  0.54801  1.0000
  C   C1085     1.0  0.01942  0.40067  0.42461  1.0000
  H   H1094     1.0  0.15643  0.29403  0.49477  1.0000
  H   H1095     1.0  0.23997  0.22923  0.41826  1.0000
  H   H1096     1.0  0.33210  0.31032  0.51075  1.0000
  H   H1097     1.0  0.44721  0.32811  0.45635  1.0000
  C   C1086     1.0  0.20597  0.28435  0.56422  1.0000
  H   H1098     1.0  0.02394  0.38117  0.44333  1.0000
  Fe  Fe191     1.0  0.38334  0.25746  0.45456  1.0000
  S   S376      1.0  0.38978  0.24298  0.43687  1.0000
  N   N96       1.0  0.13172  0.44698  0.53597  1.0000
  C   C1087     1.0  0.47432  0.34996  0.44445  1.0000
  C   C1088     1.0  0.35454  0.24865  0.40361  1.0000
  S   S377      1.0  0.03331  0.42249  0.44944  1.0000
  C   C1089     1.0  0.06415  0.39523  0.40487  1.0000
  C   C1090     1.0  0.07126  0.39635  0.38923  1.0000
  C   C1091     1.0  0.07179  0.38482  0.38176  1.0000
  C   C1092     1.0  0.06499  0.37227  0.38988  1.0000
  C   C1093     1.0  0.05773  0.37122  0.40547  1.0000
  C   C1094     1.0  0.05747  0.38259  0.41301  1.0000
  H   H1099     1.0  0.07644  0.40612  0.38290  1.0000
  C   C1095     1.0  0.47017  0.34775  0.52545  1.0000
  H   H1100     1.0  0.05252  0.36147  0.41178  1.0000
  H   H1101     1.0  0.05220  0.38151  0.42509  1.0000
  H   H1102     1.0  0.35492  0.39421  0.42438  1.0000
  H   H1103     1.0  0.33407  0.47652  0.38016  1.0000
  C   C1096     1.0  0.15048  0.30180  0.54688  1.0000
  C   C1097     1.0  0.16201  0.29154  0.53883  1.0000
  C   C1098     1.0  0.16187  0.27573  0.54250  1.0000
  C   C1099     1.0  0.15003  0.27013  0.55403  1.0000
  C   C1100     1.0  0.12892  0.46246  0.53567  1.0000
  C   C1101     1.0  0.33785  0.46728  0.56102  1.0000
  H   H1104     1.0  0.17094  0.29584  0.52954  1.0000
  H   H1105     1.0  0.17085  0.26795  0.53628  1.0000
  C   C1102     1.0  0.31633  0.27261  0.41413  1.0000
  C   C1103     1.0  0.47071  0.32023  0.45962  1.0000
  C   C1104     1.0  0.07836  0.36756  0.53168  1.0000
  C   C1105     1.0  0.06508  0.37466  0.52568  1.0000
  C   C1106     1.0  0.06537  0.37521  0.51031  1.0000
  C   C1107     1.0  0.07893  0.36860  0.50086  1.0000
  C   C1108     1.0  0.09208  0.36101  0.50701  1.0000
  C   C1109     1.0  0.09183  0.36055  0.52238  1.0000
  H   H1106     1.0  0.05457  0.37990  0.53289  1.0000
  H   H1107     1.0  0.05507  0.38072  0.50582  1.0000
  H   H1108     1.0  0.10258  0.35580  0.49978  1.0000
  H   H1109     1.0  0.10209  0.35496  0.52698  1.0000
  H   H1110     1.0  0.13413  0.44195  0.51430  1.0000
  H   H1111     1.0  0.35332  0.25827  0.49616  1.0000
  Fe  Fe192     1.0  0.13217  0.33749  0.55528  1.0000
  C   C1110     1.0  0.39333  0.28717  0.46201  1.0000
  C   C1111     1.0  0.37816  0.29504  0.46100  1.0000
  C   C1112     1.0  0.37210  0.30958  0.46481  1.0000
  C   C1113     1.0  0.38113  0.31632  0.46982  1.0000
  C   C1114     1.0  0.39644  0.30867  0.47056  1.0000
  C   C1115     1.0  0.40254  0.29412  0.46661  1.0000
  H   H1112     1.0  0.37100  0.28991  0.45742  1.0000
  H   H1113     1.0  0.36028  0.31547  0.46418  1.0000
  H   H1114     1.0  0.40344  0.31378  0.47452  1.0000
  H   H1115     1.0  0.41430  0.28810  0.46741  1.0000
  C   C1116     1.0  0.45615  0.34112  0.48732  1.0000
  C   C1117     1.0  0.45433  0.35671  0.47967  1.0000
  H   H1116     1.0  0.44394  0.36270  0.47555  1.0000
  H   H1117     1.0  0.46446  0.37679  0.47167  1.0000
  C   C1118     1.0  0.22530  0.23961  0.53378  1.0000
  H   H1118     1.0  0.35336  0.38462  0.37644  1.0000
  C   C1119     1.0  0.40439  0.38751  0.54610  1.0000
  C   C1120     1.0  0.39043  0.39814  0.54443  1.0000
  C   C1121     1.0  0.38173  0.39668  0.53488  1.0000
  C   C1122     1.0  0.38710  0.38474  0.52677  1.0000
  C   C1123     1.0  0.40123  0.37429  0.52818  1.0000
  C   C1124     1.0  0.40979  0.37563  0.53796  1.0000
  H   H1119     1.0  0.38625  0.40734  0.55068  1.0000
  H   H1120     1.0  0.37077  0.40473  0.53385  1.0000
  H   H1121     1.0  0.40528  0.36490  0.52214  1.0000
  H   H1122     1.0  0.42029  0.36714  0.53973  1.0000
  C   C1125     1.0  0.38719  0.38941  0.40427  1.0000
  C   C1126     1.0  0.38857  0.37678  0.41678  1.0000
  C   C1127     1.0  0.39567  0.37703  0.42825  1.0000
  C   C1128     1.0  0.40185  0.38970  0.42696  1.0000
  C   C1129     1.0  0.40104  0.40204  0.41412  1.0000
  C   C1130     1.0  0.39359  0.40197  0.40286  1.0000
  H   H1123     1.0  0.38372  0.36700  0.41786  1.0000
  H   H1124     1.0  0.39623  0.36746  0.43814  1.0000
  H   H1125     1.0  0.40582  0.41185  0.41310  1.0000
  H   H1126     1.0  0.13036  0.30385  0.56547  1.0000
  C   C1131     1.0  0.12776  0.29564  0.52703  1.0000
  C   C1132     1.0  0.44480  0.36577  0.51350  1.0000
  C   C1133     1.0  0.28993  0.47585  0.38702  1.0000
  H   H1127     1.0  0.13169  0.24917  0.53572  1.0000
  H   H1128     1.0  0.43033  0.23742  0.45906  1.0000
  C   C1134     1.0  0.33129  0.38741  0.37104  1.0000
  H   H1129     1.0  0.15675  0.47466  0.42779  1.0000
  S   S378      1.0  0.41452  0.38820  0.55925  1.0000
  H   H1130     1.0  0.38038  0.25631  0.49772  1.0000
  C   C1135     1.0  0.19190  0.30401  0.54738  1.0000
  C   C1136     1.0  0.08889  0.37056  0.43752  1.0000
  C   C1137     1.0  0.37330  0.44065  0.53914  1.0000
  N   N97       1.0  0.36600  0.45576  0.53081  1.0000
  C   C1138     1.0  0.48196  0.34104  0.48912  1.0000
  H   H1131     1.0  0.14123  0.31199  0.51221  1.0000
  C   C1139     1.0  0.31649  0.23226  0.53108  1.0000
  H   H1132     1.0  0.12199  0.47092  0.52805  1.0000
  H   H1133     1.0  0.33488  0.24648  0.37838  1.0000
  H   H1134     1.0  0.18395  0.47243  0.38202  1.0000
  C   C1140     1.0  0.32198  0.26137  0.43930  1.0000
  C   C1141     1.0  0.36464  0.29375  0.50069  1.0000
  C   C1142     1.0  0.47010  0.33322  0.49178  1.0000
  H   H1135     1.0  0.08734  0.37732  0.44598  1.0000
  H   H1136     1.0  0.31573  0.28218  0.40420  1.0000
  C   C1143     1.0  0.45835  0.33109  0.45411  1.0000
  C   C1144     1.0  0.34712  0.47113  0.51598  1.0000
  H   H1137     1.0  0.48030  0.34077  0.52981  1.0000
  N   N98       1.0  0.35008  0.29498  0.49883  1.0000
  C   C1145     1.0  0.14976  0.30031  0.37198  1.0000
  Fe  Fe193     1.0  0.16551  0.23623  0.54144  1.0000
  C   C1146     1.0  0.33874  0.30978  0.49882  1.0000
  C   C1147     1.0  0.09031  0.43916  0.47797  1.0000
  H   H1138     1.0  0.47952  0.36820  0.51648  1.0000
  C   C1148     1.0  0.13884  0.28029  0.56250  1.0000
  S   S379      1.0  0.04681  0.44601  0.47146  1.0000
  H   H1139     1.0  0.10067  0.42999  0.47785  1.0000
  Fe  Fe194     1.0  0.14869  0.24809  0.40121  1.0000
  C   C1149     1.0  0.00324  0.38209  0.43639  1.0000
  H   H1140     1.0  0.36793  0.30376  0.50182  1.0000
  H   H1141     1.0  0.10881  0.29751  0.39714  1.0000
  C   C1150     1.0  0.06349  0.46271  0.47836  1.0000
  H   H1142     1.0  0.20113  0.24396  0.54500  1.0000
  H   H1143     1.0  0.18547  0.27029  0.40842  1.0000
  H   H1144     1.0  0.19834  0.26130  0.39324  1.0000
  H   H1145     1.0  0.32013  0.23768  0.44844  1.0000
  S   S380      1.0  0.37405  0.23940  0.47413  1.0000
  C   C1151     1.0  0.17170  0.47209  0.40566  1.0000
  H   H1146     1.0  0.37557  0.44582  0.43051  1.0000
  S   S381      1.0  0.40068  0.26840  0.45833  1.0000
  S   S382      1.0  0.32710  0.45231  0.40701  1.0000
  C   C1152     1.0  0.13082  0.25528  0.52372  1.0000
  C   C1153     1.0  0.24276  0.24314  0.54736  1.0000
  N   N99       1.0  0.19215  0.29294  0.56074  1.0000
  H   H1147     1.0  0.05303  0.47178  0.47874  1.0000
  S   S383      1.0  0.00555  0.39284  0.47428  1.0000
  H   H1148     1.0  0.11245  0.32084  0.37654  1.0000
  N   N100      1.0  0.13386  0.27081  0.52045  1.0000
  C   C1154     1.0  0.24480  0.24009  0.37172  1.0000
  Fe  Fe195     1.0  0.12649  0.36785  0.56535  1.0000
  C   C1155     1.0  0.12572  0.44186  0.52557  1.0000
  Fe  Fe196     1.0  0.04734  0.42365  0.46537  1.0000
  Fe  Fe197     1.0  0.02816  0.40091  0.46657  1.0000
  C   C1156     1.0  0.42567  0.23483  0.45044  1.0000
  S   S384      1.0  0.35978  0.26251  0.40971  1.0000
  S   S385      1.0  0.36827  0.43585  0.38298  1.0000
  H   H1149     1.0  0.23096  0.28004  0.55711  1.0000
  C   C1157     1.0  0.31892  0.24748  0.43879  1.0000
  N   N101      1.0  0.09242  0.35338  0.41586  1.0000
  C   C1158     1.0  0.09582  0.36776  0.41116  1.0000
  C   C1159     1.0  0.08740  0.34737  0.43118  1.0000
  C   C1160     1.0  0.20573  0.30680  0.53716  1.0000
  C   C1161     1.0  0.08555  0.35587  0.44224  1.0000
  C   C1162     1.0  0.20270  0.23393  0.43881  1.0000
  C   C1163     1.0  0.09442  0.34413  0.40456  1.0000
  C   C1164     1.0  0.32089  0.27391  0.42678  1.0000
  H   H1150     1.0  0.08472  0.33598  0.43491  1.0000
  H   H1151     1.0  0.11907  0.25614  0.52219  1.0000
  H   H1152     1.0  0.08145  0.35122  0.45441  1.0000
  H   H1153     1.0  0.18038  0.46277  0.41048  1.0000
  H   H1154     1.0  0.09630  0.35110  0.39254  1.0000
  H   H1155     1.0  0.10450  0.33416  0.40552  1.0000
  H   H1156     1.0  0.08379  0.33976  0.40641  1.0000
  C   C1165     1.0  0.37177  0.26705  0.49844  1.0000
  H   H1157     1.0  0.33429  0.28311  0.49635  1.0000
  H   H1158     1.0  0.15754  0.27756  0.38547  1.0000
  C   C1166     1.0  0.34691  0.38055  0.37075  1.0000
  H   H1159     1.0  0.34488  0.26537  0.38537  1.0000
  C   C1167     1.0  0.99009  0.40120  0.46470  1.0000
  H   H1160     1.0  0.36108  0.38521  0.44207  1.0000
  S   S386      1.0  0.32831  0.25950  0.48159  1.0000
  C   C1168     1.0  0.34687  0.25335  0.39143  1.0000
  H   H1161     1.0  0.07728  0.38576  0.36969  1.0000
  N   N102      1.0  0.07349  0.40981  0.51050  1.0000
  C   C1169     1.0  0.07681  0.40896  0.52424  1.0000
  C   C1170     1.0  0.08450  0.40322  0.49940  1.0000
  C   C1171     1.0  0.09159  0.40163  0.52704  1.0000
  C   C1172     1.0  0.09944  0.39599  0.50171  1.0000
  C   C1173     1.0  0.10298  0.39521  0.51563  1.0000
  C   C1174     1.0  0.05785  0.41744  0.50801  1.0000
  H   H1162     1.0  0.06793  0.41371  0.53324  1.0000
  H   H1163     1.0  0.08170  0.40317  0.48880  1.0000
  H   H1164     1.0  0.09404  0.40055  0.53812  1.0000
  H   H1165     1.0  0.10804  0.39063  0.49294  1.0000
  H   H1166     1.0  0.11441  0.38931  0.51772  1.0000
  H   H1167     1.0  0.05470  0.42949  0.50979  1.0000
  H   H1168     1.0  0.05699  0.41837  0.49606  1.0000
  H   H1169     1.0  0.04931  0.41078  0.51598  1.0000
  C   C1175     1.0  0.46605  0.36463  0.47729  1.0000
  S   S387      1.0  0.12985  0.26883  0.40598  1.0000
  C   C1176     1.0  0.44496  0.35026  0.52089  1.0000
  S   S388      1.0  0.14843  0.25079  0.55748  1.0000
  Fe  Fe198     1.0  0.34235  0.44280  0.38666  1.0000
  C   C1177     1.0  0.37577  0.27986  0.50028  1.0000
  C   C1178     1.0  0.37111  0.43571  0.43179  1.0000
  H   H1170     1.0  0.44924  0.39232  0.49572  1.0000
  C   C1179     1.0  0.07740  0.43728  0.47401  1.0000
  H   H1171     1.0  0.34191  0.39751  0.44246  1.0000
  H   H1172     1.0  0.28673  0.46787  0.39781  1.0000
  H   H1173     1.0  0.20413  0.27498  0.39997  1.0000
  C   C1180     1.0  0.14077  0.43636  0.54533  1.0000
  H   H1174     1.0  0.30595  0.47235  0.42610  1.0000
  H   H1175     1.0  0.13931  0.24803  0.51594  1.0000
  N   N103      1.0  0.20491  0.25261  0.41474  1.0000
  H   H1176     1.0  0.34458  0.31972  0.49405  1.0000
  H   H1177     1.0  0.45050  0.35472  0.44260  1.0000
  H   H1178     1.0  0.47573  0.36169  0.43897  1.0000
  C   C1181     1.0  0.16556  0.22822  0.47500  1.0000
  Fe  Fe199     1.0  0.36576  0.25339  0.43296  1.0000
  H   H1179     1.0  0.32556  0.39703  0.37669  1.0000
  C   C1182     1.0  0.35532  0.42310  0.42460  1.0000
  H   H1180     1.0  0.09951  0.37269  0.39901  1.0000
  S   S389      1.0  0.29559  0.24204  0.38505  1.0000
  C   C1183     1.0  0.32394  0.24877  0.50052  1.0000
  C   C1184     1.0  0.34592  0.28233  0.49750  1.0000
  C   C1185     1.0  0.14405  0.45693  0.55481  1.0000
  H   H1181     1.0  0.34732  0.42365  0.41772  1.0000
  S   S390      1.0  0.27592  0.25755  0.56139  1.0000
  C   C1186     1.0  0.06380  0.44886  0.47458  1.0000
  S   S391      1.0  0.04019  0.40343  0.48354  1.0000
  C   C1187     1.0  0.31060  0.25468  0.51072  1.0000
  H   H1182     1.0  0.14880  0.46081  0.56221  1.0000
  H   H1183     1.0  0.07789  0.42681  0.47068  1.0000
  H   H1184     1.0  0.35691  0.44701  0.41510  1.0000
  H   H1185     1.0  0.23071  0.30008  0.53283  1.0000
  H   H1186     1.0  0.32392  0.28448  0.42675  1.0000
  H   H1187     1.0  0.15144  0.26780  0.50017  1.0000
  H   H1188     1.0  0.00051  0.37205  0.44518  1.0000
  C   C1188     1.0  0.34121  0.24266  0.38748  1.0000
  C   C1189     1.0  0.36990  0.40906  0.44352  1.0000
  H   H1189     1.0  0.14312  0.42406  0.54552  1.0000
  C   C1190     1.0  0.37572  0.42199  0.44211  1.0000
  C   C1191     1.0  0.35417  0.39597  0.43599  1.0000
  S   S392      1.0  0.22251  0.23351  0.51861  1.0000
  C   C1192     1.0  0.21987  0.29815  0.54067  1.0000
  H   H1190     1.0  0.12358  0.42998  0.53052  1.0000
  H   H1191     1.0  0.45811  0.32910  0.53235  1.0000
  Fe  Fe200     1.0  0.10024  0.35855  0.55869  1.0000
  N   N104      1.0  0.36008  0.40964  0.43459  1.0000
  C   C1193     1.0  0.45774  0.34122  0.52689  1.0000
  C   C1194     1.0  0.46965  0.36328  0.51793  1.0000
  C   C1195     1.0  0.19784  0.26544  0.40360  1.0000
  S   S393      1.0  0.10595  0.45442  0.48791  1.0000
  C   C1196     1.0  0.12543  0.28061  0.53003  1.0000
  H   H1192     1.0  0.15226  0.24683  0.46076  1.0000
  C   C1197     1.0  0.30059  0.46999  0.37479  1.0000
  C   C1198     1.0  0.24028  0.23974  0.53447  1.0000
  C   C1199     1.0  0.21860  0.22771  0.43521  1.0000
  C   C1200     1.0  0.36073  0.43634  0.42306  1.0000
  H   H1193     1.0  0.30307  0.26562  0.50683  1.0000
  C   C1201     1.0  0.22002  0.28690  0.55430  1.0000
  H   H1194     1.0  0.34357  0.36624  0.55839  1.0000
  H   H1195     1.0  0.37374  0.39841  0.45142  1.0000
  H   H1196     1.0  0.32850  0.46331  0.55948  1.0000
  C   C1202     1.0  0.14771  0.28701  0.38354  1.0000
  C   C1203     1.0  0.99313  0.39050  0.42666  1.0000
  H   H1197     1.0  0.45245  0.39566  0.51283  1.0000
  S   S394      1.0  0.20073  0.24720  0.36742  1.0000
  H   H1198     1.0  0.43487  0.37266  0.50875  1.0000
  S   S395      1.0  0.15786  0.24427  0.37723  1.0000
  S   S396      1.0  0.06605  0.35740  0.38097  1.0000
  H   H1199     1.0  0.37768  0.44199  0.54863  1.0000
  C   C1204     1.0  0.12228  0.31143  0.37837  1.0000
  Fe  Fe201     1.0  0.17209  0.22859  0.51016  1.0000
  H   H1200     1.0  0.41815  0.38911  0.37622  1.0000
  S   S397      1.0  0.35487  0.23525  0.45084  1.0000
  H   H1201     1.0  0.01142  0.41928  0.40682  1.0000
  N   N105      1.0  0.45714  0.37201  0.51193  1.0000
  H   H1202     1.0  0.18098  0.31077  0.54455  1.0000
  H   H1203     1.0  0.38140  0.46761  0.53387  1.0000
  Fe  Fe202     1.0  0.28421  0.22859  0.37643  1.0000
  C   C1205     1.0  0.21522  0.24682  0.55855  1.0000
  C   C1206     1.0  0.45681  0.38829  0.50417  1.0000
  C   C1207     1.0  0.07659  0.46483  0.48184  1.0000
  C   C1208     1.0  0.22052  0.24665  0.41118  1.0000
  H   H1204     1.0  0.19558  0.22903  0.44956  1.0000
  H   H1205     1.0  0.18355  0.25094  0.43120  1.0000
  C   C1209     1.0  0.19597  0.24640  0.42836  1.0000
  H   H1206     1.0  0.30553  0.45763  0.37612  1.0000
  H   H1207     1.0  0.15428  0.43281  0.56227  1.0000
  C   C1210     1.0  0.35576  0.36720  0.55645  1.0000
  H   H1208     1.0  0.34387  0.22992  0.49772  1.0000
  S   S398      1.0  0.13468  0.38904  0.56455  1.0000
  C   C1211     1.0  0.35727  0.23307  0.41128  1.0000
  H   H1209     1.0  0.38086  0.37151  0.56185  1.0000
  H   H1210     1.0  0.07619  0.47547  0.48490  1.0000
  Fe  Fe203     1.0  0.29210  0.23420  0.56598  1.0000
  C   C1212     1.0  0.13697  0.31227  0.36899  1.0000
  H   H1211     1.0  0.30085  0.22948  0.43419  1.0000
  H   H1212     1.0  0.31100  0.23112  0.41428  1.0000
  C   C1213     1.0  0.31183  0.23143  0.42594  1.0000
  Fe  Fe204     1.0  0.27546  0.32115  0.64761  1.0000
  S   S399      1.0  0.27238  0.34559  0.63395  1.0000
  S   S400      1.0  0.26212  0.30514  0.64547  1.0000
  Fe  Fe205     1.0  0.29595  0.32582  0.66573  1.0000
  S   S401      1.0  0.29458  0.35072  0.65370  1.0000
  S   S402      1.0  0.30776  0.31518  0.68563  1.0000
  Fe  Fe206     1.0  0.26943  0.35195  0.65638  1.0000
  S   S403      1.0  0.25054  0.37110  0.66482  1.0000
  Fe  Fe207     1.0  0.29778  0.34214  0.63240  1.0000
  S   S404      1.0  0.31269  0.35272  0.61063  1.0000
  S   S405      1.0  0.27035  0.32775  0.67029  1.0000
  S   S406      1.0  0.30134  0.31690  0.64412  1.0000
  C   C1214     1.0  0.46455  0.43809  0.68285  1.0000
  C   C1215     1.0  0.38604  0.43245  0.74512  1.0000
  S   S407      1.0  0.37507  0.34602  0.72021  1.0000
  C   C1216     1.0  0.46389  0.44390  0.69557  1.0000
  S   S408      1.0  0.29849  0.23846  0.58579  1.0000
  H   H1213     1.0  0.10046  0.43404  0.72404  1.0000
  Fe  Fe208     1.0  0.37514  0.39121  0.60811  1.0000
  S   S409      1.0  0.36700  0.41570  0.61099  1.0000
  S   S410      1.0  0.36632  0.37169  0.62594  1.0000
  Fe  Fe209     1.0  0.00854  0.31413  0.69526  1.0000
  H   H1214     1.0  0.26353  0.25337  0.63997  1.0000
  Fe  Fe210     1.0  0.39226  0.41630  0.60369  1.0000
  S   S411      1.0  0.40084  0.42523  0.61932  1.0000
  H   H1215     1.0  0.48004  0.38990  0.69383  1.0000
  H   H1216     1.0  0.47312  0.24081  0.73833  1.0000
  S   S412      1.0  0.40039  0.39116  0.60274  1.0000
  C   C1217     1.0  0.10388  0.44977  0.75716  1.0000
  H   H1217     1.0  0.47164  0.47671  0.66174  1.0000
  C   C1218     1.0  0.38799  0.30897  0.68596  1.0000
  S   S413      1.0  0.46467  0.44633  0.59454  1.0000
  H   H1218     1.0  0.26622  0.45077  0.75262  1.0000
  H   H1219     1.0  0.34301  0.29871  0.72309  1.0000
  S   S414      1.0  0.45985  0.41705  0.66964  1.0000
  C   C1219     1.0  0.36082  0.46209  0.57107  1.0000
  H   H1220     1.0  0.08130  0.35077  0.60409  1.0000
  S   S415      1.0  0.10901  0.32881  0.61182  1.0000
  S   S416      1.0  0.46728  0.45245  0.63536  1.0000
  C   C1220     1.0  0.37523  0.36354  0.57121  1.0000
  C   C1221     1.0  0.29172  0.44402  0.76367  1.0000
  H   H1221     1.0  0.40215  0.44408  0.74777  1.0000
  S   S417      1.0  0.41513  0.26428  0.71351  1.0000
  H   H1222     1.0  0.19448  0.40648  0.72658  1.0000
  H   H1223     1.0  0.27684  0.24388  0.62551  1.0000
  C   C1222     1.0  0.23120  0.46151  0.76424  1.0000
  S   S418      1.0  0.23296  0.24952  0.57630  1.0000
  S   S419      1.0  0.44848  0.40307  0.75044  1.0000
  C   C1223     1.0  0.12174  0.45108  0.71529  1.0000
  C   C1224     1.0  0.37706  0.32074  0.69235  1.0000
  C   C1225     1.0  0.41067  0.39736  0.74656  1.0000
  H   H1224     1.0  0.29447  0.39614  0.75526  1.0000
  C   C1226     1.0  0.06562  0.32344  0.60136  1.0000
  Fe  Fe211     1.0  0.28076  0.26078  0.58263  1.0000
  S   S420      1.0  0.26122  0.25069  0.59895  1.0000
  S   S421      1.0  0.28737  0.28240  0.58311  1.0000
  H   H1225     1.0  0.06136  0.28602  0.64850  1.0000
  H   H1226     1.0  0.27603  0.26235  0.65694  1.0000
  Fe  Fe212     1.0  0.25771  0.24558  0.57802  1.0000
  H   H1227     1.0  0.45982  0.38411  0.72491  1.0000
  C   C1227     1.0  0.28814  0.40812  0.75465  1.0000
  H   H1228     1.0  0.39159  0.36041  0.58516  1.0000
  H   H1229     1.0  0.09584  0.32601  0.70899  1.0000
  C   C1228     1.0  0.14064  0.47230  0.63329  1.0000
  H   H1230     1.0  0.11599  0.35784  0.61779  1.0000
  S   S422      1.0  0.12894  0.40187  0.72849  1.0000
  Fe  Fe213     1.0  0.08338  0.38015  0.73321  1.0000
  H   H1231     1.0  0.29303  0.27990  0.65426  1.0000
  S   S423      1.0  0.07825  0.37475  0.71297  1.0000
  H   H1232     1.0  0.39274  0.31443  0.72768  1.0000
  S   S424      1.0  0.10864  0.33319  0.56809  1.0000
  C   C1229     1.0  0.18127  0.40148  0.71332  1.0000
  H   H1233     1.0  0.33802  0.39544  0.63552  1.0000
  S   S425      1.0  0.08557  0.40382  0.73335  1.0000
  S   S426      1.0  0.10668  0.36836  0.73862  1.0000
  S   S427      1.0  0.02385  0.29783  0.71081  1.0000
  Fe  Fe214     1.0  0.03525  0.32781  0.67336  1.0000
  S   S428      1.0  0.05257  0.31280  0.68719  1.0000
  S   S429      1.0  0.04102  0.34500  0.65111  1.0000
  Fe  Fe215     1.0  0.04090  0.29384  0.68885  1.0000
  S   S430      1.0  0.05654  0.27164  0.68290  1.0000
  Fe  Fe216     1.0  0.03405  0.31833  0.70768  1.0000
  S   S431      1.0  0.03860  0.32431  0.72782  1.0000
  S   S432      1.0  0.02478  0.30848  0.67349  1.0000
  S   S433      1.0  0.34617  0.35853  0.69361  1.0000
  H   H1234     1.0  0.11285  0.38436  0.65873  1.0000
  H   H1235     1.0  0.39061  0.43334  0.73285  1.0000
  C   C1230     1.0  0.39289  0.30220  0.73105  1.0000
  C   C1231     1.0  0.39002  0.38686  0.76549  1.0000
  C   C1232     1.0  0.47653  0.22832  0.73992  1.0000
  H   H1236     1.0  0.39378  0.25807  0.74304  1.0000
  H   H1237     1.0  0.41996  0.40337  0.74354  1.0000
  Fe  Fe217     1.0  0.19205  0.41986  0.61846  1.0000
  S   S434      1.0  0.17842  0.40669  0.63953  1.0000
  S   S435      1.0  0.21795  0.41320  0.61123  1.0000
  Fe  Fe218     1.0  0.16349  0.44208  0.60903  1.0000
  S   S436      1.0  0.14737  0.43089  0.62942  1.0000
  S   S437      1.0  0.15325  0.46251  0.59211  1.0000
  Fe  Fe219     1.0  0.16453  0.43025  0.64281  1.0000
  S   S438      1.0  0.15612  0.43628  0.66616  1.0000
  Fe  Fe220     1.0  0.16272  0.40849  0.62417  1.0000
  S   S439      1.0  0.15424  0.38738  0.62544  1.0000
  S   S440      1.0  0.17937  0.44339  0.62288  1.0000
  S   S441      1.0  0.17756  0.41969  0.60269  1.0000
  Fe  Fe221     1.0  0.19602  0.45629  0.71729  1.0000
  S   S442      1.0  0.20445  0.45199  0.69316  1.0000
  C   C1233     1.0  0.16955  0.44118  0.67322  1.0000
  C   C1234     1.0  0.18434  0.44236  0.66426  1.0000
  C   C1235     1.0  0.19484  0.44619  0.67029  1.0000
  C   C1236     1.0  0.19068  0.44862  0.68534  1.0000
  C   C1237     1.0  0.17583  0.44761  0.69419  1.0000
  C   C1238     1.0  0.16528  0.44396  0.68811  1.0000
  H   H1238     1.0  0.18778  0.44016  0.65278  1.0000
  H   H1239     1.0  0.20636  0.44690  0.66342  1.0000
  H   H1240     1.0  0.17256  0.44954  0.70575  1.0000
  H   H1241     1.0  0.15384  0.44314  0.69502  1.0000
  C   C1239     1.0  0.09562  0.33422  0.72870  1.0000
  H   H1242     1.0  0.17259  0.39799  0.72342  1.0000
  C   C1240     1.0  0.04923  0.25475  0.69082  1.0000
  C   C1241     1.0  0.05773  0.24085  0.68641  1.0000
  Fe  Fe222     1.0  0.47482  0.42802  0.64802  1.0000
  H   H1243     1.0  0.14041  0.41262  0.57554  1.0000
  C   C1242     1.0  0.02942  0.24139  0.70770  1.0000
  C   C1243     1.0  0.03510  0.25499  0.70152  1.0000
  H   H1244     1.0  0.06868  0.24062  0.67812  1.0000
  S   S443      1.0  0.17263  0.47074  0.72566  1.0000
  H   H1245     1.0  0.01852  0.24157  0.71606  1.0000
  H   H1246     1.0  0.02863  0.26563  0.70510  1.0000
  C   C1244     1.0  0.13549  0.41215  0.73792  1.0000
  H   H1247     1.0  0.12196  0.45966  0.74059  1.0000
  C   C1245     1.0  0.14666  0.42076  0.72938  1.0000
  C   C1246     1.0  0.06563  0.36217  0.71695  1.0000
  C   C1247     1.0  0.05716  0.35755  0.73186  1.0000
  C   C1248     1.0  0.04822  0.34650  0.73495  1.0000
  C   C1249     1.0  0.04773  0.33996  0.72316  1.0000
  C   C1250     1.0  0.05570  0.34501  0.70812  1.0000
  C   C1251     1.0  0.06464  0.35608  0.70504  1.0000
  H   H1248     1.0  0.05762  0.36235  0.74105  1.0000
  H   H1249     1.0  0.05533  0.34007  0.69895  1.0000
  H   H1250     1.0  0.07112  0.35961  0.69350  1.0000
  C   C1252     1.0  0.10680  0.36866  0.61808  1.0000
  C   C1253     1.0  0.38350  0.28039  0.74900  1.0000
  H   H1251     1.0  0.09721  0.36744  0.61374  1.0000
  H   H1252     1.0  0.32545  0.33636  0.66361  1.0000
  S   S444      1.0  0.20915  0.46767  0.72650  1.0000
  C   C1254     1.0  0.14013  0.38841  0.58153  1.0000
  C   C1255     1.0  0.14220  0.37465  0.59270  1.0000
  C   C1256     1.0  0.14659  0.37440  0.60613  1.0000
  C   C1257     1.0  0.14898  0.38789  0.60843  1.0000
  C   C1258     1.0  0.14681  0.40168  0.59733  1.0000
  C   C1259     1.0  0.14236  0.40192  0.58394  1.0000
  H   H1253     1.0  0.14049  0.36418  0.59100  1.0000
  H   H1254     1.0  0.14827  0.36369  0.61468  1.0000
  H   H1255     1.0  0.14836  0.41221  0.59914  1.0000
  H   H1256     1.0  0.05814  0.30338  0.65545  1.0000
  C   C1260     1.0  0.09049  0.33465  0.62291  1.0000
  C   C1261     1.0  0.07887  0.34553  0.61623  1.0000
  C   C1262     1.0  0.06382  0.34916  0.62517  1.0000
  C   C1263     1.0  0.06031  0.34174  0.64071  1.0000
  C   C1264     1.0  0.07210  0.33132  0.64748  1.0000
  C   C1265     1.0  0.08715  0.32779  0.63861  1.0000
  S   S445      1.0  0.01749  0.33494  0.69375  1.0000
  H   H1257     1.0  0.05475  0.35728  0.61988  1.0000
  H   H1258     1.0  0.06963  0.32583  0.65950  1.0000
  H   H1259     1.0  0.09615  0.31945  0.64384  1.0000
  C   C1266     1.0  0.40345  0.27623  0.72613  1.0000
  C   C1267     1.0  0.40320  0.29213  0.72193  1.0000
  H   H1260     1.0  0.41083  0.29671  0.71145  1.0000
  Fe  Fe223     1.0  0.41572  0.23875  0.72194  1.0000
  H   H1261     1.0  0.35781  0.32601  0.71080  1.0000
  Fe  Fe224     1.0  0.36771  0.42194  0.58569  1.0000
  C   C1268     1.0  0.37424  0.34688  0.59649  1.0000
  C   C1269     1.0  0.38768  0.29350  0.69295  1.0000
  H   H1262     1.0  0.29795  0.25505  0.61174  1.0000
  H   H1263     1.0  0.46986  0.45297  0.69411  1.0000
  H   H1264     1.0  0.37705  0.33285  0.68702  1.0000
  S   S446      1.0  0.15065  0.44226  0.76021  1.0000
  C   C1270     1.0  0.45738  0.42591  0.68487  1.0000
  C   C1271     1.0  0.44897  0.42005  0.69944  1.0000
  C   C1272     1.0  0.44824  0.42593  0.71210  1.0000
  S   S447      1.0  0.45683  0.44368  0.72631  1.0000
  H   H1265     1.0  0.47100  0.44270  0.67159  1.0000
  H   H1266     1.0  0.44323  0.41077  0.70102  1.0000
  S   S448      1.0  0.34783  0.43735  0.57536  1.0000
  H   H1267     1.0  0.16905  0.39154  0.68784  1.0000
  N   N106      1.0  0.17987  0.40169  0.69893  1.0000
  H   H1268     1.0  0.37635  0.37699  0.75691  1.0000
  C   C1273     1.0  0.41839  0.43141  0.61195  1.0000
  C   C1274     1.0  0.42606  0.43226  0.59650  1.0000
  C   C1275     1.0  0.44019  0.43709  0.59108  1.0000
  C   C1276     1.0  0.44682  0.44068  0.60119  1.0000
  C   C1277     1.0  0.43922  0.43965  0.61666  1.0000
  C   C1278     1.0  0.42491  0.43529  0.62195  1.0000
  H   H1269     1.0  0.42106  0.42930  0.58873  1.0000
  H   H1270     1.0  0.44605  0.43788  0.57910  1.0000
  H   H1271     1.0  0.44421  0.44250  0.62449  1.0000
  H   H1272     1.0  0.41890  0.43493  0.63384  1.0000
  C   C1279     1.0  0.37636  0.29002  0.70625  1.0000
  C   C1280     1.0  0.07906  0.30460  0.61993  1.0000
  C   C1281     1.0  0.27577  0.24725  0.63645  1.0000
  C   C1282     1.0  0.05201  0.32452  0.61280  1.0000
  Fe  Fe225     1.0  0.35077  0.35618  0.71690  1.0000
  H   H1273     1.0  0.18596  0.45874  0.58975  1.0000
  C   C1283     1.0  0.16329  0.47480  0.64065  1.0000
  H   H1274     1.0  0.21443  0.41473  0.70354  1.0000
  H   H1275     1.0  0.18960  0.40661  0.67478  1.0000
  H   H1276     1.0  0.37642  0.27795  0.71177  1.0000
  H   H1277     1.0  0.20624  0.27536  0.57467  1.0000
  Fe  Fe226     1.0  0.37136  0.36602  0.73129  1.0000
  C   C1284     1.0  0.07923  0.31338  0.60491  1.0000
  H   H1278     1.0  0.36917  0.45421  0.57742  1.0000
  H   H1279     1.0  0.13258  0.45387  0.71574  1.0000
  C   C1285     1.0  0.32666  0.35878  0.61556  1.0000
  C   C1286     1.0  0.33213  0.37185  0.60637  1.0000
  C   C1287     1.0  0.34400  0.37617  0.60981  1.0000
  C   C1288     1.0  0.35064  0.36721  0.62221  1.0000
  C   C1289     1.0  0.34493  0.35434  0.63157  1.0000
  C   C1290     1.0  0.33284  0.35021  0.62834  1.0000
  H   H1280     1.0  0.32722  0.37860  0.59659  1.0000
  H   H1281     1.0  0.34798  0.38639  0.60284  1.0000
  H   H1282     1.0  0.35005  0.34738  0.64116  1.0000
  H   H1283     1.0  0.32870  0.34003  0.63539  1.0000
  C   C1291     1.0  0.24184  0.38354  0.64998  1.0000
  C   C1292     1.0  0.25009  0.38528  0.63467  1.0000
  C   C1293     1.0  0.24280  0.39486  0.62286  1.0000
  C   C1294     1.0  0.22721  0.40253  0.62631  1.0000
  C   C1295     1.0  0.21908  0.40103  0.64167  1.0000
  C   C1296     1.0  0.22640  0.39154  0.65349  1.0000
  H   H1284     1.0  0.26213  0.37941  0.63191  1.0000
  H   H1285     1.0  0.24919  0.39613  0.61100  1.0000
  H   H1286     1.0  0.20721  0.40727  0.64444  1.0000
  H   H1287     1.0  0.22005  0.39016  0.66533  1.0000
  C   C1297     1.0  0.26776  0.30051  0.62731  1.0000
  C   C1298     1.0  0.26096  0.29007  0.62445  1.0000
  C   C1299     1.0  0.26648  0.28494  0.61059  1.0000
  C   C1300     1.0  0.27878  0.29026  0.59955  1.0000
  C   C1301     1.0  0.28508  0.30128  0.60212  1.0000
  C   C1302     1.0  0.27962  0.30637  0.61602  1.0000
  H   H1288     1.0  0.25165  0.28568  0.63309  1.0000
  H   H1289     1.0  0.26131  0.27676  0.60857  1.0000
  H   H1290     1.0  0.29453  0.30552  0.59356  1.0000
  H   H1291     1.0  0.28485  0.31452  0.61813  1.0000
  C   C1303     1.0  0.31860  0.32702  0.68787  1.0000
  C   C1304     1.0  0.31979  0.32698  0.70263  1.0000
  C   C1305     1.0  0.32813  0.33668  0.70457  1.0000
  C   C1306     1.0  0.33574  0.34606  0.69171  1.0000
  C   C1307     1.0  0.33484  0.34579  0.67695  1.0000
  C   C1308     1.0  0.32610  0.33648  0.67503  1.0000
  H   H1292     1.0  0.31391  0.31972  0.71258  1.0000
  H   H1293     1.0  0.34089  0.35284  0.66695  1.0000
  H   H1294     1.0  0.10371  0.34159  0.72237  1.0000
  H   H1295     1.0  0.04075  0.39779  0.76522  1.0000
  C   C1309     1.0  0.16601  0.39828  0.69693  1.0000
  S   S449      1.0  0.36926  0.30888  0.75563  1.0000
  S   S450      1.0  0.10253  0.36613  0.57883  1.0000
  C   C1310     1.0  0.40663  0.39305  0.73505  1.0000
  Fe  Fe227     1.0  0.47601  0.44236  0.61422  1.0000
  H   H1296     1.0  0.39677  0.31183  0.67571  1.0000
  H   H1297     1.0  0.17449  0.28023  0.56786  1.0000
  H   H1298     1.0  0.07208  0.36715  0.66506  1.0000
  Fe  Fe228     1.0  0.11312  0.34114  0.58694  1.0000
  C   C1311     1.0  0.15188  0.42947  0.73634  1.0000
  C   C1312     1.0  0.06568  0.29663  0.64681  1.0000
  S   S451      1.0  0.13744  0.34327  0.57495  1.0000
  Fe  Fe229     1.0  0.33909  0.36256  0.74906  1.0000
  N   N107      1.0  0.40554  0.39691  0.65952  1.0000
  C   C1313     1.0  0.40185  0.39419  0.67527  1.0000
  C   C1314     1.0  0.41854  0.40236  0.65139  1.0000
  C   C1315     1.0  0.41144  0.39670  0.68328  1.0000
  C   C1316     1.0  0.42831  0.40512  0.65902  1.0000
  C   C1317     1.0  0.42471  0.40224  0.67507  1.0000
  C   C1318     1.0  0.39501  0.39492  0.65127  1.0000
  H   H1299     1.0  0.39145  0.39008  0.68178  1.0000
  H   H1300     1.0  0.42135  0.40473  0.63890  1.0000
  H   H1301     1.0  0.40851  0.39444  0.69578  1.0000
  H   H1302     1.0  0.43854  0.40960  0.65254  1.0000
  H   H1303     1.0  0.43218  0.40438  0.68110  1.0000
  H   H1304     1.0  0.38629  0.40594  0.64895  1.0000
  H   H1305     1.0  0.40140  0.39199  0.63996  1.0000
  H   H1306     1.0  0.38895  0.38545  0.65795  1.0000
  C   C1319     1.0  0.09120  0.32548  0.72120  1.0000
  C   C1320     1.0  0.39365  0.27033  0.73974  1.0000
  H   H1307     1.0  0.19980  0.38646  0.60735  1.0000
  Fe  Fe230     1.0  0.36389  0.33400  0.74359  1.0000
  N   N108      1.0  0.28571  0.43344  0.75877  1.0000
  H   H1308     1.0  0.12095  0.40569  0.76022  1.0000
  H   H1309     1.0  0.37761  0.23190  0.66977  1.0000
  H   H1310     1.0  0.31523  0.27229  0.60872  1.0000
  H   H1311     1.0  0.09226  0.34094  0.75001  1.0000
  H   H1312     1.0  0.15939  0.46823  0.65212  1.0000
  S   S452      1.0  0.48141  0.41783  0.62721  1.0000
  S   S453      1.0  0.34782  0.37718  0.72613  1.0000
  S   S454      1.0  0.37358  0.39726  0.58344  1.0000
  C   C1321     1.0  0.31520  0.39113  0.63967  1.0000
  C   C1322     1.0  0.35502  0.34985  0.58210  1.0000
  H   H1313     1.0  0.04194  0.34273  0.74657  1.0000
  S   S455      1.0  0.39236  0.42476  0.57838  1.0000
  H   H1314     1.0  0.24097  0.33683  0.64101  1.0000
  S   S456      1.0  0.39661  0.22879  0.72081  1.0000
  S   S457      1.0  0.18263  0.46287  0.75886  1.0000
  C   C1323     1.0  0.38598  0.38255  0.75398  1.0000
  C   C1324     1.0  0.16616  0.47464  0.58196  1.0000
  S   S458      1.0  0.22312  0.43560  0.76217  1.0000
  H   H1315     1.0  0.08999  0.31275  0.59625  1.0000
  C   C1325     1.0  0.34880  0.45691  0.56900  1.0000
  H   H1316     1.0  0.30453  0.41438  0.76296  1.0000
  C   C1326     1.0  0.12954  0.41230  0.75352  1.0000
  H   H1317     1.0  0.04174  0.31682  0.63664  1.0000
  H   H1318     1.0  0.35522  0.33524  0.60479  1.0000
  C   C1327     1.0  0.37415  0.42462  0.75275  1.0000
  H   H1319     1.0  0.27842  0.23642  0.64519  1.0000
  C   C1328     1.0  0.48538  0.39910  0.72435  1.0000
  S   S459      1.0  0.07024  0.37576  0.75781  1.0000
  H   H1320     1.0  0.26973  0.40546  0.74612  1.0000
  H   H1321     1.0  0.99449  0.25545  0.66926  1.0000
  H   H1322     1.0  0.37860  0.34227  0.60698  1.0000
  C   C1329     1.0  0.36109  0.34300  0.59529  1.0000
  H   H1323     1.0  0.37586  0.27582  0.75947  1.0000
  H   H1324     1.0  0.12977  0.27598  0.57159  1.0000
  C   C1330     1.0  0.18161  0.47015  0.58329  1.0000
  C   C1331     1.0  0.98952  0.26007  0.67958  1.0000
  H   H1325     1.0  0.07635  0.31015  0.72353  1.0000
  H   H1326     1.0  0.31287  0.28489  0.63010  1.0000
  H   H1327     1.0  0.04143  0.33256  0.61028  1.0000
  H   H1328     1.0  0.22430  0.33838  0.65647  1.0000
  C   C1332     1.0  0.29375  0.41844  0.75913  1.0000
  C   C1333     1.0  0.27245  0.43880  0.75322  1.0000
  H   H1329     1.0  0.32853  0.33696  0.71601  1.0000
  H   H1330     1.0  0.11145  0.37855  0.60996  1.0000
  C   C1334     1.0  0.10575  0.37967  0.65439  1.0000
  S   S460      1.0  0.33983  0.34257  0.73940  1.0000
  C   C1335     1.0  0.29723  0.25993  0.62137  1.0000
  H   H1331     1.0  0.31466  0.39459  0.62760  1.0000
  C   C1336     1.0  0.08798  0.36762  0.64290  1.0000
  H   H1332     1.0  0.12129  0.37995  0.63222  1.0000
  C   C1337     1.0  0.07381  0.31666  0.74491  1.0000
  C   C1338     1.0  0.32831  0.39160  0.64411  1.0000
  N   N109      1.0  0.36589  0.30163  0.71261  1.0000
  Fe  Fe231     1.0  0.39817  0.39943  0.57812  1.0000
  N   N110      1.0  0.30379  0.38104  0.66603  1.0000
  C   C1339     1.0  0.30297  0.38576  0.65084  1.0000
  C   C1340     1.0  0.31659  0.38152  0.67046  1.0000
  C   C1341     1.0  0.32908  0.38669  0.65958  1.0000
  Fe  Fe232     1.0  0.45156  0.42681  0.74886  1.0000
  C   C1342     1.0  0.29128  0.37479  0.67766  1.0000
  H   H1333     1.0  0.29294  0.38522  0.64722  1.0000
  Fe  Fe233     1.0  0.17186  0.45176  0.74700  1.0000
  H   H1334     1.0  0.33945  0.38648  0.66311  1.0000
  H   H1335     1.0  0.28768  0.38050  0.68759  1.0000
  H   H1336     1.0  0.28084  0.37663  0.67299  1.0000
  H   H1337     1.0  0.29536  0.36210  0.68182  1.0000
  H   H1338     1.0  0.16035  0.43622  0.72965  1.0000
  C   C1343     1.0  0.09186  0.37610  0.66371  1.0000
  H   H1339     1.0  0.44153  0.42154  0.72322  1.0000
  H   H1340     1.0  0.08981  0.29713  0.62265  1.0000
  H   H1341     1.0  0.07744  0.29313  0.64934  1.0000
  H   H1342     1.0  0.47619  0.36953  0.71803  1.0000
  H   H1343     1.0  0.31742  0.37747  0.68244  1.0000
  H   H1344     1.0  0.22486  0.46796  0.75538  1.0000
  Fe  Fe234     1.0  0.27855  0.22807  0.60033  1.0000
  C   C1344     1.0  0.38295  0.29636  0.74454  1.0000
  Fe  Fe235     1.0  0.10788  0.39168  0.74086  1.0000
  H   H1345     1.0  0.08804  0.37805  0.67539  1.0000
  H   H1346     1.0  0.01163  0.25975  0.68348  1.0000
  C   C1345     1.0  0.48402  0.39554  0.70039  1.0000
  H   H1347     1.0  0.41306  0.39552  0.72327  1.0000
  C   C1346     1.0  0.10135  0.43869  0.73324  1.0000
  H   H1348     1.0  0.35768  0.28607  0.73331  1.0000
  H   H1349     1.0  0.15101  0.42100  0.71724  1.0000
  N   N111      1.0  0.28629  0.25729  0.63471  1.0000
  C   C1347     1.0  0.26652  0.42883  0.74856  1.0000
  C   C1348     1.0  0.28496  0.26409  0.64654  1.0000
  H   H1350     1.0  0.11523  0.46114  0.70809  1.0000
  C   C1349     1.0  0.29461  0.27397  0.64513  1.0000
  N   N112      1.0  0.07798  0.32553  0.75208  1.0000
  C   C1350     1.0  0.08895  0.33398  0.74428  1.0000
  C   C1351     1.0  0.40242  0.39421  0.76183  1.0000
  H   H1351     1.0  0.18390  0.47697  0.64593  1.0000
  C   C1352     1.0  0.30572  0.27680  0.63154  1.0000
  H   H1352     1.0  0.20339  0.47700  0.57763  1.0000
  Fe  Fe236     1.0  0.20533  0.44921  0.74799  1.0000
  H   H1353     1.0  0.48287  0.39598  0.73682  1.0000
  C   C1353     1.0  0.39251  0.43848  0.75349  1.0000
  H   H1354     1.0  0.18581  0.37205  0.63167  1.0000
  N   N113      1.0  0.06572  0.30592  0.63113  1.0000
  C   C1354     1.0  0.47243  0.37920  0.72417  1.0000
  C   C1355     1.0  0.19089  0.40603  0.68623  1.0000
  C   C1356     1.0  0.19372  0.40612  0.71522  1.0000
  C   C1357     1.0  0.20372  0.41033  0.68776  1.0000
  C   C1358     1.0  0.20496  0.41064  0.70232  1.0000
  H   H1355     1.0  0.16789  0.30009  0.56999  1.0000
  C   C1359     1.0  0.35394  0.29790  0.72643  1.0000
  H   H1356     1.0  0.16000  0.39146  0.70773  1.0000
  C   C1360     1.0  0.33347  0.39263  0.76525  1.0000
  H   H1357     1.0  0.21230  0.41405  0.67765  1.0000
  C   C1361     1.0  0.09299  0.44088  0.75981  1.0000
  H   H1358     1.0  0.08097  0.36284  0.63856  1.0000
  S   S461      1.0  0.36235  0.35300  0.75510  1.0000
  C   C1362     1.0  0.45607  0.43753  0.71028  1.0000
  C   C1363     1.0  0.08291  0.37000  0.65795  1.0000
  C   C1364     1.0  0.05226  0.31558  0.62770  1.0000
  H   H1359     1.0  0.06484  0.31022  0.75092  1.0000
  S   S462      1.0  0.46901  0.41849  0.76382  1.0000
  H   H1360     1.0  0.99361  0.30343  0.67439  1.0000
  C   C1365     1.0  0.36609  0.31681  0.70579  1.0000
  H   H1361     1.0  0.06570  0.33064  0.58986  1.0000
  H   H1362     1.0  0.23693  0.35157  0.65196  1.0000
  C   C1366     1.0  0.30709  0.26971  0.61959  1.0000
  H   H1363     1.0  0.12528  0.44098  0.70970  1.0000
  H   H1364     1.0  0.15769  0.40931  0.69352  1.0000
  S   S463      1.0  0.38952  0.38037  0.72401  1.0000
  N   N114      1.0  0.10151  0.37137  0.63377  1.0000
  Fe  Fe237     1.0  0.07447  0.39836  0.75855  1.0000
  H   H1365     1.0  0.34092  0.38932  0.75485  1.0000
  C   C1367     1.0  0.09167  0.43536  0.74777  1.0000
  H   H1366     1.0  0.36951  0.41928  0.74647  1.0000
  H   H1367     1.0  0.39641  0.28421  0.68840  1.0000
  C   C1368     1.0  0.27435  0.41335  0.74946  1.0000
  C   C1369     1.0  0.11045  0.37716  0.63938  1.0000
  H   H1368     1.0  0.35170  0.30604  0.73410  1.0000
  S   S464      1.0  0.19437  0.43652  0.73788  1.0000
  C   C1370     1.0  0.39434  0.38554  0.73874  1.0000
  C   C1371     1.0  0.08034  0.31653  0.72937  1.0000
  N   N115      1.0  0.22275  0.35627  0.63596  1.0000
  C   C1372     1.0  0.23051  0.36407  0.62251  1.0000
  C   C1373     1.0  0.20689  0.35905  0.63932  1.0000
  C   C1374     1.0  0.22238  0.37491  0.61197  1.0000
  C   C1375     1.0  0.19840  0.36979  0.62901  1.0000
  C   C1376     1.0  0.20623  0.37781  0.61529  1.0000
  C   C1377     1.0  0.23162  0.34525  0.64691  1.0000
  H   H1369     1.0  0.24305  0.36216  0.62001  1.0000
  H   H1370     1.0  0.20069  0.35301  0.65003  1.0000
  H   H1371     1.0  0.22853  0.38147  0.60155  1.0000
  N   N116      1.0  0.36203  0.36011  0.57034  1.0000
  H   H1372     1.0  0.34359  0.41183  0.76256  1.0000
  H   H1373     1.0  0.14090  0.46165  0.64265  1.0000
  Fe  Fe238     1.0  0.09373  0.36551  0.76326  1.0000
  H   H1374     1.0  0.34441  0.34722  0.58159  1.0000
  N   N117      1.0  0.11205  0.44735  0.73076  1.0000
  C   C1378     1.0  0.14571  0.42988  0.75184  1.0000
  H   H1375     1.0  0.38196  0.23117  0.69520  1.0000
  C   C1379     1.0  0.11330  0.45302  0.74244  1.0000
  H   H1376     1.0  0.09109  0.23063  0.72581  1.0000
  C   C1380     1.0  0.38144  0.35715  0.58433  1.0000
  C   C1381     1.0  0.17755  0.28966  0.57096  1.0000
  H   H1377     1.0  0.13915  0.46916  0.62310  1.0000
  H   H1378     1.0  0.17851  0.28605  0.58320  1.0000
  H   H1379     1.0  0.25577  0.43301  0.74454  1.0000
  C   C1382     1.0  0.13463  0.42117  0.76046  1.0000
  H   H1380     1.0  0.29855  0.45080  0.75354  1.0000
  H   H1381     1.0  0.08326  0.42843  0.74974  1.0000
  H   H1382     1.0  0.20550  0.24938  0.56791  1.0000
  C   C1383     1.0  0.99248  0.26877  0.70067  1.0000
  N   N118      1.0  0.48108  0.39137  0.71612  1.0000
  H   H1383     1.0  1.00000  0.27081  0.70671  1.0000
  C   C1384     1.0  0.99912  0.26256  0.68751  1.0000
  H   H1384     1.0  0.47436  0.37417  0.73607  1.0000
  S   S465      1.0  0.48145  0.37252  0.76595  1.0000
  H   H1385     1.0  0.07261  0.22777  0.71219  1.0000
  S   S466      1.0  0.09699  0.38773  0.76615  1.0000
  C   C1385     1.0  0.03789  0.22750  0.70326  1.0000
  H   H1386     1.0  0.10531  0.45384  0.76650  1.0000
  S   S467      1.0  0.15083  0.32283  0.81427  1.0000
  C   C1386     1.0  0.14168  0.24403  0.82873  1.0000
  Fe  Fe239     1.0  0.28288  0.32496  0.85982  1.0000
  S   S468      1.0  0.25702  0.32802  0.86785  1.0000
  S   S469      1.0  0.29605  0.34314  0.84474  1.0000
  Fe  Fe240     1.0  0.28900  0.29038  0.87467  1.0000
  S   S470      1.0  0.26374  0.29047  0.88385  1.0000
  S   S471      1.0  0.30839  0.26976  0.87985  1.0000
  Fe  Fe241     1.0  0.26065  0.30556  0.86080  1.0000
  S   S472      1.0  0.24662  0.30260  0.84578  1.0000
  Fe  Fe242     1.0  0.26238  0.31275  0.89021  1.0000
  S   S473      1.0  0.24799  0.31627  0.91358  1.0000
  S   S474      1.0  0.28621  0.30360  0.85102  1.0000
  S   S475      1.0  0.28793  0.31155  0.88279  1.0000
  H   H1387     1.0  0.32373  0.34733  0.81757  1.0000
  Fe  Fe243     1.0  0.46415  0.39515  0.76696  1.0000
  C   C1387     1.0  0.30013  0.28301  0.91639  1.0000
  C   C1388     1.0  0.04692  0.40158  0.81237  1.0000
  Fe  Fe244     1.0  0.16087  0.26672  0.83993  1.0000
  S   S476      1.0  0.17393  0.28557  0.83440  1.0000
  C   C1389     1.0  0.29493  0.23684  0.86841  1.0000
  Fe  Fe245     1.0  0.13437  0.28219  0.86234  1.0000
  S   S477      1.0  0.14490  0.30255  0.85837  1.0000
  S   S478      1.0  0.11292  0.27770  0.88033  1.0000
  Fe  Fe246     1.0  0.15071  0.30159  0.83347  1.0000
  H   H1388     1.0  0.06431  0.26416  0.89775  1.0000
  Fe  Fe247     1.0  0.16715  0.28494  0.85971  1.0000
  S   S479      1.0  0.18029  0.28810  0.87543  1.0000
  S   S480      1.0  0.13806  0.28284  0.83715  1.0000
  S   S481      1.0  0.15627  0.26449  0.86541  1.0000
  Fe  Fe248     1.0  0.08313  0.31533  0.94868  1.0000
  C   C1390     1.0  0.16186  0.26194  0.79040  1.0000
  S   S482      1.0  0.09088  0.32561  0.92359  1.0000
  H   H1389     1.0  0.05433  0.27631  0.92779  1.0000
  N   N119      1.0  0.37518  0.42897  0.77680  1.0000
  H   H1390     1.0  0.37164  0.43538  0.79820  1.0000
  H   H1391     1.0  0.21853  0.46511  0.80597  1.0000
  C   C1391     1.0  0.13686  0.26003  0.78857  1.0000
  S   S483      1.0  0.98761  0.41304  0.79360  1.0000
  H   H1392     1.0  0.48038  0.38303  0.79374  1.0000
  N   N120      1.0  0.99979  0.34052  0.95890  1.0000
  S   S484      1.0  0.09771  0.29338  0.95951  1.0000
  Fe  Fe249     1.0  0.42933  0.40759  0.77077  1.0000
  C   C1392     1.0  0.05420  0.25257  0.93957  1.0000
  H   H1393     1.0  0.30311  0.38312  0.79392  1.0000
  H   H1394     1.0  0.07936  0.25459  0.90829  1.0000
  H   H1395     1.0  0.27820  0.37313  0.91950  1.0000
  N   N121      1.0  0.13609  0.29095  0.90996  1.0000
  H   H1396     1.0  0.17411  0.25682  0.78980  1.0000
  S   S485      1.0  0.04604  0.24881  0.92634  1.0000
  H   H1397     1.0  0.05623  0.22945  0.95356  1.0000
  C   C1393     1.0  0.05696  0.26729  0.93763  1.0000
  C   C1394     1.0  0.13884  0.26518  0.90687  1.0000
  C   C1395     1.0  0.00463  0.41224  0.83042  1.0000
  C   C1396     1.0  0.38153  0.46806  0.86047  1.0000
  C   C1397     1.0  0.09539  0.24581  0.87694  1.0000
  C   C1398     1.0  0.32795  0.47349  0.86420  1.0000
  C   C1399     1.0  0.32180  0.38475  0.77382  1.0000
  C   C1400     1.0  0.23196  0.44560  0.76968  1.0000
  Fe  Fe250     1.0  0.44823  0.42184  0.78318  1.0000
  S   S486      1.0  0.44476  0.39765  0.78762  1.0000
  S   S487      1.0  0.44742  0.43069  0.80388  1.0000
  H   H1398     1.0  0.12983  0.42146  0.77248  1.0000
  C   C1401     1.0  0.13029  0.27409  0.79321  1.0000
  C   C1402     1.0  0.46937  0.45812  0.81350  1.0000
  C   C1403     1.0  0.21134  0.47462  0.79941  1.0000
  C   C1404     1.0  0.04735  0.38937  0.80599  1.0000
  S   S488      1.0  0.09547  0.34242  0.77999  1.0000
  N   N122      1.0  0.34901  0.23203  0.83836  1.0000
  H   H1399     1.0  0.11908  0.24344  0.82675  1.0000
  C   C1405     1.0  0.03371  0.38459  0.80788  1.0000
  H   H1400     1.0  0.23727  0.35469  0.93711  1.0000
  Fe  Fe251     1.0  0.27267  0.45611  0.80443  1.0000
  S   S489      1.0  0.26816  0.45612  0.82948  1.0000
  S   S490      1.0  0.25616  0.47060  0.78911  1.0000
  Fe  Fe252     1.0  0.30530  0.43620  0.80419  1.0000
  S   S491      1.0  0.30363  0.43451  0.82926  1.0000
  S   S492      1.0  0.32672  0.42660  0.78775  1.0000
  Fe  Fe253     1.0  0.27974  0.43075  0.83212  1.0000
  S   S493      1.0  0.26870  0.41297  0.85087  1.0000
  Fe  Fe254     1.0  0.29232  0.45995  0.82449  1.0000
  H   H1401     1.0  0.15831  0.29313  0.80448  1.0000
  S   S494      1.0  0.28229  0.43055  0.80734  1.0000
  S   S495      1.0  0.29593  0.46187  0.79910  1.0000
  C   C1406     1.0  0.26921  0.36900  0.91741  1.0000
  H   H1402     1.0  0.03252  0.41853  0.82527  1.0000
  H   H1403     1.0  0.20780  0.44726  0.80088  1.0000
  H   H1404     1.0  0.25820  0.36192  0.88885  1.0000
  H   H1405     1.0  0.31319  0.29081  0.92763  1.0000
  C   C1407     1.0  0.19842  0.45614  0.79600  1.0000
  C   C1408     1.0  0.24710  0.46074  0.78165  1.0000
  C   C1409     1.0  0.30232  0.28789  0.92845  1.0000
  C   C1410     1.0  0.13980  0.30629  0.90385  1.0000
  H   H1406     1.0  0.38349  0.38453  0.77725  1.0000
  H   H1407     1.0  0.17323  0.27577  0.80527  1.0000
  C   C1411     1.0  0.24772  0.44488  0.78717  1.0000
  C   C1412     1.0  0.30009  0.34917  0.80528  1.0000
  C   C1413     1.0  0.03825  0.41679  0.77562  1.0000
  H   H1408     1.0  0.25384  0.43841  0.79618  1.0000
  H   H1409     1.0  0.45217  0.44463  0.82569  1.0000
  H   H1410     1.0  0.29377  0.34031  0.81317  1.0000
  H   H1411     1.0  0.35139  0.33517  0.80884  1.0000
  C   C1414     1.0  0.33510  0.40531  0.76974  1.0000
  C   C1415     1.0  0.32387  0.46063  0.86233  1.0000
  C   C1416     1.0  0.31474  0.46242  0.85177  1.0000
  H   H1412     1.0  0.05742  0.40561  0.81059  1.0000
  H   H1413     1.0  0.24942  0.32114  0.96440  1.0000
  H   H1414     1.0  0.32750  0.44927  0.86931  1.0000
  H   H1415     1.0  0.31131  0.45249  0.85074  1.0000
  C   C1417     1.0  0.31218  0.38915  0.78725  1.0000
  H   H1416     1.0  0.11791  0.27882  0.79463  1.0000
  H   H1417     1.0  0.46883  0.44461  0.77752  1.0000
  H   H1418     1.0  0.32949  0.24011  0.88249  1.0000
  C   C1418     1.0  0.06593  0.25889  0.96156  1.0000
  H   H1419     1.0  0.03190  0.43594  0.78691  1.0000
  H   H1420     1.0  0.46847  0.39657  0.80522  1.0000
  C   C1419     1.0  0.16521  0.28394  0.79809  1.0000
  H   H1421     1.0  0.31697  0.26108  0.84157  1.0000
  C   C1420     1.0  0.45947  0.44850  0.81467  1.0000
  C   C1421     1.0  0.45921  0.44360  0.80171  1.0000
  H   H1422     1.0  0.00911  0.38883  0.81696  1.0000
  H   H1423     1.0  0.25678  0.28029  0.91959  1.0000
  H   H1424     1.0  0.25783  0.36450  0.94152  1.0000
  C   C1422     1.0  0.12332  0.27299  0.93025  1.0000
  H   H1425     1.0  0.34342  0.25303  0.84634  1.0000
  H   H1426     1.0  0.12245  0.35513  0.77478  1.0000
  H   H1427     1.0  0.40341  0.45264  0.86315  1.0000
  C   C1423     1.0  0.01206  0.42670  0.78927  1.0000
  H   H1428     1.0  0.15791  0.24287  0.78377  1.0000
  N   N123      1.0  0.15531  0.27566  0.79502  1.0000
  H   H1429     1.0  0.36021  0.41616  0.77473  1.0000
  H   H1430     1.0  0.13726  0.25319  0.83499  1.0000
  H   H1431     1.0  0.28554  0.36520  0.88174  1.0000
  C   C1424     1.0  0.14229  0.27987  0.90138  1.0000
  H   H1432     1.0  0.00484  0.42421  0.83060  1.0000
  C   C1425     1.0  0.26947  0.32687  0.94735  1.0000
  C   C1426     1.0  0.05783  0.24093  0.95221  1.0000
  S   S496      1.0  0.06037  0.30836  0.95981  1.0000
  H   H1433     1.0  0.23808  0.31513  0.94596  1.0000
  H   H1434     1.0  0.11097  0.23315  0.86006  1.0000
  C   C1427     1.0  0.13977  0.28188  0.79625  1.0000
  S   S497      1.0  0.33835  0.47094  0.87846  1.0000
  C   C1428     1.0  0.33616  0.32741  0.78312  1.0000
  C   C1429     1.0  0.01714  0.40516  0.77709  1.0000
  C   C1430     1.0  0.31411  0.40158  0.79197  1.0000
  C   C1431     1.0  0.32536  0.40989  0.78305  1.0000
  H   H1435     1.0  0.30930  0.28195  0.90614  1.0000
  C   C1432     1.0  0.01177  0.33071  0.96513  1.0000
  S   S498      1.0  0.08187  0.32809  0.96656  1.0000
  H   H1436     1.0  0.30684  0.40473  0.80249  1.0000
  C   C1433     1.0  0.28144  0.37324  0.88978  1.0000
  C   C1434     1.0  0.47895  0.45785  0.78643  1.0000
  C   C1435     1.0  0.01976  0.39224  0.81601  1.0000
  H   H1437     1.0  0.06282  0.23639  0.90065  1.0000
  H   H1438     1.0  0.33954  0.32186  0.77342  1.0000
  H   H1439     1.0  0.46959  0.46176  0.82358  1.0000
  S   S499      1.0  0.99994  0.38587  0.94982  1.0000
  H   H1440     1.0  0.35776  0.42548  0.79740  1.0000
  H   H1441     1.0  0.26715  0.28661  0.95247  1.0000
  C   C1436     1.0  0.13513  0.32856  0.80512  1.0000
  C   C1437     1.0  0.32720  0.34187  0.80777  1.0000
  C   C1438     1.0  0.47987  0.38824  0.80341  1.0000
  H   H1442     1.0  0.98811  0.41251  0.96361  1.0000
  C   C1439     1.0  0.10548  0.29145  0.89198  1.0000
  C   C1440     1.0  0.09720  0.28727  0.90714  1.0000
  C   C1441     1.0  0.09233  0.29783  0.91689  1.0000
  C   C1442     1.0  0.09553  0.31263  0.91139  1.0000
  C   C1443     1.0  0.10320  0.31699  0.89606  1.0000
  C   C1444     1.0  0.10821  0.30641  0.88640  1.0000
  H   H1443     1.0  0.09494  0.27575  0.91151  1.0000
  H   H1444     1.0  0.08629  0.29445  0.92869  1.0000
  H   H1445     1.0  0.10545  0.32852  0.89171  1.0000
  H   H1446     1.0  0.11395  0.30995  0.87456  1.0000
  H   H1447     1.0  0.23761  0.35322  0.91062  1.0000
  C   C1445     1.0  0.11097  0.32496  0.80244  1.0000
  C   C1446     1.0  0.12307  0.32066  0.81027  1.0000
  H   H1448     1.0  0.10167  0.31879  0.80647  1.0000
  H   H1449     1.0  0.12295  0.31134  0.82035  1.0000
  C   C1447     1.0  0.22935  0.29615  0.85483  1.0000
  C   C1448     1.0  0.22274  0.29590  0.87042  1.0000
  C   C1449     1.0  0.20787  0.29284  0.87680  1.0000
  C   C1450     1.0  0.19959  0.28999  0.86764  1.0000
  C   C1451     1.0  0.20650  0.28959  0.85223  1.0000
  C   C1452     1.0  0.22136  0.29262  0.84586  1.0000
  H   H1450     1.0  0.22886  0.29857  0.87743  1.0000
  H   H1451     1.0  0.20262  0.29304  0.88878  1.0000
  H   H1452     1.0  0.20031  0.28722  0.84513  1.0000
  H   H1453     1.0  0.22650  0.29265  0.83383  1.0000
  C   C1453     1.0  0.25680  0.31974  0.92650  1.0000
  C   C1454     1.0  0.24912  0.31851  0.94203  1.0000
  H   H1454     1.0  0.10235  0.25437  0.87416  1.0000
  C   C1455     1.0  0.39774  0.46414  0.85787  1.0000
  C   C1456     1.0  0.27723  0.32796  0.93185  1.0000
  C   C1457     1.0  0.27101  0.32422  0.92148  1.0000
  H   H1455     1.0  0.28208  0.45208  0.76972  1.0000
  C   C1458     1.0  0.12920  0.26179  0.92136  1.0000
  H   H1456     1.0  0.28796  0.33193  0.92782  1.0000
  H   H1457     1.0  0.27692  0.32539  0.90952  1.0000
  C   C1459     1.0  0.28796  0.36261  0.84602  1.0000
  C   C1460     1.0  0.27344  0.36688  0.85550  1.0000
  C   C1461     1.0  0.26747  0.38243  0.85674  1.0000
  C   C1462     1.0  0.27594  0.39377  0.84840  1.0000
  C   C1463     1.0  0.29030  0.38956  0.83864  1.0000
  C   C1464     1.0  0.29632  0.37401  0.83750  1.0000
  H   H1458     1.0  0.26684  0.35820  0.86188  1.0000
  H   H1459     1.0  0.25626  0.38571  0.86413  1.0000
  H   H1460     1.0  0.29693  0.39824  0.83223  1.0000
  H   H1461     1.0  0.30756  0.37082  0.83014  1.0000
  H   H1462     1.0  0.25969  0.26511  0.93649  1.0000
  C   C1465     1.0  0.03279  0.40892  0.82052  1.0000
  C   C1466     1.0  0.07697  0.25921  0.89656  1.0000
  C   C1467     1.0  0.29502  0.25089  0.87157  1.0000
  C   C1468     1.0  0.30752  0.25213  0.87657  1.0000
  H   H1463     1.0  0.37730  0.41479  0.79867  1.0000
  H   H1464     1.0  0.28436  0.27576  0.90809  1.0000
  H   H1465     1.0  0.04685  0.34730  0.95972  1.0000
  H   H1466     1.0  0.28546  0.26078  0.87002  1.0000
  H   H1467     1.0  0.29193  0.29298  0.95098  1.0000
  H   H1468     1.0  0.00187  0.40568  0.84250  1.0000
  C   C1469     1.0  0.34730  0.32768  0.79052  1.0000
  H   H1469     1.0  0.29932  0.43758  0.77192  1.0000
  N   N124      1.0  0.31642  0.34188  0.80017  1.0000
  H   H1470     1.0  0.17209  0.28948  0.78709  1.0000
  C   C1470     1.0  0.15765  0.23804  0.82482  1.0000
  C   C1471     1.0  0.07336  0.23577  0.89172  1.0000
  N   N125      1.0  0.01942  0.40436  0.82203  1.0000
  H   H1471     1.0  0.01307  0.39648  0.77440  1.0000
  H   H1472     1.0  0.12621  0.25055  0.92565  1.0000
  S   S500      1.0  0.40662  0.40030  0.77635  1.0000
  C   C1472     1.0  0.15277  0.25399  0.78699  1.0000
  H   H1473     1.0  0.12206  0.29642  0.93115  1.0000
  C   C1473     1.0  0.12259  0.34550  0.78465  1.0000
  C   C1474     1.0  0.37023  0.42603  0.79363  1.0000
  C   C1475     1.0  0.24023  0.43732  0.78115  1.0000
  C   C1476     1.0  0.27640  0.28548  0.94232  1.0000
  H   H1474     1.0  0.31214  0.33462  0.78210  1.0000
  C   C1477     1.0  0.25805  0.36273  0.90034  1.0000
  C   C1478     1.0  0.34282  0.33491  0.80297  1.0000
  C   C1479     1.0  0.46894  0.44833  0.78757  1.0000
  H   H1475     1.0  0.11573  0.27047  0.94148  1.0000
  H   H1476     1.0  0.29175  0.37362  0.89353  1.0000
  H   H1477     1.0  0.13459  0.29283  0.79978  1.0000
  H   H1478     1.0  0.99476  0.35967  0.94047  1.0000
  H   H1479     1.0  0.29217  0.46875  0.88875  1.0000
  C   C1480     1.0  0.31983  0.23923  0.87854  1.0000
  C   C1481     1.0  0.24625  0.35799  0.91257  1.0000
  H   H1480     1.0  0.01462  0.34996  0.93824  1.0000
  H   H1481     1.0  0.99510  0.41335  0.82475  1.0000
  C   C1482     1.0  0.25759  0.36434  0.92991  1.0000
  C   C1483     1.0  0.13138  0.23840  0.82417  1.0000
  H   H1482     1.0  0.27675  0.38504  0.88338  1.0000
  H   H1483     1.0  0.14979  0.28243  0.89013  1.0000
  C   C1484     1.0  0.12695  0.28761  0.92435  1.0000
  C   C1485     1.0  0.00262  0.34801  0.94250  1.0000
  H   H1484     1.0  0.29887  0.35825  0.81160  1.0000
  N   N126      1.0  0.27419  0.28116  0.93024  1.0000
  C   C1486     1.0  0.06294  0.27041  0.94857  1.0000
  H   H1485     1.0  0.13980  0.31013  0.89137  1.0000
  S   S501      1.0  0.05814  0.41682  0.77076  1.0000
  C   C1487     1.0  0.00677  0.41543  0.78595  1.0000
  H   H1486     1.0  0.29462  0.35497  0.79527  1.0000
  C   C1488     1.0  0.33957  0.24574  0.84143  1.0000
  H   H1487     1.0  0.14342  0.25660  0.89982  1.0000
  H   H1488     1.0  0.18710  0.45496  0.80398  1.0000
  H   H1489     1.0  0.06505  0.28175  0.94701  1.0000
  H   H1490     1.0  0.08298  0.26889  0.89066  1.0000
  C   C1489     1.0  0.11069  0.33740  0.78965  1.0000
  H   H1491     1.0  0.24961  0.28483  0.93806  1.0000
  H   H1492     1.0  0.48037  0.37897  0.81400  1.0000
  S   S502      1.0  0.17092  0.24649  0.82831  1.0000
  C   C1490     1.0  0.25555  0.32185  0.95249  1.0000
  H   H1493     1.0  0.03386  0.37540  0.80260  1.0000
  C   C1491     1.0  0.13484  0.34102  0.79233  1.0000
  H   H1494     1.0  0.13101  0.31519  0.90961  1.0000
  H   H1495     1.0  0.42723  0.46406  0.85678  1.0000
  H   H1496     1.0  0.15145  0.30580  0.90548  1.0000
  H   H1497     1.0  0.35939  0.32235  0.78651  1.0000
  C   C1492     1.0  0.02640  0.36487  0.95552  1.0000
  C   C1493     1.0  0.32067  0.33457  0.78815  1.0000
  C   C1494     1.0  0.29043  0.28904  0.94157  1.0000
  H   H1498     1.0  0.00078  0.34073  0.93572  1.0000
  N   N127      1.0  0.08196  0.24675  0.88805  1.0000
  N   N128      1.0  0.26940  0.36804  0.90287  1.0000
  H   H1499     1.0  0.30736  0.24402  0.83151  1.0000
  H   H1500     1.0  0.39244  0.44069  0.77597  1.0000
  S   S503      1.0  0.27664  0.33326  0.95962  1.0000
  H   H1501     1.0  0.14410  0.34723  0.78835  1.0000
  C   C1495     1.0  0.02779  0.42737  0.78411  1.0000
  C   C1496     1.0  0.03283  0.40585  0.77191  1.0000
  H   H1502     1.0  0.03111  0.36823  0.94330  1.0000
  C   C1497     1.0  0.25937  0.27756  0.93120  1.0000
  H   H1503     1.0  0.02347  0.32875  0.95814  1.0000
  H   H1504     1.0  0.37464  0.45980  0.86776  1.0000
  H   H1505     1.0  0.19870  0.45346  0.78493  1.0000
  H   H1506     1.0  0.24084  0.42500  0.78541  1.0000
  H   H1507     1.0  0.28527  0.23596  0.86446  1.0000
  C   C1498     1.0  0.03532  0.35305  0.96480  1.0000
  H   H1508     1.0  0.00411  0.43476  0.79596  1.0000
  N   N129      1.0  0.19944  0.32896  0.84490  1.0000
  C   C1499     1.0  0.18452  0.32726  0.84793  1.0000
  C   C1500     1.0  0.20899  0.32811  0.83074  1.0000
  C   C1501     1.0  0.17880  0.32461  0.83663  1.0000
  C   C1502     1.0  0.20369  0.32529  0.81923  1.0000
  C   C1503     1.0  0.18846  0.32360  0.82221  1.0000
  C   C1504     1.0  0.20494  0.33255  0.85664  1.0000
  H   H1509     1.0  0.17700  0.32773  0.85921  1.0000
  H   H1510     1.0  0.22092  0.32917  0.82843  1.0000
  H   H1511     1.0  0.16695  0.32332  0.83899  1.0000
  H   H1512     1.0  0.21137  0.32432  0.80812  1.0000
  H   H1513     1.0  0.18411  0.32147  0.81340  1.0000
  H   H1514     1.0  0.21780  0.32887  0.85489  1.0000
  H   H1515     1.0  0.20145  0.34520  0.85618  1.0000
  H   H1516     1.0  0.20011  0.32622  0.86833  1.0000
  C   C1505     1.0  0.24605  0.35881  0.92744  1.0000
  C   C1506     1.0  0.28593  0.27958  0.91753  1.0000
  H   H1517     1.0  0.47884  0.41575  0.80847  1.0000
  C   C1507     1.0  0.32458  0.25041  0.83871  1.0000
  C   C1508     1.0  0.47919  0.46275  0.79938  1.0000
  H   H1518     1.0  0.05815  0.38395  0.79920  1.0000
  C   C1509     1.0  0.31918  0.24084  0.83306  1.0000
  C   C1510     1.0  0.23885  0.46903  0.77016  1.0000
  C   C1511     1.0  0.06340  0.24415  0.96330  1.0000
  H   H1519     1.0  0.42772  0.46226  0.83763  1.0000
  H   H1520     1.0  0.12961  0.25357  0.78664  1.0000
  N   N130      1.0  0.20062  0.47192  0.79337  1.0000
  H   H1521     1.0  0.07927  0.31945  0.77557  1.0000
  C   C1512     1.0  0.07082  0.32602  0.76825  1.0000
  H   H1522     1.0  0.06025  0.32117  0.77241  1.0000
  H   H1523     1.0  0.36766  0.23575  0.84558  1.0000
  C   C1513     1.0  0.01128  0.37201  0.96192  1.0000
  C   C1514     1.0  0.10035  0.23380  0.86894  1.0000
  H   H1524     1.0  0.08566  0.43811  0.77117  1.0000
  C   C1515     1.0  0.36892  0.42287  0.76871  1.0000
  S   S504      1.0  0.43102  0.43216  0.76800  1.0000
  C   C1516     1.0  0.30972  0.47709  0.84293  1.0000
  C   C1517     1.0  0.38691  0.43660  0.76944  1.0000
  H   H1525     1.0  0.06730  0.33823  0.76969  1.0000
  N   N131      1.0  0.40633  0.47465  0.84880  1.0000
  C   C1518     1.0  0.42331  0.47008  0.84588  1.0000
  S   S505      1.0  0.31841  0.37030  0.76707  1.0000
  H   H1526     1.0  0.43770  0.58685  0.12583  1.0000
  S   S506      1.0  0.08214  0.64959  0.13333  1.0000
  H   H1527     1.0  0.18063  0.54765  0.07529  1.0000
  C   C1519     1.0  0.32016  0.69380  0.09278  1.0000
  H   H1528     1.0  0.36325  0.50534  0.97897  1.0000
  Fe  Fe255     1.0  0.00316  0.56361  0.11434  1.0000
  C   C1520     1.0  0.32190  0.48839  0.02958  1.0000
  S   S507      1.0  0.02547  0.56505  0.11913  1.0000
  S   S508      1.0  0.99660  0.65169  0.04822  1.0000
  S   S509      1.0  0.46204  0.48222  0.11290  1.0000
  C   C1521     1.0  0.02020  0.49234  0.07638  1.0000
  H   H1529     1.0  0.29315  0.66773  0.03613  1.0000
  H   H1530     1.0  0.26033  0.59279  0.11809  1.0000
  S   S510      1.0  0.00156  0.55636  0.09363  1.0000
  Fe  Fe256     1.0  0.31859  0.62035  0.12193  1.0000
  S   S511      1.0  0.29328  0.63159  0.12489  1.0000
  S   S512      1.0  0.33744  0.62821  0.12686  1.0000
  Fe  Fe257     1.0  0.31546  0.59323  0.11112  1.0000
  S   S513      1.0  0.28983  0.60191  0.11317  1.0000
  S   S514      1.0  0.32970  0.57086  0.10423  1.0000
  Fe  Fe258     1.0  0.29540  0.62529  0.10256  1.0000
  S   S515      1.0  0.28140  0.64174  0.08599  1.0000
  Fe  Fe259     1.0  0.28945  0.60752  0.13529  1.0000
  C   C1522     1.0  0.30132  0.52589  0.05393  1.0000
  S   S516      1.0  0.32121  0.61619  0.09845  1.0000
  S   S517      1.0  0.31464  0.59666  0.13443  1.0000
  N   N132      1.0  0.00185  0.49925  0.06024  1.0000
  Fe  Fe260     1.0  0.35189  0.50584  0.02988  1.0000
  S   S518      1.0  0.33480  0.52584  0.01951  1.0000
  H   H1531     1.0  0.11853  0.50165  0.11554  1.0000
  Fe  Fe261     1.0  0.37601  0.52475  0.02297  1.0000
  S   S519      1.0  0.40018  0.52459  0.02427  1.0000
  Fe  Fe262     1.0  0.34199  0.53973  0.03163  1.0000
  S   S520      1.0  0.32367  0.55781  0.04279  1.0000
  S   S521      1.0  0.35732  0.51928  0.04376  1.0000
  S   S522      1.0  0.37197  0.50943  0.00994  1.0000
  S   S523      1.0  0.36104  0.54627  0.01165  1.0000
  C   C1523     1.0  0.45042  0.60437  0.12272  1.0000
  S   S524      1.0  0.47908  0.60133  0.15375  1.0000
  C   C1524     1.0  0.18039  0.68847  0.01967  1.0000
  H   H1532     1.0  0.30215  0.70757  0.98816  1.0000
  N   N133      1.0  0.44990  0.61856  0.12508  1.0000
  Fe  Fe263     1.0  0.17122  0.49937  0.13619  1.0000
  S   S525      1.0  0.34780  0.48190  0.04141  1.0000
  C   C1525     1.0  0.45612  0.48479  0.16070  1.0000
  Fe  Fe264     1.0  0.17378  0.53345  0.12467  1.0000
  S   S526      1.0  0.19824  0.52799  0.12747  1.0000
  S   S527      1.0  0.16161  0.55817  0.11544  1.0000
  Fe  Fe265     1.0  0.20165  0.50759  0.11707  1.0000
  H   H1533     1.0  0.39855  0.56816  0.05701  1.0000
  C   C1526     1.0  0.21190  0.54420  0.08946  1.0000
  S   S528      1.0  0.17772  0.51404  0.11251  1.0000
  S   S529      1.0  0.16484  0.51931  0.14796  1.0000
  H   H1534     1.0  0.16302  0.57496  0.08122  1.0000
  C   C1527     1.0  0.43619  0.62728  0.13153  1.0000
  H   H1535     1.0  0.17474  0.57797  0.06180  1.0000
  S   S530      1.0  0.27884  0.71894  0.02730  1.0000
  H   H1536     1.0  0.40332  0.56231  0.03135  1.0000
  H   H1537     1.0  0.37031  0.58788  0.07538  1.0000
  H   H1538     1.0  0.43131  0.49653  0.12794  1.0000
  H   H1539     1.0  0.01316  0.69057  0.97295  1.0000
  H   H1540     1.0  0.17404  0.58978  0.07461  1.0000
  C   C1528     1.0  0.22392  0.61796  0.16310  1.0000
  C   C1529     1.0  0.30024  0.69879  0.99867  1.0000
  Fe  Fe266     1.0  0.11645  0.71976  0.99608  1.0000
  C   C1530     1.0  0.18871  0.67321  0.02312  1.0000
  H   H1541     1.0  0.21876  0.68004  0.03259  1.0000
  H   H1542     1.0  0.27301  0.49431  0.07097  1.0000
  H   H1543     1.0  0.29643  0.63377  0.15624  1.0000
  H   H1544     1.0  0.31379  0.69333  0.08475  1.0000
  S   S531      1.0  0.30975  0.70064  0.05299  1.0000
  S   S532      1.0  0.01339  0.71561  0.00137  1.0000
  C   C1531     1.0  0.09595  0.65450  0.13981  1.0000
  Fe  Fe267     1.0  0.20218  0.65953  0.07147  1.0000
  S   S533      1.0  0.18169  0.67757  0.06493  1.0000
  S   S534      1.0  0.22669  0.66119  0.05994  1.0000
  Fe  Fe268     1.0  0.18271  0.63941  0.09673  1.0000
  S   S535      1.0  0.16037  0.65610  0.09282  1.0000
  S   S536      1.0  0.18615  0.61669  0.11438  1.0000
  Fe  Fe269     1.0  0.17137  0.65734  0.06775  1.0000
  S   S537      1.0  0.15947  0.65492  0.05070  1.0000
  Fe  Fe270     1.0  0.17254  0.67509  0.09042  1.0000
  S   S538      1.0  0.16005  0.69678  0.09970  1.0000
  S   S539      1.0  0.19290  0.63942  0.07180  1.0000
  S   S540      1.0  0.19387  0.65832  0.09674  1.0000
  H   H1545     1.0  0.29386  0.61431  0.16527  1.0000
  C   C1532     1.0  0.31710  0.66578  0.14601  1.0000
  H   H1546     1.0  0.03818  0.53542  0.11078  1.0000
  C   C1533     1.0  0.04577  0.49155  0.12872  1.0000
  H   H1547     1.0  0.06939  0.49293  0.12634  1.0000
  H   H1548     1.0  0.00260  0.62555  0.07276  1.0000
  Fe  Fe271     1.0  0.98694  0.54038  0.11036  1.0000
  H   H1549     1.0  0.13415  0.55781  0.15462  1.0000
  S   S541      1.0  0.19554  0.49172  0.13982  1.0000
  H   H1550     1.0  0.26252  0.61771  0.09930  1.0000
  H   H1551     1.0  0.02379  0.70071  0.04874  1.0000
  C   C1534     1.0  0.28883  0.69052  0.00106  1.0000
  H   H1552     1.0  0.28201  0.69290  0.99247  1.0000
  C   C1535     1.0  0.42316  0.60693  0.13439  1.0000
  H   H1553     1.0  0.14511  0.69389  0.13708  1.0000
  C   C1536     1.0  0.39154  0.56587  0.03765  1.0000
  C   C1537     1.0  0.11709  0.47858  0.12880  1.0000
  H   H1554     1.0  0.39734  0.51546  0.10454  1.0000
  H   H1555     1.0  0.00034  0.58990  0.12910  1.0000
  H   H1556     1.0  0.21774  0.56310  0.09449  1.0000
  S   S542      1.0  0.00870  0.67280  0.00645  1.0000
  H   H1557     1.0  0.46404  0.63283  0.10852  1.0000
  N   N134      1.0  0.03124  0.49949  0.12670  1.0000
  S   S543      1.0  0.10156  0.47807  0.12154  1.0000
  H   H1558     1.0  0.43196  0.53155  0.05511  1.0000
  H   H1559     1.0  0.27715  0.67305  0.01680  1.0000
  C   C1538     1.0  0.33154  0.47756  0.03872  1.0000
  H   H1560     1.0  0.05419  0.69478  0.02366  1.0000
  H   H1561     1.0  0.04801  0.47919  0.13356  1.0000
  H   H1562     1.0  0.01713  0.52124  0.11821  1.0000
  C   C1539     1.0  0.06544  0.69660  0.98680  1.0000
  C   C1540     1.0  0.05974  0.71122  0.99044  1.0000
  C   C1541     1.0  0.15572  0.55738  0.15982  1.0000
  C   C1542     1.0  0.03332  0.70852  0.99485  1.0000
  C   C1543     1.0  0.03899  0.69423  0.99049  1.0000
  C   C1544     1.0  0.05501  0.68814  0.98675  1.0000
  C   C1545     1.0  0.04376  0.71707  0.99466  1.0000
  C   C1546     1.0  0.02854  0.51501  0.12015  1.0000
  H   H1563     1.0  0.03113  0.68784  0.98994  1.0000
  H   H1564     1.0  0.15326  0.63382  0.12510  1.0000
  C   C1547     1.0  0.14934  0.67272  0.04156  1.0000
  C   C1548     1.0  0.14365  0.67345  0.02878  1.0000
  C   C1549     1.0  0.13675  0.68782  0.02052  1.0000
  C   C1550     1.0  0.13565  0.70147  0.02502  1.0000
  C   C1551     1.0  0.14102  0.70069  0.03800  1.0000
  C   C1552     1.0  0.14775  0.68633  0.04633  1.0000
  H   H1565     1.0  0.14482  0.66293  0.02509  1.0000
  H   H1566     1.0  0.13260  0.68836  0.01052  1.0000
  H   H1567     1.0  0.14006  0.71121  0.04158  1.0000
  H   H1568     1.0  0.15182  0.68584  0.05634  1.0000
  C   C1553     1.0  0.23304  0.71020  0.05324  1.0000
  C   C1554     1.0  0.21886  0.70631  0.06136  1.0000
  C   C1555     1.0  0.21707  0.69109  0.06399  1.0000
  C   C1556     1.0  0.22937  0.67976  0.05830  1.0000
  C   C1557     1.0  0.24361  0.68356  0.05041  1.0000
  C   C1558     1.0  0.24547  0.69874  0.04796  1.0000
  H   H1569     1.0  0.15785  0.56729  0.15061  1.0000
  H   H1570     1.0  0.20611  0.68821  0.07032  1.0000
  H   H1571     1.0  0.25318  0.67480  0.04609  1.0000
  H   H1572     1.0  0.25643  0.70157  0.04176  1.0000
  C   C1559     1.0  0.17412  0.57786  0.07397  1.0000
  C   C1560     1.0  0.40806  0.53378  0.06720  1.0000
  C   C1561     1.0  0.18081  0.69653  0.14940  1.0000
  C   C1562     1.0  0.38875  0.56913  0.05220  1.0000
  N   N135      1.0  0.37392  0.57265  0.06059  1.0000
  H   H1573     1.0  0.14152  0.50224  0.12426  1.0000
  H   H1574     1.0  0.33459  0.49260  0.98574  1.0000
  C   C1563     1.0  0.16857  0.57431  0.11531  1.0000
  C   C1564     1.0  0.18047  0.57267  0.12265  1.0000
  C   C1565     1.0  0.18576  0.58576  0.12225  1.0000
  C   C1566     1.0  0.17959  0.60049  0.11407  1.0000
  C   C1567     1.0  0.16791  0.60208  0.10644  1.0000
  C   C1568     1.0  0.16215  0.58911  0.10742  1.0000
  H   H1575     1.0  0.18547  0.56138  0.12883  1.0000
  H   H1576     1.0  0.19471  0.58446  0.12828  1.0000
  H   H1577     1.0  0.16299  0.61339  0.10018  1.0000
  H   H1578     1.0  0.15276  0.59057  0.10192  1.0000
  S   S544      1.0  0.41038  0.53995  0.08259  1.0000
  C   C1569     1.0  0.15503  0.69439  0.14091  1.0000
  C   C1570     1.0  0.03686  0.59144  0.14117  1.0000
  C   C1571     1.0  0.01869  0.49120  0.13088  1.0000
  H   H1579     1.0  0.46116  0.59768  0.11716  1.0000
  N   N136      1.0  0.16813  0.68281  0.13987  1.0000
  H   H1580     1.0  0.99876  0.60910  0.14383  1.0000
  S   S545      1.0  0.16376  0.63074  0.15405  1.0000
  C   C1572     1.0  0.48086  0.57208  0.13323  1.0000
  C   C1573     1.0  0.39739  0.49364  0.12099  1.0000
  S   S546      1.0  0.99053  0.54611  0.13105  1.0000
  C   C1574     1.0  0.40339  0.50345  0.10752  1.0000
  Fe  Fe272     1.0  0.43454  0.53468  0.08674  1.0000
  H   H1581     1.0  0.42762  0.52554  0.03235  1.0000
  C   C1575     1.0  0.36159  0.57400  0.05445  1.0000
  H   H1582     1.0  0.99804  0.48068  0.05323  1.0000
  C   C1576     1.0  0.02275  0.60168  0.14534  1.0000
  H   H1583     1.0  0.46251  0.56077  0.14732  1.0000
  Fe  Fe273     1.0  0.35525  0.53049  0.00040  1.0000
  C   C1577     1.0  0.46917  0.56407  0.13576  1.0000
  H   H1584     1.0  0.99735  0.51493  0.03956  1.0000
  C   C1578     1.0  0.20984  0.55967  0.08997  1.0000
  H   H1585     1.0  0.26830  0.63609  0.15519  1.0000
  C   C1579     1.0  0.30157  0.68452  0.06247  1.0000
  C   C1580     1.0  0.28628  0.68487  0.06246  1.0000
  C   C1581     1.0  0.28012  0.67165  0.06960  1.0000
  C   C1582     1.0  0.28913  0.65822  0.07705  1.0000
  C   C1583     1.0  0.30432  0.65800  0.07723  1.0000
  C   C1584     1.0  0.31060  0.67106  0.06977  1.0000
  H   H1586     1.0  0.27919  0.69527  0.05696  1.0000
  H   H1587     1.0  0.26832  0.67189  0.06955  1.0000
  H   H1588     1.0  0.31133  0.64769  0.08291  1.0000
  H   H1589     1.0  0.32248  0.67069  0.06966  1.0000
  C   C1585     1.0  0.20796  0.68250  0.02898  1.0000
  C   C1586     1.0  0.25022  0.62561  0.14136  1.0000
  C   C1587     1.0  0.23538  0.63437  0.13983  1.0000
  S   S547      1.0  0.13066  0.66802  0.15754  1.0000
  C   C1588     1.0  0.37904  0.56632  0.03170  1.0000
  C   C1589     1.0  0.18895  0.55116  0.07916  1.0000
  H   H1590     1.0  0.26027  0.62856  0.13283  1.0000
  H   H1591     1.0  0.23409  0.64406  0.13014  1.0000
  C   C1590     1.0  0.42052  0.53076  0.05494  1.0000
  H   H1592     1.0  0.35657  0.63625  0.14135  1.0000
  C   C1591     1.0  0.32741  0.56702  0.08754  1.0000
  C   C1592     1.0  0.33663  0.55363  0.08248  1.0000
  C   C1593     1.0  0.33560  0.55067  0.06875  1.0000
  C   C1594     1.0  0.32520  0.56102  0.06012  1.0000
  C   C1595     1.0  0.31586  0.57430  0.06529  1.0000
  C   C1596     1.0  0.31703  0.57736  0.07891  1.0000
  H   H1593     1.0  0.34473  0.54563  0.08910  1.0000
  H   H1594     1.0  0.34289  0.54044  0.06487  1.0000
  H   H1595     1.0  0.30781  0.58235  0.05864  1.0000
  H   H1596     1.0  0.30995  0.58775  0.08269  1.0000
  H   H1597     1.0  0.19044  0.54674  0.16320  1.0000
  C   C1597     1.0  0.00443  0.48405  0.05952  1.0000
  C   C1598     1.0  0.25007  0.60192  0.11677  1.0000
  C   C1599     1.0  0.46392  0.62484  0.11997  1.0000
  C   C1600     1.0  0.45653  0.50997  0.14497  1.0000
  H   H1598     1.0  0.47462  0.61545  0.11917  1.0000
  H   H1599     1.0  0.41385  0.48762  0.15241  1.0000
  H   H1600     1.0  0.23460  0.58918  0.13444  1.0000
  C   C1601     1.0  0.00742  0.55706  0.16058  1.0000
  C   C1602     1.0  0.99118  0.51111  0.05160  1.0000
  H   H1601     1.0  0.34983  0.57745  0.06082  1.0000
  H   H1602     1.0  0.36036  0.57213  0.08352  1.0000
  C   C1603     1.0  0.41803  0.52743  0.04203  1.0000
  C   C1604     1.0  0.20139  0.53989  0.08404  1.0000
  N   N137      1.0  0.32814  0.70879  0.10547  1.0000
  H   H1603     1.0  0.20920  0.71506  0.06556  1.0000
  C   C1605     1.0  0.47488  0.56446  0.10855  1.0000
  C   C1606     1.0  0.19738  0.57069  0.08480  1.0000
  H   H1604     1.0  0.25650  0.71828  0.98429  1.0000
  C   C1607     1.0  0.46609  0.56034  0.12343  1.0000
  H   H1605     1.0  0.19111  0.69745  0.15226  1.0000
  H   H1606     1.0  0.48333  0.57462  0.14286  1.0000
  H   H1607     1.0  0.06757  0.71801  0.99033  1.0000
  H   H1608     1.0  0.16956  0.69095  0.01606  1.0000
  N   N138      1.0  0.42509  0.48264  0.10169  1.0000
  C   C1608     1.0  0.04042  0.52308  0.11586  1.0000
  H   H1609     1.0  0.19140  0.67467  0.14282  1.0000
  H   H1610     1.0  0.19577  0.58267  0.08542  1.0000
  C   C1609     1.0  0.14221  0.55215  0.16212  1.0000
  C   C1610     1.0  0.35841  0.50988  0.96883  1.0000
  H   H1611     1.0  0.31342  0.68239  0.03113  1.0000
  H   H1612     1.0  0.40989  0.66751  0.15797  1.0000
  C   C1611     1.0  0.34548  0.64440  0.14275  1.0000
  C   C1612     1.0  0.33352  0.64283  0.13710  1.0000
  C   C1613     1.0  0.31923  0.65346  0.13885  1.0000
  C   C1614     1.0  0.30762  0.49422  0.06601  1.0000
  H   H1613     1.0  0.00736  0.49862  0.13526  1.0000
  H   H1614     1.0  0.32273  0.52586  0.05904  1.0000
  H   H1615     1.0  0.31007  0.65251  0.13423  1.0000
  H   H1616     1.0  0.30146  0.49311  0.02059  1.0000
  S   S548      1.0  0.27061  0.60261  0.15635  1.0000
  C   C1615     1.0  0.12351  0.49176  0.12356  1.0000
  H   H1617     1.0  0.12130  0.63931  0.16363  1.0000
  S   S549      1.0  0.47336  0.52249  0.10034  1.0000
  H   H1618     1.0  0.24757  0.48569  0.07788  1.0000
  C   C1616     1.0  0.39324  0.53289  0.06678  1.0000
  C   C1617     1.0  0.39076  0.52954  0.05388  1.0000
  C   C1618     1.0  0.40312  0.52706  0.04134  1.0000
  H   H1619     1.0  0.38353  0.53528  0.07623  1.0000
  H   H1620     1.0  0.37922  0.52943  0.05343  1.0000
  H   H1621     1.0  0.21123  0.61047  0.13150  1.0000
  H   H1622     1.0  0.38110  0.56316  0.02073  1.0000
  S   S550      1.0  0.43592  0.52462  0.11142  1.0000
  H   H1623     1.0  0.32896  0.72327  0.11955  1.0000
  C   C1619     1.0  0.32863  0.72389  0.10749  1.0000
  C   C1620     1.0  0.05792  0.49926  0.12459  1.0000
  C   C1621     1.0  0.30888  0.48472  0.02771  1.0000
  C   C1622     1.0  0.24018  0.64260  0.09442  1.0000
  H   H1624     1.0  0.43570  0.63865  0.13317  1.0000
  Fe  Fe274     1.0  0.46910  0.53311  0.07661  1.0000
  Fe  Fe275     1.0  0.48365  0.62458  0.15169  1.0000
  H   H1625     1.0  0.14421  0.71662  0.14683  1.0000
  C   C1623     1.0  0.16996  0.70829  0.10420  1.0000
  C   C1624     1.0  0.18556  0.70312  0.10507  1.0000
  C   C1625     1.0  0.19258  0.71187  0.11029  1.0000
  H   H1626     1.0  0.21722  0.70690  0.02844  1.0000
  S   S551      1.0  0.37063  0.68316  0.15574  1.0000
  H   H1627     1.0  0.19212  0.69220  0.10211  1.0000
  H   H1628     1.0  0.20454  0.70758  0.11128  1.0000
  H   H1629     1.0  0.44641  0.48582  0.08604  1.0000
  C   C1626     1.0  0.29118  0.51677  0.05456  1.0000
  C   C1627     1.0  0.37123  0.57543  0.07605  1.0000
  H   H1630     1.0  0.38078  0.56827  0.08187  1.0000
  N   N139      1.0  0.19952  0.69740  0.02596  1.0000
  C   C1628     1.0  0.18582  0.70047  0.02147  1.0000
  Fe  Fe276     1.0  0.29237  0.72065  0.04319  1.0000
  H   H1631     1.0  0.32831  0.66896  0.09901  1.0000
  H   H1632     1.0  0.40547  0.72681  0.14127  1.0000
  H   H1633     1.0  0.34242  0.69595  0.12149  1.0000
  C   C1629     1.0  0.20463  0.71005  0.02847  1.0000
  H   H1634     1.0  0.17890  0.71221  0.01940  1.0000
  H   H1635     1.0  0.28072  0.52227  0.05021  1.0000
  H   H1636     1.0  0.19814  0.71274  0.03983  1.0000
  Fe  Fe277     1.0  0.45689  0.50783  0.10216  1.0000
  H   H1637     1.0  0.11197  0.68502  0.13551  1.0000
  H   H1638     1.0  0.38670  0.49801  0.12863  1.0000
  Fe  Fe278     1.0  0.06751  0.63558  0.15262  1.0000
  C   C1630     1.0  0.16165  0.72254  0.10803  1.0000
  C   C1631     1.0  0.23562  0.59985  0.12591  1.0000
  C   C1632     1.0  0.20261  0.67017  0.02778  1.0000
  H   H1639     1.0  0.20264  0.72063  0.01928  1.0000
  H   H1640     1.0  0.22886  0.65043  0.09284  1.0000
  S   S552      1.0  0.45074  0.55121  0.12679  1.0000
  H   H1641     1.0  0.31038  0.48180  0.07053  1.0000
  C   C1633     1.0  0.47863  0.48853  0.13951  1.0000
  N   N140      1.0  0.11989  0.61326  0.13214  1.0000
  C   C1634     1.0  0.13183  0.60632  0.13954  1.0000
  C   C1635     1.0  0.12002  0.62712  0.12177  1.0000
  C   C1636     1.0  0.14398  0.61362  0.13715  1.0000
  C   C1637     1.0  0.13191  0.63482  0.11922  1.0000
  C   C1638     1.0  0.14392  0.62802  0.12701  1.0000
  C   C1639     1.0  0.10709  0.60555  0.13517  1.0000
  H   H1642     1.0  0.13190  0.59518  0.14753  1.0000
  H   H1643     1.0  0.11061  0.63264  0.11582  1.0000
  H   H1644     1.0  0.15341  0.60811  0.14310  1.0000
  N   N141      1.0  0.29442  0.50114  0.06053  1.0000
  Fe  Fe279     1.0  0.45209  0.54011  0.10759  1.0000
  H   H1645     1.0  0.10351  0.60069  0.14773  1.0000
  H   H1646     1.0  0.09670  0.61386  0.13155  1.0000
  H   H1647     1.0  0.11068  0.59606  0.12883  1.0000
  C   C1640     1.0  0.98683  0.49058  0.10216  1.0000
  S   S553      1.0  0.35215  0.53869  0.97577  1.0000
  C   C1641     1.0  0.42486  0.48009  0.14867  1.0000
  S   S554      1.0  0.08548  0.68864  0.98288  1.0000
  H   H1648     1.0  0.33144  0.69982  0.00064  1.0000
  H   H1649     1.0  0.28847  0.47930  0.06384  1.0000
  S   S555      1.0  0.46579  0.64698  0.15081  1.0000
  C   C1642     1.0  0.43486  0.48525  0.13486  1.0000
  C   C1643     1.0  0.30649  0.68479  0.02266  1.0000
  C   C1644     1.0  0.43455  0.65854  0.15564  1.0000
  H   H1650     1.0  0.18420  0.66375  0.02247  1.0000
  C   C1645     1.0  0.41730  0.49770  0.09790  1.0000
  Fe  Fe280     1.0  0.09776  0.70673  0.98242  1.0000
  H   H1651     1.0  0.21396  0.63498  0.11312  1.0000
  S   S556      1.0  0.09166  0.71788  0.00262  1.0000
  C   C1646     1.0  0.18092  0.68373  0.14401  1.0000
  H   H1652     1.0  0.31632  0.71737  0.00064  1.0000
  C   C1647     1.0  0.15448  0.70730  0.14637  1.0000
  H   H1653     1.0  0.22145  0.53545  0.09350  1.0000
  H   H1654     1.0  0.16746  0.71864  0.15420  1.0000
  H   H1655     1.0  0.17541  0.67231  0.12086  1.0000
  H   H1656     1.0  0.32449  0.49953  0.02383  1.0000
  C   C1648     1.0  0.10982  0.67344  0.13963  1.0000
  C   C1649     1.0  0.11785  0.66258  0.15023  1.0000
  H   H1657     1.0  0.29888  0.53829  0.04909  1.0000
  S   S557      1.0  0.12850  0.71969  0.01413  1.0000
  C   C1650     1.0  0.13649  0.49213  0.12849  1.0000
  H   H1658     1.0  0.34310  0.67052  0.11699  1.0000
  H   H1659     1.0  0.41275  0.60233  0.13819  1.0000
  C   C1651     1.0  0.34332  0.65658  0.14998  1.0000
  N   N142      1.0  0.30860  0.69615  0.00960  1.0000
  H   H1660     1.0  0.05810  0.64769  0.02206  1.0000
  C   C1652     1.0  0.41540  0.64273  0.16610  1.0000
  H   H1661     1.0  0.09300  0.67771  0.12591  1.0000
  H   H1662     1.0  0.10182  0.63212  0.15452  1.0000
  N   N143      1.0  0.03334  0.68637  0.03250  1.0000
  C   C1653     1.0  0.02666  0.67398  0.03569  1.0000
  C   C1654     1.0  0.04885  0.68500  0.02613  1.0000
  C   C1655     1.0  0.03546  0.65989  0.03200  1.0000
  H   H1663     1.0  0.04859  0.57247  0.12971  1.0000
  C   C1656     1.0  0.05120  0.65849  0.02515  1.0000
  C   C1657     1.0  0.02394  0.70096  0.03666  1.0000
  H   H1664     1.0  0.01442  0.67496  0.04099  1.0000
  C   C1658     1.0  0.23884  0.60947  0.16490  1.0000
  S   S558      1.0  0.06651  0.61107  0.15431  1.0000
  C   C1659     1.0  0.22218  0.63038  0.15049  1.0000
  C   C1660     1.0  0.28614  0.67938  0.01466  1.0000
  H   H1665     1.0  0.00735  0.51548  0.06932  1.0000
  S   S559      1.0  0.20381  0.64080  0.14721  1.0000
  N   N144      1.0  0.46330  0.49454  0.14847  1.0000
  H   H1666     1.0  0.02999  0.65018  0.03438  1.0000
  N   N145      1.0  0.18717  0.56635  0.07943  1.0000
  C   C1661     1.0  0.36393  0.57058  0.04006  1.0000
  H   H1667     1.0  0.01185  0.70291  0.03536  1.0000
  C   C1662     1.0  0.10398  0.64365  0.15043  1.0000
  C   C1663     1.0  0.05799  0.67109  0.02226  1.0000
  H   H1668     1.0  0.14958  0.72662  0.10737  1.0000
  H   H1669     1.0  0.20278  0.52784  0.08380  1.0000
  H   H1670     1.0  0.47254  0.56163  0.09896  1.0000
  H   H1671     1.0  0.24636  0.64849  0.09901  1.0000
  H   H1672     1.0  0.24708  0.64088  0.08283  1.0000
  H   H1673     1.0  0.02069  0.48058  0.14005  1.0000
  C   C1664     1.0  0.28331  0.49197  0.06156  1.0000
  C   C1665     1.0  0.22254  0.61173  0.12428  1.0000
  H   H1674     1.0  0.18029  0.56671  0.15795  1.0000
  Fe  Fe281     1.0  0.99894  0.69799  0.00634  1.0000
  C   C1666     1.0  0.22865  0.48178  0.09729  1.0000
  C   C1667     1.0  0.01057  0.59032  0.13228  1.0000
  S   S560      1.0  0.02038  0.61409  0.15770  1.0000
  H   H1675     1.0  0.02854  0.71104  0.02888  1.0000
  H   H1676     1.0  0.99286  0.60135  0.08286  1.0000
  C   C1668     1.0  0.02453  0.57981  0.12839  1.0000
  H   H1677     1.0  0.04698  0.59167  0.14478  1.0000
  C   C1669     1.0  0.99210  0.56563  0.16233  1.0000
  C   C1670     1.0  0.05519  0.51514  0.11818  1.0000
  N   N146      1.0  0.23837  0.62767  0.10484  1.0000
  H   H1678     1.0  0.05928  0.67680  0.98400  1.0000
  Fe  Fe282     1.0  0.18963  0.51256  0.14989  1.0000
  C   C1671     1.0  0.16905  0.66999  0.13297  1.0000
  C   C1672     1.0  0.33624  0.69549  0.11327  1.0000
  H   H1679     1.0  0.31412  0.71861  0.08876  1.0000
  C   C1673     1.0  0.16750  0.70841  0.15053  1.0000
  C   C1674     1.0  0.03773  0.58054  0.13269  1.0000
  C   C1675     1.0  0.00970  0.60122  0.14066  1.0000
  S   S561      1.0  0.45457  0.51674  0.07757  1.0000
  C   C1676     1.0  0.25124  0.61600  0.10621  1.0000
  C   C1677     1.0  0.31806  0.50297  0.06545  1.0000
  C   C1678     1.0  0.99428  0.62362  0.06765  1.0000
  H   H1680     1.0  0.27953  0.49481  0.05050  1.0000
  C   C1679     1.0  0.00963  0.50349  0.06846  1.0000
  C   C1680     1.0  0.33659  0.68103  0.11087  1.0000
  H   H1681     1.0  0.35409  0.57101  0.03555  1.0000
  C   C1681     1.0  0.22414  0.62566  0.11369  1.0000
  Fe  Fe283     1.0  0.04089  0.61872  0.16331  1.0000
  S   S562      1.0  0.22279  0.50146  0.09858  1.0000
  S   S563      1.0  0.12334  0.70617  0.97746  1.0000
  S   S564      1.0  0.99276  0.51490  0.10942  1.0000
  H   H1682     1.0  0.06451  0.52126  0.11495  1.0000
  H   H1683     1.0  0.32878  0.49737  0.06933  1.0000
  C   C1682     1.0  0.32834  0.68017  0.10071  1.0000
  H   H1684     1.0  0.42185  0.50542  0.08742  1.0000
  C   C1683     1.0  0.32919  0.66740  0.15148  1.0000
  C   C1684     1.0  0.25199  0.61317  0.15393  1.0000
  Fe  Fe284     1.0  0.99115  0.67572  0.99281  1.0000
  H   H1685     1.0  0.41182  0.62844  0.14171  1.0000
  H   H1686     1.0  0.15739  0.66865  0.13313  1.0000
  H   H1687     1.0  0.17525  0.65891  0.13916  1.0000
  H   H1688     1.0  0.13160  0.64610  0.11146  1.0000
  S   S565      1.0  0.44879  0.55198  0.08374  1.0000
  C   C1685     1.0  0.42263  0.62158  0.13635  1.0000
  H   H1689     1.0  0.01124  0.54785  0.15428  1.0000
  H   H1690     1.0  0.01786  0.48772  0.12063  1.0000
  C   C1686     1.0  0.09908  0.66932  0.13422  1.0000
  C   C1687     1.0  0.43713  0.59826  0.12749  1.0000
  C   C1688     1.0  0.31478  0.51891  0.05949  1.0000
  C   C1689     1.0  0.98927  0.63472  0.05519  1.0000
  S   S566      1.0  0.04176  0.64372  0.15915  1.0000
  H   H1691     1.0  0.30619  0.67421  0.14705  1.0000
  H   H1692     1.0  0.07019  0.67024  0.01674  1.0000
  C   C1690     1.0  0.29510  0.67638  0.02549  1.0000
  C   C1691     1.0  0.11513  0.64761  0.15542  1.0000
  Fe  Fe285     1.0  0.98962  0.66855  0.02719  1.0000
  C   C1692     1.0  0.32011  0.70533  0.00714  1.0000
  H   H1693     1.0  0.46441  0.63128  0.12830  1.0000
  H   H1694     1.0  0.99528  0.48344  0.10877  1.0000
  H   H1695     1.0  0.43738  0.66976  0.15044  1.0000
  C   C1693     1.0  0.43434  0.50597  0.16565  1.0000
  H   H1696     1.0  0.43649  0.52811  0.15037  1.0000
  C   C1694     1.0  0.44191  0.51590  0.15341  1.0000
  H   H1697     1.0  0.35273  0.65777  0.15410  1.0000
  H   H1698     1.0  0.02595  0.49569  0.08328  1.0000
  H   H1699     1.0  0.20908  0.65834  0.03077  1.0000
  C   C1695     1.0  0.32033  0.70810  0.09518  1.0000
  S   S567      1.0  0.16001  0.47875  0.14425  1.0000
  C   C1696     1.0  0.14305  0.47932  0.13873  1.0000
  C   C1697     1.0  0.01795  0.56098  0.16632  1.0000
  H   H1700     1.0  0.03000  0.55482  0.16452  1.0000
  S   S568      1.0  0.32693  0.68342  0.15937  1.0000
  C   C1698     1.0  0.44644  0.64529  0.15774  1.0000
  H   H1701     1.0  0.46235  0.51781  0.13552  1.0000
  H   H1702     1.0  0.35188  0.48909  0.00391  1.0000
  Fe  Fe286     1.0  0.18229  0.63400  0.16354  1.0000
  H   H1703     1.0  0.48030  0.49517  0.12736  1.0000
  C   C1699     1.0  0.26598  0.72394  0.97812  1.0000
  H   H1704     1.0  0.06687  0.66741  0.16606  1.0000
  C   C1700     1.0  0.98871  0.60993  0.07343  1.0000
  S   S569      1.0  0.99789  0.66814  0.97041  1.0000
  H   H1705     1.0  0.98611  0.52132  0.05700  1.0000
  S   S570      1.0  0.37770  0.72047  0.16398  1.0000
  H   H1706     1.0  0.32157  0.70640  0.01831  1.0000
  C   C1701     1.0  0.44273  0.63082  0.16454  1.0000
  H   H1707     1.0  0.00446  0.64451  0.16031  1.0000
  C   C1702     1.0  0.18415  0.72595  0.11444  1.0000
  C   C1703     1.0  0.41901  0.65728  0.15991  1.0000
  H   H1708     1.0  0.42466  0.72423  0.15639  1.0000
  H   H1709     1.0  0.31233  0.48399  0.98353  1.0000
  C   C1704     1.0  0.33287  0.48110  0.99187  1.0000
  C   C1705     1.0  0.40527  0.47821  0.12463  1.0000
  H   H1710     1.0  0.45178  0.62061  0.16657  1.0000
  H   H1711     1.0  0.00606  0.66744  0.22344  1.0000
  C   C1706     1.0  0.45772  0.60277  0.21544  1.0000
  C   C1707     1.0  0.37573  0.60044  0.35101  1.0000
  C   C1708     1.0  0.47665  0.60144  0.34752  1.0000
  C   C1709     1.0  0.46583  0.51556  0.27473  1.0000
  H   H1712     1.0  0.19021  0.57051  0.27931  1.0000
  C   C1710     1.0  0.17365  0.47915  0.30546  1.0000
  C   C1711     1.0  0.17153  0.47945  0.19812  1.0000
  H   H1713     1.0  0.33002  0.69537  0.26943  1.0000
  H   H1714     1.0  0.41809  0.57121  0.36267  1.0000
  C   C1712     1.0  0.99781  0.65912  0.17676  1.0000
  C   C1713     1.0  0.01594  0.67354  0.26792  1.0000
  C   C1714     1.0  0.30502  0.48019  0.36095  1.0000
  N   N147      1.0  0.21533  0.59386  0.26052  1.0000
  Fe  Fe287     1.0  0.43804  0.59516  0.30131  1.0000
  S   S571      1.0  0.42337  0.61225  0.31570  1.0000
  S   S572      1.0  0.42857  0.58291  0.28945  1.0000
  C   C1715     1.0  0.24673  0.64282  0.18987  1.0000
  C   C1716     1.0  0.33639  0.64319  0.35244  1.0000
  H   H1715     1.0  0.23104  0.60881  0.25533  1.0000
  H   H1716     1.0  0.47354  0.60543  0.29864  1.0000
  Fe  Fe288     1.0  0.10562  0.72280  0.33989  1.0000
  H   H1717     1.0  0.45107  0.61457  0.21324  1.0000
  C   C1717     1.0  0.13537  0.58933  0.18085  1.0000
  Fe  Fe289     1.0  0.06834  0.60789  0.17872  1.0000
  S   S573      1.0  0.07096  0.63195  0.17638  1.0000
  S   S574      1.0  0.08476  0.58667  0.18866  1.0000
  Fe  Fe290     1.0  0.04511  0.63803  0.18325  1.0000
  S   S575      1.0  0.03166  0.65599  0.19725  1.0000
  S   S576      1.0  0.46530  0.56773  0.27501  1.0000
  S   S577      1.0  0.04251  0.61349  0.18808  1.0000
  C   C1718     1.0  0.41620  0.58356  0.35783  1.0000
  Fe  Fe291     1.0  0.06228  0.70470  0.26968  1.0000
  S   S578      1.0  0.47675  0.48533  0.27248  1.0000
  S   S579      1.0  0.07488  0.69260  0.28882  1.0000
  Fe  Fe292     1.0  0.06194  0.69875  0.23905  1.0000
  C   C1719     1.0  0.42723  0.62951  0.16858  1.0000
  S   S580      1.0  0.07311  0.67937  0.22633  1.0000
  C   C1720     1.0  0.38015  0.58425  0.35402  1.0000
  N   N148      1.0  0.00897  0.66242  0.24624  1.0000
  N   N149      1.0  0.27715  0.63198  0.17522  1.0000
  H   H1718     1.0  0.14773  0.52231  0.19281  1.0000
  S   S581      1.0  0.07749  0.70899  0.24619  1.0000
  S   S582      1.0  0.04799  0.69265  0.26296  1.0000
  C   C1721     1.0  0.08416  0.66624  0.17826  1.0000
  S   S583      1.0  0.14147  0.62959  0.18898  1.0000
  Fe  Fe293     1.0  0.16188  0.63269  0.19556  1.0000
  S   S584      1.0  0.15988  0.63558  0.21931  1.0000
  H   H1719     1.0  0.45475  0.59988  0.32775  1.0000
  C   C1722     1.0  0.22979  0.59685  0.26156  1.0000
  C   C1723     1.0  0.13919  0.53957  0.17414  1.0000
  Fe  Fe294     1.0  0.34690  0.68120  0.17007  1.0000
  H   H1720     1.0  0.20866  0.48832  0.30505  1.0000
  C   C1724     1.0  0.32955  0.69551  0.25788  1.0000
  Fe  Fe295     1.0  0.21608  0.62845  0.28785  1.0000
  S   S585      1.0  0.20063  0.63016  0.27233  1.0000
  S   S586      1.0  0.22448  0.60576  0.30328  1.0000
  Fe  Fe296     1.0  0.21715  0.66236  0.27726  1.0000
  S   S587      1.0  0.20196  0.66701  0.26067  1.0000
  S   S588      1.0  0.22336  0.68335  0.27965  1.0000
  Fe  Fe297     1.0  0.18786  0.65236  0.27970  1.0000
  Fe  Fe298     1.0  0.21609  0.64454  0.25463  1.0000
  S   S589      1.0  0.22257  0.64048  0.23057  1.0000
  S   S590      1.0  0.20192  0.64944  0.29693  1.0000
  S   S591      1.0  0.23283  0.64108  0.26949  1.0000
  H   H1721     1.0  0.48177  0.50313  0.31271  1.0000
  C   C1725     1.0  0.41297  0.63471  0.23701  1.0000
  Fe  Fe299     1.0  0.18933  0.53733  0.33264  1.0000
  S   S592      1.0  0.20897  0.51639  0.33174  1.0000
  S   S593      1.0  0.18421  0.55723  0.31307  1.0000
  H   H1722     1.0  0.23487  0.64708  0.19562  1.0000
  Fe  Fe300     1.0  0.47148  0.58133  0.28815  1.0000
  Fe  Fe301     1.0  0.44714  0.56232  0.29643  1.0000
  S   S594      1.0  0.17120  0.52418  0.34708  1.0000
  H   H1723     1.0  0.17147  0.64226  0.31224  1.0000
  C   C1726     1.0  0.21283  0.59248  0.30682  1.0000
  C   C1727     1.0  0.19791  0.59743  0.30392  1.0000
  C   C1728     1.0  0.18901  0.58658  0.30607  1.0000
  C   C1729     1.0  0.19492  0.57080  0.31141  1.0000
  C   C1730     1.0  0.20960  0.56590  0.31488  1.0000
  C   C1731     1.0  0.21861  0.57672  0.31245  1.0000
  H   H1724     1.0  0.19310  0.60961  0.30024  1.0000
  H   H1725     1.0  0.17756  0.59042  0.30359  1.0000
  H   H1726     1.0  0.21422  0.55370  0.31900  1.0000
  H   H1727     1.0  0.23013  0.57285  0.31477  1.0000
  N   N150      1.0  0.09006  0.67408  0.18502  1.0000
  H   H1728     1.0  0.34633  0.71674  0.20610  1.0000
  S   S595      1.0  0.30651  0.72179  0.25953  1.0000
  C   C1732     1.0  0.25852  0.63793  0.19800  1.0000
  C   C1733     1.0  0.44152  0.49034  0.16944  1.0000
  H   H1729     1.0  0.21368  0.61081  0.23971  1.0000
  H   H1730     1.0  0.11206  0.67359  0.18845  1.0000
  H   H1731     1.0  0.22753  0.55675  0.35822  1.0000
  C   C1734     1.0  0.23990  0.69246  0.29429  1.0000
  Fe  Fe302     1.0  0.44732  0.58936  0.26893  1.0000
  C   C1735     1.0  0.17728  0.63830  0.22122  1.0000
  C   C1736     1.0  0.17718  0.64431  0.23353  1.0000
  C   C1737     1.0  0.19104  0.64570  0.23585  1.0000
  C   C1738     1.0  0.20516  0.64087  0.22603  1.0000
  C   C1739     1.0  0.20529  0.63508  0.21350  1.0000
  C   C1740     1.0  0.19132  0.63393  0.21102  1.0000
  H   H1732     1.0  0.16639  0.64798  0.24129  1.0000
  H   H1733     1.0  0.19072  0.65045  0.24535  1.0000
  H   H1734     1.0  0.21614  0.63102  0.20600  1.0000
  H   H1735     1.0  0.19148  0.62929  0.20146  1.0000
  S   S596      1.0  0.45494  0.57411  0.31014  1.0000
  S   S597      1.0  0.34616  0.69718  0.18485  1.0000
  H   H1736     1.0  0.17262  0.49468  0.17565  1.0000
  C   C1741     1.0  0.24358  0.66471  0.29777  1.0000
  C   C1742     1.0  0.00055  0.67451  0.26795  1.0000
  C   C1743     1.0  0.01307  0.57335  0.17375  1.0000
  H   H1737     1.0  0.32399  0.66783  0.32122  1.0000
  C   C1744     1.0  0.34097  0.66875  0.34904  1.0000
  S   S598      1.0  0.35222  0.66973  0.22616  1.0000
  C   C1745     1.0  0.25107  0.69008  0.30279  1.0000
  Fe  Fe303     1.0  0.37891  0.66267  0.17362  1.0000
  C   C1746     1.0  0.00065  0.70305  0.23081  1.0000
  C   C1747     1.0  0.00737  0.70836  0.23961  1.0000
  C   C1748     1.0  0.99845  0.71300  0.25312  1.0000
  Fe  Fe304     1.0  0.19122  0.50358  0.34797  1.0000
  H   H1738     1.0  0.00760  0.69952  0.22036  1.0000
  H   H1739     1.0  0.01947  0.70879  0.23595  1.0000
  S   S599      1.0  0.15514  0.58971  0.17634  1.0000
  H   H1740     1.0  0.16629  0.50393  0.30294  1.0000
  H   H1741     1.0  0.20206  0.49130  0.28166  1.0000
  C   C1749     1.0  0.39129  0.64034  0.22422  1.0000
  H   H1742     1.0  0.17917  0.67894  0.30754  1.0000
  H   H1743     1.0  0.17706  0.58611  0.25800  1.0000
  N   N151      1.0  0.18111  0.69307  0.32130  1.0000
  C   C1750     1.0  0.18722  0.68576  0.30801  1.0000
  H   H1744     1.0  0.01379  0.64727  0.23091  1.0000
  H   H1745     1.0  0.22910  0.57564  0.35903  1.0000
  H   H1746     1.0  0.00128  0.67656  0.19272  1.0000
  C   C1751     1.0  0.13078  0.57524  0.18737  1.0000
  C   C1752     1.0  0.10866  0.60217  0.17965  1.0000
  C   C1753     1.0  0.07339  0.72059  0.29511  1.0000
  C   C1754     1.0  0.17679  0.49335  0.32251  1.0000
  H   H1747     1.0  0.28284  0.62851  0.19692  1.0000
  C   C1755     1.0  0.11521  0.57457  0.18989  1.0000
  C   C1756     1.0  0.29081  0.65706  0.35473  1.0000
  H   H1748     1.0  0.25400  0.67948  0.25754  1.0000
  C   C1757     1.0  0.20912  0.58238  0.27125  1.0000
  C   C1758     1.0  0.04323  0.66248  0.20526  1.0000
  C   C1759     1.0  0.05710  0.65290  0.20872  1.0000
  C   C1760     1.0  0.06602  0.65811  0.21546  1.0000
  C   C1761     1.0  0.06109  0.67289  0.21885  1.0000
  C   C1762     1.0  0.04709  0.68240  0.21561  1.0000
  C   C1763     1.0  0.03823  0.67722  0.20873  1.0000
  H   H1749     1.0  0.06089  0.64138  0.20639  1.0000
  H   H1750     1.0  0.07677  0.65063  0.21806  1.0000
  H   H1751     1.0  0.04325  0.69387  0.21808  1.0000
  H   H1752     1.0  0.02759  0.68468  0.20590  1.0000
  C   C1764     1.0  0.31938  0.70746  0.25021  1.0000
  H   H1753     1.0  0.08500  0.67229  0.26641  1.0000
  H   H1754     1.0  0.32881  0.69633  0.21603  1.0000
  C   C1765     1.0  0.23628  0.67981  0.29160  1.0000
  H   H1755     1.0  0.16536  0.68408  0.35942  1.0000
  S   S600      1.0  0.33301  0.69339  0.32613  1.0000
  C   C1766     1.0  0.46442  0.57834  0.23312  1.0000
  H   H1756     1.0  0.36908  0.60608  0.36037  1.0000
  S   S601      1.0  0.28901  0.70198  0.32993  1.0000
  H   H1757     1.0  0.37279  0.64413  0.21262  1.0000
  C   C1767     1.0  0.14663  0.66739  0.33371  1.0000
  C   C1768     1.0  0.13928  0.67777  0.32234  1.0000
  C   C1769     1.0  0.14360  0.67537  0.30727  1.0000
  H   H1758     1.0  0.13030  0.68767  0.32513  1.0000
  H   H1759     1.0  0.13808  0.68353  0.29843  1.0000
  C   C1770     1.0  0.45564  0.59352  0.23038  1.0000
  H   H1760     1.0  0.02132  0.57691  0.17769  1.0000
  C   C1771     1.0  0.17577  0.68437  0.33540  1.0000
  C   C1772     1.0  0.07946  0.70458  0.29796  1.0000
  C   C1773     1.0  0.08965  0.69801  0.30798  1.0000
  H   H1761     1.0  0.29329  0.66171  0.29092  1.0000
  C   C1774     1.0  0.46630  0.50007  0.28239  1.0000
  H   H1762     1.0  0.29466  0.69438  0.27188  1.0000
  S   S602      1.0  0.00682  0.71937  0.26441  1.0000
  C   C1775     1.0  0.07137  0.67363  0.17159  1.0000
  C   C1776     1.0  0.99724  0.66896  0.25688  1.0000
  C   C1777     1.0  0.45892  0.49652  0.29792  1.0000
  C   C1778     1.0  0.45119  0.50852  0.30580  1.0000
  H   H1763     1.0  0.45914  0.48458  0.30388  1.0000
  H   H1764     1.0  0.44552  0.50578  0.31783  1.0000
  C   C1779     1.0  0.12424  0.60283  0.17724  1.0000
  H   H1765     1.0  0.48469  0.55060  0.30377  1.0000
  C   C1780     1.0  0.46087  0.59155  0.33656  1.0000
  C   C1781     1.0  0.33943  0.68426  0.23526  1.0000
  H   H1766     1.0  0.48468  0.60616  0.22548  1.0000
  H   H1767     1.0  0.18871  0.69441  0.29691  1.0000
  C   C1782     1.0  0.42129  0.58902  0.34193  1.0000
  C   C1783     1.0  0.41833  0.60496  0.33559  1.0000
  C   C1784     1.0  0.41073  0.61540  0.34519  1.0000
  C   C1785     1.0  0.10342  0.66621  0.19205  1.0000
  H   H1768     1.0  0.20289  0.49792  0.20190  1.0000
  H   H1769     1.0  0.42701  0.58087  0.33456  1.0000
  H   H1770     1.0  0.40867  0.62776  0.34037  1.0000
  S   S603      1.0  0.19054  0.47963  0.34709  1.0000
  C   C1786     1.0  0.26315  0.68282  0.26029  1.0000
  H   H1771     1.0  0.28057  0.64273  0.34750  1.0000
  C   C1787     1.0  0.33450  0.67401  0.33605  1.0000
  Fe  Fe305     1.0  0.35678  0.67572  0.20028  1.0000
  C   C1788     1.0  0.19526  0.57943  0.27054  1.0000
  H   H1772     1.0  0.47145  0.51835  0.26268  1.0000
  H   H1773     1.0  0.33477  0.72608  0.31244  1.0000
  H   H1774     1.0  0.18898  0.60639  0.23806  1.0000
  S   S604      1.0  0.38132  0.67697  0.18844  1.0000
  H   H1775     1.0  0.31136  0.71705  0.22908  1.0000
  H   H1776     1.0  0.99122  0.68012  0.27609  1.0000
  S   S605      1.0  0.44244  0.53874  0.30862  1.0000
  C   C1789     1.0  0.02411  0.66112  0.24634  1.0000
  C   C1790     1.0  0.38332  0.72669  0.17755  1.0000
  C   C1791     1.0  0.15547  0.66276  0.30356  1.0000
  Fe  Fe306     1.0  0.12815  0.69483  0.35317  1.0000
  S   S606      1.0  0.45519  0.60346  0.28022  1.0000
  S   S607      1.0  0.39630  0.64071  0.16976  1.0000
  H   H1777     1.0  0.34744  0.67471  0.25640  1.0000
  H   H1778     1.0  0.45783  0.53942  0.27661  1.0000
  H   H1779     1.0  0.09441  0.68564  0.31021  1.0000
  C   C1792     1.0  0.17553  0.71522  0.33246  1.0000
  C   C1793     1.0  0.44935  0.60622  0.35682  1.0000
  H   H1780     1.0  0.42550  0.63421  0.23174  1.0000
  N   N152      1.0  0.40544  0.63147  0.22661  1.0000
  H   H1781     1.0  0.41207  0.62583  0.24798  1.0000
  H   H1782     1.0  0.48223  0.56074  0.22322  1.0000
  S   S608      1.0  0.14235  0.67087  0.35223  1.0000
  C   C1794     1.0  0.16998  0.69096  0.34836  1.0000
  H   H1783     1.0  0.27492  0.71476  0.26014  1.0000
  H   H1784     1.0  0.17545  0.50426  0.32550  1.0000
  H   H1785     1.0  0.30867  0.66760  0.27513  1.0000
  C   C1795     1.0  0.18789  0.58818  0.25862  1.0000
  C   C1796     1.0  0.47764  0.58178  0.20617  1.0000
  C   C1797     1.0  0.28637  0.64341  0.35594  1.0000
  H   H1786     1.0  0.18571  0.71511  0.30861  1.0000
  H   H1787     1.0  0.21380  0.61486  0.17141  1.0000
  C   C1798     1.0  0.00539  0.65790  0.23388  1.0000
  C   C1799     1.0  0.20929  0.47995  0.27929  1.0000
  H   H1788     1.0  0.08746  0.69514  0.19178  1.0000
  C   C1800     1.0  0.15808  0.65447  0.33010  1.0000
  H   H1789     1.0  0.00970  0.65792  0.17740  1.0000
  C   C1801     1.0  0.16257  0.65222  0.31501  1.0000
  N   N153      1.0  0.28584  0.67574  0.27085  1.0000
  H   H1790     1.0  0.09959  0.66375  0.20479  1.0000
  C   C1802     1.0  0.09377  0.70739  0.31514  1.0000
  H   H1791     1.0  0.37364  0.63031  0.34421  1.0000
  C   C1803     1.0  0.17166  0.49316  0.30969  1.0000
  N   N154      1.0  0.16594  0.55027  0.16925  1.0000
  H   H1792     1.0  0.22995  0.59587  0.27376  1.0000
  C   C1804     1.0  0.98890  0.67591  0.19541  1.0000
  C   C1805     1.0  0.08314  0.68914  0.18587  1.0000
  C   C1806     1.0  0.29750  0.66386  0.27820  1.0000
  H   H1793     1.0  0.42288  0.51036  0.17211  1.0000
  S   S609      1.0  0.33716  0.62404  0.36278  1.0000
  C   C1807     1.0  0.32896  0.66385  0.33125  1.0000
  H   H1794     1.0  0.26064  0.65068  0.31086  1.0000
  C   C1808     1.0  0.22216  0.56661  0.36411  1.0000
  S   S610      1.0  0.16202  0.66068  0.28447  1.0000
  H   H1795     1.0  0.18576  0.59620  0.33608  1.0000
  H   H1796     1.0  0.14927  0.64371  0.27123  1.0000
  C   C1809     1.0  0.20313  0.58304  0.34911  1.0000
  H   H1797     1.0  0.24077  0.65489  0.29575  1.0000
  H   H1798     1.0  0.23419  0.70415  0.28964  1.0000
  H   H1799     1.0  0.18078  0.55822  0.17766  1.0000
  H   H1800     1.0  0.46259  0.57100  0.24449  1.0000
  H   H1801     1.0  0.34512  0.67661  0.35288  1.0000
  H   H1802     1.0  0.99425  0.59178  0.18034  1.0000
  H   H1803     1.0  0.06458  0.70870  0.18047  1.0000
  H   H1804     1.0  0.01860  0.67839  0.27606  1.0000
  H   H1805     1.0  0.25356  0.69990  0.30502  1.0000
  N   N155      1.0  0.46241  0.59979  0.34731  1.0000
  C   C1810     1.0  0.33951  0.68389  0.25045  1.0000
  C   C1811     1.0  0.17706  0.49103  0.18603  1.0000
  S   S611      1.0  0.23469  0.52014  0.35798  1.0000
  H   H1806     1.0  0.36476  0.72638  0.23105  1.0000
  C   C1812     1.0  0.25875  0.67507  0.30858  1.0000
  C   C1813     1.0  0.18124  0.70827  0.31973  1.0000
  H   H1807     1.0  0.34435  0.72582  0.23716  1.0000
  H   H1808     1.0  0.21251  0.58712  0.34020  1.0000
  C   C1814     1.0  0.41247  0.61913  0.21974  1.0000
  H   H1809     1.0  0.11175  0.56362  0.19494  1.0000
  C   C1815     1.0  0.25482  0.66235  0.30628  1.0000
  H   H1810     1.0  0.47232  0.58574  0.33044  1.0000
  C   C1816     1.0  0.38394  0.63703  0.21458  1.0000
  H   H1811     1.0  0.38563  0.62212  0.19965  1.0000
  S   S612      1.0  0.04600  0.72175  0.23247  1.0000
  H   H1812     1.0  0.12876  0.53539  0.17605  1.0000
  C   C1817     1.0  0.27377  0.63243  0.19048  1.0000
  C   C1818     1.0  0.10410  0.58801  0.18590  1.0000
  C   C1819     1.0  0.34170  0.65341  0.35737  1.0000
  C   C1820     1.0  0.19405  0.49286  0.20086  1.0000
  Fe  Fe307     1.0  0.03287  0.71629  0.25707  1.0000
  H   H1813     1.0  0.17576  0.67230  0.33668  1.0000
  H   H1814     1.0  0.03340  0.65597  0.23788  1.0000
  H   H1815     1.0  0.23986  0.58841  0.25658  1.0000
  H   H1816     1.0  0.39231  0.71430  0.21288  1.0000
  C   C1821     1.0  0.20846  0.60212  0.24851  1.0000
  C   C1822     1.0  0.28592  0.69105  0.26854  1.0000
  C   C1823     1.0  0.26324  0.69846  0.25777  1.0000
  H   H1817     1.0  0.38556  0.65008  0.22971  1.0000
  C   C1824     1.0  0.99770  0.58176  0.17518  1.0000
  C   C1825     1.0  0.16986  0.70648  0.34685  1.0000
  C   C1826     1.0  0.27471  0.70264  0.26190  1.0000
  C   C1827     1.0  0.27450  0.67154  0.26706  1.0000
  S   S613      1.0  0.27635  0.71646  0.29778  1.0000
  S   S614      1.0  0.35517  0.65966  0.18683  1.0000
  H   H1818     1.0  0.21476  0.57558  0.28059  1.0000
  H   H1819     1.0  0.30237  0.50415  0.34888  1.0000
  C   C1828     1.0  0.48199  0.52700  0.30982  1.0000
  N   N156      1.0  0.10884  0.66033  0.26142  1.0000
  C   C1829     1.0  0.11212  0.66444  0.27308  1.0000
  C   C1830     1.0  0.11986  0.65053  0.25309  1.0000
  C   C1831     1.0  0.12667  0.65848  0.27681  1.0000
  C   C1832     1.0  0.13447  0.64426  0.25662  1.0000
  C   C1833     1.0  0.13788  0.64831  0.26852  1.0000
  C   C1834     1.0  0.09373  0.66693  0.25726  1.0000
  H   H1820     1.0  0.10351  0.67238  0.27957  1.0000
  H   H1821     1.0  0.11744  0.64754  0.24359  1.0000
  H   H1822     1.0  0.12931  0.66181  0.28601  1.0000
  H   H1823     1.0  0.14314  0.63644  0.25003  1.0000
  C   C1835     1.0  0.02783  0.66670  0.25711  1.0000
  H   H1824     1.0  0.09493  0.67594  0.24643  1.0000
  C   C1836     1.0  0.18801  0.58822  0.34669  1.0000
  C   C1837     1.0  0.07016  0.69684  0.17956  1.0000
  H   H1825     1.0  0.12778  0.61368  0.17225  1.0000
  H   H1826     1.0  0.37713  0.57752  0.36564  1.0000
  S   S615      1.0  0.44218  0.60117  0.24550  1.0000
  Fe  Fe308     1.0  0.28436  0.69286  0.31199  1.0000
  S   S616      1.0  0.16631  0.65237  0.17563  1.0000
  S   S617      1.0  0.27363  0.67212  0.31820  1.0000
  H   H1827     1.0  0.38457  0.70494  0.19410  1.0000
  C   C1838     1.0  0.18862  0.48117  0.21289  1.0000
  H   H1828     1.0  0.47489  0.62501  0.31147  1.0000
  H   H1829     1.0  0.40774  0.64639  0.23959  1.0000
  C   C1839     1.0  0.40566  0.60995  0.36101  1.0000
  H   H1830     1.0  0.27400  0.65945  0.26950  1.0000
  N   N157      1.0  0.38002  0.60906  0.33655  1.0000
  C   C1840     1.0  0.33011  0.64839  0.33932  1.0000
  C   C1841     1.0  0.38827  0.60192  0.32467  1.0000
  Fe  Fe309     1.0  0.14756  0.64763  0.16783  1.0000
  C   C1842     1.0  0.39286  0.58574  0.32725  1.0000
  H   H1831     1.0  0.25425  0.70730  0.25292  1.0000
  C   C1843     1.0  0.37531  0.62602  0.33363  1.0000
  Fe  Fe310     1.0  0.15928  0.61287  0.17587  1.0000
  H   H1832     1.0  0.39182  0.60876  0.31323  1.0000
  H   H1833     1.0  0.38437  0.63139  0.32476  1.0000
  H   H1834     1.0  0.39981  0.58014  0.31790  1.0000
  C   C1844     1.0  0.47805  0.60992  0.35727  1.0000
  H   H1835     1.0  0.45411  0.58252  0.34281  1.0000
  H   H1836     1.0  0.16422  0.58634  0.35594  1.0000
  C   C1845     1.0  0.06432  0.68902  0.17230  1.0000
  C   C1846     1.0  0.32924  0.69622  0.22758  1.0000
  C   C1847     1.0  0.18851  0.49758  0.18729  1.0000
  H   H1837     1.0  0.36420  0.62997  0.32974  1.0000
  S   S618      1.0  0.30883  0.68983  0.29822  1.0000
  H   H1838     1.0  0.44791  0.47975  0.26840  1.0000
  C   C1848     1.0  0.45821  0.52752  0.28263  1.0000
  C   C1849     1.0  0.38881  0.57688  0.34204  1.0000
  C   C1850     1.0  0.31930  0.70787  0.23501  1.0000
  H   H1839     1.0  0.25577  0.63832  0.21010  1.0000
  Fe  Fe311     1.0  0.31280  0.70107  0.31489  1.0000
  C   C1851     1.0  0.19455  0.59956  0.24746  1.0000
  H   H1840     1.0  0.30166  0.62455  0.17431  1.0000
  H   H1841     1.0  0.43810  0.60488  0.35665  1.0000
  Fe  Fe312     1.0  0.21195  0.52086  0.35323  1.0000
  H   H1842     1.0  0.16368  0.64637  0.33892  1.0000
  C   C1852     1.0  0.45100  0.52403  0.29821  1.0000
  H   H1843     1.0  0.03987  0.66598  0.25683  1.0000
  C   C1853     1.0  0.16316  0.53783  0.18096  1.0000
  H   H1844     1.0  0.13925  0.56484  0.19063  1.0000
  C   C1854     1.0  0.14977  0.53228  0.18359  1.0000
  H   H1845     1.0  0.24017  0.59991  0.17469  1.0000
  C   C1855     1.0  0.47540  0.57248  0.22103  1.0000
  H   H1846     1.0  0.32590  0.64053  0.33553  1.0000
  H   H1847     1.0  0.17139  0.53207  0.18828  1.0000
  C   C1856     1.0  0.18358  0.47947  0.33136  1.0000
  H   H1848     1.0  0.10018  0.61259  0.17678  1.0000
  C   C1857     1.0  0.39036  0.72202  0.20209  1.0000
  C   C1858     1.0  0.40550  0.61561  0.20990  1.0000
  S   S619      1.0  0.19402  0.54301  0.35256  1.0000
  H   H1849     1.0  0.06540  0.72573  0.28754  1.0000
  H   H1850     1.0  0.41126  0.60603  0.20420  1.0000
  H   H1851     1.0  0.34921  0.71227  0.33285  1.0000
  S   S620      1.0  0.19650  0.51110  0.17175  1.0000
  H   H1852     1.0  0.43559  0.48243  0.17873  1.0000
  C   C1859     1.0  0.38596  0.71672  0.19147  1.0000
  H   H1853     1.0  0.08908  0.65782  0.25544  1.0000
  H   H1854     1.0  0.10491  0.71762  0.25326  1.0000
  H   H1855     1.0  0.42353  0.61193  0.22186  1.0000
  H   H1856     1.0  0.29993  0.65281  0.27442  1.0000
  H   H1857     1.0  0.47044  0.60416  0.19187  1.0000
  Fe  Fe313     1.0  0.30127  0.71417  0.28537  1.0000
  C   C1860     1.0  0.39112  0.62461  0.20737  1.0000
  H   H1858     1.0  0.10167  0.70224  0.32281  1.0000
  S   S621      1.0  0.13159  0.71603  0.33466  1.0000
  S   S622      1.0  0.17941  0.61444  0.18422  1.0000
  C   C1861     1.0  0.46874  0.59692  0.20334  1.0000
  C   C1862     1.0  0.25025  0.64210  0.17439  1.0000
  H   H1859     1.0  0.30255  0.66820  0.36420  1.0000
  H   H1860     1.0  0.99356  0.65558  0.23717  1.0000
  H   H1861     1.0  0.39257  0.56433  0.34426  1.0000
  H   H1862     1.0  0.19874  0.67795  0.30883  1.0000
  H   H1863     1.0  0.10948  0.65514  0.18834  1.0000
  H   H1864     1.0  0.28857  0.66691  0.34532  1.0000
  S   S623      1.0  0.10226  0.70053  0.35677  1.0000
  Fe  Fe314     1.0  0.37068  0.69739  0.17198  1.0000
  H   H1865     1.0  0.47303  0.52852  0.32011  1.0000
  C   C1863     1.0  0.17592  0.58275  0.35787  1.0000
  N   N158      1.0  0.98744  0.57781  0.16952  1.0000
  H   H1866     1.0  0.16525  0.71179  0.35677  1.0000
  H   H1867     1.0  0.42444  0.61824  0.17343  1.0000
  C   C1864     1.0  0.08771  0.72339  0.31226  1.0000
  H   H1868     1.0  0.08924  0.65414  0.17811  1.0000
  H   H1869     1.0  0.35820  0.71154  0.22731  1.0000
  C   C1865     1.0  0.29883  0.49608  0.35950  1.0000
  S   S624      1.0  0.16740  0.47947  0.28913  1.0000
  N   N159      1.0  0.20609  0.57279  0.36237  1.0000
  C   C1866     1.0  0.48428  0.60493  0.30144  1.0000
  C   C1867     1.0  0.35498  0.72398  0.22793  1.0000
  H   H1870     1.0  0.10235  0.71905  0.27270  1.0000
  H   H1871     1.0  0.21726  0.48206  0.26783  1.0000
  C   C1868     1.0  0.34518  0.72479  0.33088  1.0000
  C   C1869     1.0  0.48505  0.61602  0.30875  1.0000
  C   C1870     1.0  0.09969  0.72556  0.26135  1.0000
  C   C1871     1.0  0.29852  0.65783  0.36541  1.0000
  H   H1872     1.0  0.35378  0.72702  0.34934  1.0000
  Fe  Fe315     1.0  0.28320  0.72535  0.31455  1.0000
  H   H1873     1.0  0.05422  0.69478  0.16741  1.0000
  C   C1872     1.0  0.18010  0.55573  0.16682  1.0000
  C   C1873     1.0  0.99491  0.65142  0.16715  1.0000
  S   S625      1.0  0.30745  0.72522  0.30085  1.0000
  C   C1874     1.0  0.29305  0.62584  0.16745  1.0000
  Fe  Fe316     1.0  0.12968  0.72700  0.35408  1.0000
  H   H1874     1.0  0.17533  0.72736  0.33123  1.0000
  H   H1875     1.0  0.24111  0.64550  0.16803  1.0000
  C   C1875     1.0  0.26563  0.63672  0.16720  1.0000
  Fe  Fe317     1.0  0.10594  0.51264  0.46888  1.0000
  H   H1876     1.0  0.32290  0.50479  0.37471  1.0000
  Fe  Fe318     1.0  0.37399  0.62561  0.54165  1.0000
  S   S626      1.0  0.39048  0.62447  0.51887  1.0000
  Fe  Fe319     1.0  0.44425  0.69332  0.43064  1.0000
  H   H1877     1.0  0.36291  0.65249  0.51185  1.0000
  S   S627      1.0  0.36747  0.60330  0.55516  1.0000
  Fe  Fe320     1.0  0.42002  0.67606  0.43331  1.0000
  H   H1878     1.0  0.36774  0.67036  0.50087  1.0000
  S   S628      1.0  0.41986  0.65440  0.42673  1.0000
  Fe  Fe321     1.0  0.41944  0.68912  0.46012  1.0000
  S   S629      1.0  0.41272  0.68665  0.48574  1.0000
  S   S630      1.0  0.43745  0.67235  0.44739  1.0000
  Fe  Fe322     1.0  0.33317  0.55352  0.51223  1.0000
  S   S631      1.0  0.34363  0.57444  0.50426  1.0000
  Fe  Fe323     1.0  0.32824  0.52692  0.50239  1.0000
  S   S632      1.0  0.31833  0.51527  0.52641  1.0000
  S   S633      1.0  0.33236  0.51640  0.48215  1.0000
  Fe  Fe324     1.0  0.30539  0.53945  0.52863  1.0000
  Fe  Fe325     1.0  0.33757  0.52114  0.53257  1.0000
  C   C1876     1.0  0.37967  0.63081  0.47679  1.0000
  S   S634      1.0  0.31367  0.55075  0.50393  1.0000
  S   S635      1.0  0.34857  0.53079  0.50827  1.0000
  Fe  Fe326     1.0  0.28083  0.53317  0.41190  1.0000
  S   S636      1.0  0.28620  0.54124  0.43015  1.0000
  C   C1877     1.0  0.08565  0.67462  0.51207  1.0000
  Fe  Fe327     1.0  0.24629  0.54243  0.42317  1.0000
  S   S637      1.0  0.24828  0.55163  0.44227  1.0000
  S   S638      1.0  0.22329  0.54174  0.41989  1.0000
  Fe  Fe328     1.0  0.26718  0.56200  0.42503  1.0000
  Fe  Fe329     1.0  0.26700  0.53032  0.44599  1.0000
  S   S639      1.0  0.26727  0.51916  0.47071  1.0000
  S   S640      1.0  0.26342  0.52004  0.42833  1.0000
  Fe  Fe330     1.0  0.07064  0.63752  0.45382  1.0000
  S   S641      1.0  0.08962  0.64045  0.43260  1.0000
  Fe  Fe331     1.0  0.05990  0.61210  0.48009  1.0000
  S   S642      1.0  0.06710  0.58759  0.49280  1.0000
  Fe  Fe332     1.0  0.05445  0.64429  0.48528  1.0000
  S   S643      1.0  0.05472  0.65586  0.50365  1.0000
  S   S644      1.0  0.05653  0.62052  0.45592  1.0000
  S   S645      1.0  0.07597  0.62744  0.47715  1.0000
  H   H1879     1.0  0.21489  0.53520  0.46690  1.0000
  C   C1878     1.0  0.12839  0.71442  0.43734  1.0000
  S   S646      1.0  0.08725  0.71020  0.39791  1.0000
  S   S647      1.0  0.40124  0.69116  0.44749  1.0000
  H   H1880     1.0  0.47276  0.71263  0.44356  1.0000
  S   S648      1.0  0.12753  0.51505  0.47375  1.0000
  Fe  Fe333     1.0  0.13852  0.49316  0.46537  1.0000
  N   N160      1.0  0.01778  0.59116  0.47374  1.0000
  Fe  Fe334     1.0  0.12038  0.49963  0.49655  1.0000
  S   S649      1.0  0.12414  0.50262  0.51841  1.0000
  S   S650      1.0  0.35394  0.50669  0.54773  1.0000
  C   C1879     1.0  0.04025  0.69082  0.41968  1.0000
  C   C1880     1.0  0.16171  0.50481  0.43285  1.0000
  C   C1881     1.0  0.17503  0.50496  0.42103  1.0000
  C   C1882     1.0  0.17433  0.51523  0.40677  1.0000
  C   C1883     1.0  0.16034  0.52538  0.40433  1.0000
  C   C1884     1.0  0.14717  0.52571  0.41638  1.0000
  C   C1885     1.0  0.14783  0.51535  0.43061  1.0000
  Fe  Fe335     1.0  0.35339  0.64339  0.56549  1.0000
  H   H1881     1.0  0.18463  0.51526  0.39770  1.0000
  H   H1882     1.0  0.13632  0.53355  0.41454  1.0000
  H   H1883     1.0  0.13747  0.51521  0.43967  1.0000
  C   C1886     1.0  0.13258  0.51831  0.51577  1.0000
  C   C1887     1.0  0.13007  0.53139  0.50394  1.0000
  C   C1888     1.0  0.13727  0.54365  0.50165  1.0000
  C   C1889     1.0  0.14207  0.51767  0.52551  1.0000
  H   H1884     1.0  0.12231  0.53217  0.49679  1.0000
  H   H1885     1.0  0.13533  0.55374  0.49247  1.0000
  H   H1886     1.0  0.14398  0.50761  0.53473  1.0000
  S   S651      1.0  0.37866  0.63163  0.56151  1.0000
  C   C1890     1.0  0.30097  0.61786  0.39052  1.0000
  C   C1891     1.0  0.07379  0.57286  0.48237  1.0000
  C   C1892     1.0  0.08685  0.54616  0.48124  1.0000
  C   C1893     1.0  0.08119  0.55812  0.48934  1.0000
  H   H1887     1.0  0.09260  0.53482  0.48668  1.0000
  H   H1888     1.0  0.08256  0.55590  0.50103  1.0000
  C   C1894     1.0  0.09022  0.65987  0.42374  1.0000
  C   C1895     1.0  0.08927  0.69087  0.40812  1.0000
  C   C1896     1.0  0.08025  0.68738  0.42299  1.0000
  C   C1897     1.0  0.08080  0.67191  0.43082  1.0000
  H   H1889     1.0  0.07261  0.69664  0.42836  1.0000
  H   H1890     1.0  0.07387  0.66934  0.44229  1.0000
  C   C1898     1.0  0.07279  0.66849  0.51359  1.0000
  H   H1891     1.0  0.06425  0.66754  0.52435  1.0000
  H   H1892     1.0  0.08692  0.67845  0.52159  1.0000
  H   H1893     1.0  0.09441  0.69404  0.44706  1.0000
  H   H1894     1.0  0.00915  0.61140  0.43950  1.0000
  H   H1895     1.0  0.43988  0.61981  0.37427  1.0000
  H   H1896     1.0  0.38659  0.63120  0.41126  1.0000
  C   C1899     1.0  0.22654  0.53480  0.40321  1.0000
  C   C1900     1.0  0.35305  0.48414  0.51380  1.0000
  N   N161      1.0  0.47518  0.65811  0.40686  1.0000
  C   C1901     1.0  0.24145  0.53210  0.39389  1.0000
  H   H1897     1.0  0.27281  0.50929  0.39801  1.0000
  H   H1898     1.0  0.25107  0.53387  0.39717  1.0000
  C   C1902     1.0  0.31441  0.51656  0.47909  1.0000
  C   C1903     1.0  0.31352  0.51313  0.46560  1.0000
  C   C1904     1.0  0.29903  0.51380  0.46298  1.0000
  C   C1905     1.0  0.28551  0.51764  0.47397  1.0000
  C   C1906     1.0  0.28645  0.52102  0.48743  1.0000
  C   C1907     1.0  0.30086  0.52056  0.48997  1.0000
  H   H1899     1.0  0.13728  0.49613  0.41666  1.0000
  C   C1908     1.0  0.34439  0.54283  0.56432  1.0000
  H   H1900     1.0  0.27599  0.52448  0.49563  1.0000
  H   H1901     1.0  0.30147  0.52333  0.50034  1.0000
  H   H1902     1.0  0.22359  0.51891  0.53578  1.0000
  C   C1909     1.0  0.00518  0.58456  0.47994  1.0000
  H   H1903     1.0  0.47558  0.66462  0.38280  1.0000
  S   S652      1.0  0.13339  0.47775  0.48862  1.0000
  H   H1904     1.0  0.20754  0.60155  0.52387  1.0000
  Fe  Fe336     1.0  0.10313  0.71246  0.37448  1.0000
  H   H1905     1.0  0.46539  0.68121  0.45069  1.0000
  H   H1906     1.0  0.20266  0.52609  0.44447  1.0000
  C   C1910     1.0  0.34136  0.60312  0.53120  1.0000
  C   C1911     1.0  0.34594  0.59524  0.51914  1.0000
  H   H1907     1.0  0.34840  0.61044  0.53185  1.0000
  H   H1908     1.0  0.35657  0.59636  0.51064  1.0000
  C   C1912     1.0  0.39735  0.64143  0.51012  1.0000
  C   C1913     1.0  0.40625  0.64307  0.49505  1.0000
  C   C1914     1.0  0.41099  0.65698  0.48751  1.0000
  C   C1915     1.0  0.40718  0.66910  0.49517  1.0000
  C   C1916     1.0  0.39859  0.66730  0.51040  1.0000
  C   C1917     1.0  0.39355  0.65352  0.51784  1.0000
  H   H1909     1.0  0.40920  0.63372  0.48907  1.0000
  H   H1910     1.0  0.41762  0.65828  0.47577  1.0000
  H   H1911     1.0  0.39561  0.67670  0.51632  1.0000
  H   H1912     1.0  0.38661  0.65234  0.52946  1.0000
  H   H1913     1.0  0.03356  0.70100  0.42414  1.0000
  C   C1918     1.0  0.14692  0.54291  0.51126  1.0000
  C   C1919     1.0  0.31337  0.57755  0.42544  1.0000
  C   C1920     1.0  0.29932  0.57675  0.42293  1.0000
  H   H1914     1.0  0.32370  0.56869  0.42288  1.0000
  H   H1915     1.0  0.29897  0.56752  0.41805  1.0000
  C   C1921     1.0  0.37529  0.65434  0.41439  1.0000
  C   C1922     1.0  0.38764  0.64138  0.41416  1.0000
  C   C1923     1.0  0.40140  0.64159  0.41774  1.0000
  C   C1924     1.0  0.40290  0.65480  0.42138  1.0000
  C   C1925     1.0  0.39067  0.66788  0.42133  1.0000
  C   C1926     1.0  0.37684  0.66760  0.41793  1.0000
  C   C1927     1.0  0.21665  0.52772  0.38505  1.0000
  H   H1916     1.0  0.39180  0.67817  0.42399  1.0000
  H   H1917     1.0  0.36732  0.67767  0.41802  1.0000
  C   C1928     1.0  0.30354  0.49546  0.41189  1.0000
  C   C1929     1.0  0.31927  0.49773  0.38596  1.0000
  C   C1930     1.0  0.30808  0.50457  0.39731  1.0000
  C   C1931     1.0  0.02979  0.58787  0.48250  1.0000
  H   H1918     1.0  0.19567  0.62784  0.54134  1.0000
  C   C1932     1.0  0.00816  0.60350  0.45069  1.0000
  C   C1933     1.0  0.10799  0.70407  0.45571  1.0000
  H   H1919     1.0  0.37453  0.54421  0.54005  1.0000
  S   S653      1.0  0.11763  0.49186  0.45840  1.0000
  S   S654      1.0  0.26333  0.55497  0.40536  1.0000
  H   H1920     1.0  0.33065  0.49061  0.54865  1.0000
  S   S655      1.0  0.36937  0.62671  0.38142  1.0000
  Fe  Fe337     1.0  0.17207  0.55413  0.52382  1.0000
  H   H1921     1.0  0.08101  0.67137  0.38496  1.0000
  N   N162      1.0  0.26742  0.57103  0.46823  1.0000
  C   C1934     1.0  0.27758  0.55865  0.46296  1.0000
  C   C1935     1.0  0.27275  0.58176  0.47181  1.0000
  C   C1936     1.0  0.29354  0.55666  0.46128  1.0000
  C   C1937     1.0  0.28864  0.58008  0.47036  1.0000
  C   C1938     1.0  0.29907  0.56747  0.46499  1.0000
  C   C1939     1.0  0.25082  0.57324  0.46918  1.0000
  H   H1922     1.0  0.27335  0.55028  0.45998  1.0000
  H   H1923     1.0  0.26472  0.59175  0.47568  1.0000
  H   H1924     1.0  0.30155  0.54694  0.45684  1.0000
  H   H1925     1.0  0.29290  0.58869  0.47298  1.0000
  H   H1926     1.0  0.31143  0.56633  0.46329  1.0000
  H   H1927     1.0  0.24738  0.56189  0.47253  1.0000
  H   H1928     1.0  0.24368  0.57981  0.47813  1.0000
  H   H1929     1.0  0.24807  0.57956  0.45782  1.0000
  H   H1930     1.0  0.00382  0.57725  0.49143  1.0000
  S   S656      1.0  0.35589  0.59476  0.39446  1.0000
  C   C1940     1.0  0.01947  0.60038  0.45922  1.0000
  H   H1931     1.0  0.02913  0.67480  0.43843  1.0000
  H   H1932     1.0  0.46535  0.64267  0.44497  1.0000
  H   H1933     1.0  0.22282  0.58193  0.55143  1.0000
  H   H1934     1.0  0.03607  0.59742  0.47908  1.0000
  N   N163      1.0  0.35257  0.55277  0.55340  1.0000
  C   C1941     1.0  0.16257  0.48980  0.38378  1.0000
  S   S657      1.0  0.32376  0.54422  0.53711  1.0000
  H   H1935     1.0  0.38000  0.61870  0.47785  1.0000
  H   H1936     1.0  0.46581  0.67962  0.39357  1.0000
  Fe  Fe338     1.0  0.10830  0.68613  0.55150  1.0000
  H   H1937     1.0  0.10939  0.69977  0.42002  1.0000
  H   H1938     1.0  0.10754  0.60687  0.44927  1.0000
  S   S658      1.0  0.33100  0.58956  0.43645  1.0000
  H   H1939     1.0  0.07603  0.56565  0.44759  1.0000
  S   S659      1.0  0.35777  0.65410  0.41052  1.0000
  S   S660      1.0  0.11236  0.68462  0.49557  1.0000
  H   H1940     1.0  0.06478  0.65477  0.40394  1.0000
  H   H1941     1.0  0.27430  0.49010  0.40951  1.0000
  H   H1942     1.0  0.41511  0.62666  0.53377  1.0000
  C   C1942     1.0  0.12474  0.71020  0.42560  1.0000
  H   H1943     1.0  0.24574  0.52602  0.50424  1.0000
  H   H1944     1.0  0.30220  0.62115  0.40071  1.0000
  H   H1945     1.0  0.11409  0.71801  0.47378  1.0000
  C   C1943     1.0  0.47266  0.64598  0.43373  1.0000
  C   C1944     1.0  0.21145  0.62433  0.55588  1.0000
  N   N164      1.0  0.37135  0.65332  0.48785  1.0000
  S   S661      1.0  0.19590  0.50624  0.36943  1.0000
  S   S662      1.0  0.42797  0.69602  0.41565  1.0000
  C   C1945     1.0  0.22687  0.59836  0.56146  1.0000
  S   S663      1.0  0.16225  0.49085  0.45003  1.0000
  S   S664      1.0  0.13041  0.69114  0.55221  1.0000
  Fe  Fe339     1.0  0.37688  0.60249  0.39449  1.0000
  H   H1946     1.0  0.18882  0.60592  0.53683  1.0000
  C   C1946     1.0  0.24395  0.52735  0.38012  1.0000
  C   C1947     1.0  0.23913  0.55822  0.53084  1.0000
  Fe  Fe340     1.0  0.34765  0.61945  0.38312  1.0000
  C   C1948     1.0  0.07088  0.66370  0.50126  1.0000
  H   H1947     1.0  0.05327  0.70372  0.39965  1.0000
  H   H1948     1.0  0.07524  0.69194  0.38258  1.0000
  H   H1949     1.0  0.37150  0.48146  0.56630  1.0000
  H   H1950     1.0  0.34793  0.49523  0.50724  1.0000
  H   H1951     1.0  0.09117  0.59984  0.46265  1.0000
  H   H1952     1.0  0.20701  0.52618  0.38162  1.0000
  H   H1953     1.0  0.27276  0.51066  0.52108  1.0000
  C   C1949     1.0  0.37151  0.63813  0.48899  1.0000
  S   S665      1.0  0.40009  0.58722  0.38684  1.0000
  H   H1954     1.0  0.13143  0.71254  0.41386  1.0000
  H   H1955     1.0  0.13260  0.47994  0.54492  1.0000
  S   S666      1.0  0.03841  0.62819  0.48995  1.0000
  C   C1950     1.0  0.25100  0.55504  0.53870  1.0000
  Fe  Fe341     1.0  0.11761  0.68747  0.51701  1.0000
  C   C1951     1.0  0.05138  0.69228  0.40583  1.0000
  S   S667      1.0  0.19468  0.53666  0.52152  1.0000
  S   S668      1.0  0.15593  0.55829  0.50805  1.0000
  C   C1952     1.0  0.09481  0.67113  0.48585  1.0000
  S   S669      1.0  0.09244  0.53413  0.45578  1.0000
  Fe  Fe342     1.0  0.03626  0.63811  0.46533  1.0000
  H   H1956     1.0  0.26086  0.55057  0.49648  1.0000
  H   H1957     1.0  0.35865  0.53866  0.53680  1.0000
  S   S670      1.0  0.18285  0.57366  0.52236  1.0000
  H   H1958     1.0  0.16628  0.51122  0.56005  1.0000
  Fe  Fe343     1.0  0.41108  0.71095  0.43123  1.0000
  C   C1953     1.0  0.28584  0.58788  0.42668  1.0000
  H   H1959     1.0  0.06620  0.58689  0.46187  1.0000
  S   S671      1.0  0.01623  0.64546  0.45332  1.0000
  C   C1954     1.0  0.05782  0.66497  0.40822  1.0000
  C   C1955     1.0  0.22261  0.61364  0.56327  1.0000
  H   H1960     1.0  0.28194  0.54513  0.51030  1.0000
  Fe  Fe344     1.0  0.34541  0.60299  0.41642  1.0000
  C   C1956     1.0  0.30065  0.60115  0.43465  1.0000
  H   H1961     1.0  0.16427  0.49395  0.37138  1.0000
  C   C1957     1.0  0.30167  0.64485  0.37720  1.0000
  H   H1962     1.0  0.28363  0.51394  0.37084  1.0000
  H   H1963     1.0  0.22529  0.52057  0.56135  1.0000
  H   H1964     1.0  0.31211  0.61028  0.38597  1.0000
  H   H1965     1.0  0.12742  0.54200  0.44557  1.0000
  C   C1958     1.0  0.33908  0.48273  0.55484  1.0000
  N   N165      1.0  0.29709  0.63155  0.37844  1.0000
  H   H1966     1.0  0.29176  0.61107  0.39465  1.0000
  H   H1967     1.0  0.39403  0.63373  0.45375  1.0000
  C   C1959     1.0  0.33700  0.58556  0.51836  1.0000
  S   S672      1.0  0.46875  0.69376  0.41789  1.0000
  H   H1968     1.0  0.02932  0.60580  0.45434  1.0000
  C   C1960     1.0  0.41695  0.59500  0.56322  1.0000
  C   C1961     1.0  0.09936  0.67889  0.40134  1.0000
  C   C1962     1.0  0.17060  0.49975  0.56644  1.0000
  H   H1969     1.0  0.23650  0.50978  0.51230  1.0000
  H   H1970     1.0  0.19893  0.55141  0.47059  1.0000
  H   H1971     1.0  0.30825  0.64532  0.38505  1.0000
  S   S673      1.0  0.10412  0.70536  0.53099  1.0000
  C   C1963     1.0  0.35130  0.48783  0.55658  1.0000
  H   H1972     1.0  0.98990  0.65000  0.44055  1.0000
  H   H1973     1.0  0.20261  0.53437  0.40610  1.0000
  Fe  Fe345     1.0  0.12752  0.70890  0.53051  1.0000
  C   C1964     1.0  0.27005  0.54892  0.51601  1.0000
  C   C1965     1.0  0.23155  0.52520  0.37566  1.0000
  N   N166      1.0  0.11998  0.71139  0.45217  1.0000
  C   C1966     1.0  0.12440  0.71514  0.46450  1.0000
  H   H1974     1.0  0.41086  0.63147  0.41773  1.0000
  C   C1967     1.0  0.99364  0.58749  0.47174  1.0000
  H   H1975     1.0  0.04502  0.65166  0.42837  1.0000
  C   C1968     1.0  0.08496  0.54886  0.46620  1.0000
  C   C1969     1.0  0.19427  0.56748  0.37347  1.0000
  S   S674      1.0  0.09766  0.49881  0.49259  1.0000
  C   C1970     1.0  0.16785  0.72547  0.54581  1.0000
  H   H1976     1.0  0.09152  0.60563  0.44250  1.0000
  C   C1971     1.0  0.24261  0.55640  0.51569  1.0000
  H   H1977     1.0  0.35034  0.66565  0.49961  1.0000
  C   C1972     1.0  0.37889  0.66166  0.47464  1.0000
  H   H1978     1.0  0.10723  0.65413  0.40365  1.0000
  H   H1979     1.0  0.15674  0.52929  0.53067  1.0000
  S   S675      1.0  0.05027  0.65582  0.46160  1.0000
  C   C1973     1.0  0.07748  0.56358  0.45924  1.0000
  H   H1980     1.0  0.45670  0.66412  0.39508  1.0000
  C   C1974     1.0  0.28818  0.50154  0.37195  1.0000
  C   C1975     1.0  0.25811  0.55204  0.50818  1.0000
  C   C1976     1.0  0.09974  0.66339  0.40911  1.0000
  S   S676      1.0  0.28087  0.54480  0.54202  1.0000
  H   H1981     1.0  0.08065  0.66120  0.47784  1.0000
  H   H1982     1.0  0.09332  0.63228  0.49972  1.0000
  C   C1977     1.0  0.04673  0.66311  0.42205  1.0000
  H   H1983     1.0  0.16978  0.56767  0.38000  1.0000
  Fe  Fe346     1.0  0.18951  0.53204  0.54731  1.0000
  H   H1984     1.0  0.37882  0.67369  0.47372  1.0000
  S   S677      1.0  0.42814  0.70987  0.44489  1.0000
  H   H1985     1.0  0.31598  0.57717  0.52850  1.0000
  H   H1986     1.0  0.32399  0.51008  0.45713  1.0000
  C   C1978     1.0  0.20113  0.59951  0.53606  1.0000
  C   C1979     1.0  0.48231  0.68412  0.42926  1.0000
  C   C1980     1.0  0.07196  0.57560  0.46729  1.0000
  H   H1987     1.0  0.27620  0.60901  0.43496  1.0000
  H   H1988     1.0  0.20654  0.54833  0.45137  1.0000
  C   C1981     1.0  0.26231  0.51270  0.52989  1.0000
  N   N167      1.0  0.14984  0.49657  0.39341  1.0000
  Fe  Fe347     1.0  0.17850  0.56623  0.54813  1.0000
  H   H1989     1.0  0.13796  0.72018  0.43449  1.0000
  C   C1982     1.0  0.26646  0.55020  0.53137  1.0000
  C   C1983     1.0  0.16858  0.65812  0.55634  1.0000
  H   H1990     1.0  0.30111  0.61050  0.43934  1.0000
  C   C1984     1.0  0.36258  0.66087  0.50064  1.0000
  C   C1985     1.0  0.32782  0.60135  0.54245  1.0000
  Fe  Fe348     1.0  0.20499  0.55566  0.52236  1.0000
  C   C1986     1.0  0.21415  0.53242  0.39887  1.0000
  S   S678      1.0  0.29900  0.52421  0.39261  1.0000
  S   S679      1.0  0.36723  0.60827  0.41784  1.0000
  H   H1991     1.0  0.39343  0.66118  0.45197  1.0000
  H   H1992     1.0  0.10336  0.67202  0.47511  1.0000
  C   C1987     1.0  0.09661  0.67611  0.49814  1.0000
  S   S680      1.0  0.22773  0.55904  0.50619  1.0000
  S   S681      1.0  0.11978  0.66791  0.53761  1.0000
  H   H1993     1.0  0.15582  0.71143  0.54018  1.0000
  H   H1994     1.0  0.36562  0.63148  0.49952  1.0000
  C   C1988     1.0  0.32321  0.58421  0.52932  1.0000
  C   C1989     1.0  0.08199  0.66492  0.48740  1.0000
  C   C1990     1.0  0.28659  0.60030  0.43218  1.0000
  N   N168      1.0  0.09719  0.60967  0.51383  1.0000
  C   C1991     1.0  0.11221  0.60442  0.51550  1.0000
  C   C1992     1.0  0.08903  0.59962  0.51313  1.0000
  C   C1993     1.0  0.11929  0.58863  0.51702  1.0000
  C   C1994     1.0  0.09575  0.58376  0.51463  1.0000
  C   C1995     1.0  0.11095  0.57825  0.51668  1.0000
  C   C1996     1.0  0.09011  0.62629  0.51195  1.0000
  H   H1995     1.0  0.11880  0.61243  0.51569  1.0000
  H   H1996     1.0  0.07724  0.60381  0.51143  1.0000
  H   H1997     1.0  0.13120  0.58443  0.51842  1.0000
  H   H1998     1.0  0.08917  0.57583  0.51419  1.0000
  H   H1999     1.0  0.11629  0.56597  0.51800  1.0000
  H   H2000     1.0  0.22280  0.56239  0.37644  1.0000
  H   H2001     1.0  0.29835  0.51117  0.45254  1.0000
  S   S682      1.0  0.19836  0.50835  0.56087  1.0000
  N   N169      1.0  0.05995  0.67943  0.40026  1.0000
  H   H2002     1.0  0.20086  0.58701  0.54016  1.0000
  C   C1997     1.0  0.31397  0.58962  0.43152  1.0000
  C   C1998     1.0  0.99631  0.62873  0.47547  1.0000
  S   S683      1.0  0.26786  0.58624  0.42507  1.0000
  H   H2003     1.0  0.24821  0.55611  0.55056  1.0000
  C   C1999     1.0  0.14749  0.49095  0.40900  1.0000
  H   H2004     1.0  0.29511  0.50071  0.42078  1.0000
  C   C2000     1.0  0.24680  0.51413  0.51165  1.0000
  C   C2001     1.0  0.14931  0.52992  0.52320  1.0000
  C   C2002     1.0  0.31863  0.59209  0.54137  1.0000
  Fe  Fe349     1.0  0.35787  0.63199  0.40468  1.0000
  N   N170      1.0  0.24806  0.51446  0.52699  1.0000
  H   H2005     1.0  0.18511  0.50853  0.44885  1.0000
  H   H2006     1.0  0.02466  0.58667  0.49504  1.0000
  N   N171      1.0  0.35728  0.57354  0.45684  1.0000
  C   C2003     1.0  0.34629  0.56625  0.46713  1.0000
  C   C2004     1.0  0.36591  0.56780  0.44417  1.0000
  C   C2005     1.0  0.34401  0.55263  0.46513  1.0000
  C   C2006     1.0  0.36385  0.55421  0.44177  1.0000
  C   C2007     1.0  0.35285  0.54656  0.45239  1.0000
  C   C2008     1.0  0.35891  0.58820  0.45886  1.0000
  H   H2007     1.0  0.33900  0.57115  0.47680  1.0000
  H   H2008     1.0  0.37420  0.57389  0.43567  1.0000
  H   H2009     1.0  0.33526  0.54696  0.47328  1.0000
  H   H2010     1.0  0.37055  0.54982  0.43161  1.0000
  H   H2011     1.0  0.35100  0.53605  0.45072  1.0000
  H   H2012     1.0  0.35712  0.58803  0.47129  1.0000
  H   H2013     1.0  0.37064  0.59040  0.45306  1.0000
  H   H2014     1.0  0.35011  0.59789  0.45392  1.0000
  N   N172      1.0  0.19303  0.53234  0.46629  1.0000
  C   C2009     1.0  0.18249  0.53015  0.48002  1.0000
  C   C2010     1.0  0.19412  0.52460  0.45524  1.0000
  C   C2011     1.0  0.17255  0.52014  0.48284  1.0000
  C   C2012     1.0  0.18426  0.51462  0.45765  1.0000
  C   C2013     1.0  0.17341  0.51240  0.47154  1.0000
  C   C2014     1.0  0.20386  0.54231  0.46370  1.0000
  H   H2015     1.0  0.18170  0.53611  0.48891  1.0000
  H   H2016     1.0  0.42997  0.63385  0.54823  1.0000
  H   H2017     1.0  0.16428  0.51831  0.49376  1.0000
  S   S684      1.0  0.15883  0.53702  0.38609  1.0000
  H   H2018     1.0  0.16578  0.50460  0.47359  1.0000
  C   C2015     1.0  0.23490  0.51736  0.53808  1.0000
  H   H2019     1.0  0.28644  0.61998  0.36862  1.0000
  C   C2016     1.0  0.30971  0.47943  0.41490  1.0000
  H   H2020     1.0  0.14389  0.51670  0.37620  1.0000
  C   C2017     1.0  0.03783  0.67614  0.42773  1.0000
  S   S685      1.0  0.34952  0.63948  0.54418  1.0000
  S   S686      1.0  0.14076  0.69258  0.51482  1.0000
  S   S687      1.0  0.16210  0.65506  0.54163  1.0000
  C   C2018     1.0  0.38756  0.63918  0.46334  1.0000
  H   H2021     1.0  0.22730  0.56214  0.53648  1.0000
  C   C2019     1.0  0.46606  0.65351  0.42097  1.0000
  S   S688      1.0  0.33518  0.62711  0.40510  1.0000
  C   C2020     1.0  0.38719  0.65467  0.46228  1.0000
  H   H2022     1.0  0.10655  0.68151  0.38993  1.0000
  Fe  Fe350     1.0  0.14174  0.67442  0.53664  1.0000
  N   N173      1.0  0.10679  0.58396  0.44946  1.0000
  C   C2021     1.0  0.11217  0.57355  0.46160  1.0000
  C   C2022     1.0  0.10912  0.57973  0.43580  1.0000
  C   C2023     1.0  0.11983  0.55837  0.46033  1.0000
  C   C2024     1.0  0.11663  0.56459  0.43419  1.0000
  C   C2025     1.0  0.12198  0.55387  0.44656  1.0000
  C   C2026     1.0  0.09891  0.59984  0.45105  1.0000
  H   H2023     1.0  0.11019  0.57685  0.47247  1.0000
  H   H2024     1.0  0.10495  0.58800  0.42615  1.0000
  H   H2025     1.0  0.12366  0.55001  0.47010  1.0000
  H   H2026     1.0  0.11805  0.56107  0.42354  1.0000
  C   C2027     1.0  0.41320  0.60489  0.54972  1.0000
  H   H2027     1.0  0.45357  0.65585  0.42244  1.0000
  C   C2028     1.0  0.46796  0.66704  0.39391  1.0000
  N   N174      1.0  0.28391  0.49145  0.38549  1.0000
  N   N175      1.0  0.43026  0.61298  0.56557  1.0000
  H   H2028     1.0  0.06484  0.68197  0.37603  1.0000
  H   H2029     1.0  0.07724  0.62845  0.51548  1.0000
  C   C2029     1.0  0.47759  0.67947  0.44524  1.0000
  S   S689      1.0  0.12884  0.70510  0.37216  1.0000
  C   C2030     1.0  0.11238  0.70295  0.42907  1.0000
  H   H2030     1.0  0.26047  0.49752  0.39715  1.0000
  H   H2031     1.0  0.17611  0.71561  0.55054  1.0000
  Fe  Fe351     1.0  0.34335  0.61765  0.55953  1.0000
  H   H2032     1.0  0.35900  0.57458  0.54742  1.0000
  H   H2033     1.0  0.16329  0.68297  0.54910  1.0000
  H   H2034     1.0  0.36991  0.49299  0.51897  1.0000
  H   H2035     1.0  0.46571  0.62332  0.37446  1.0000
  C   C2031     1.0  0.10395  0.69981  0.44422  1.0000
  C   C2032     1.0  0.20448  0.61949  0.54693  1.0000
  H   H2036     1.0  0.18581  0.49689  0.42276  1.0000
  C   C2033     1.0  0.41808  0.61886  0.54420  1.0000
  H   H2037     1.0  0.25542  0.52563  0.37278  1.0000
  N   N176      1.0  0.20847  0.60437  0.54554  1.0000
  H   H2038     1.0  0.09395  0.63171  0.51917  1.0000
  C   C2034     1.0  0.26362  0.51375  0.54423  1.0000
  H   H2039     1.0  0.27491  0.51280  0.54634  1.0000
  H   H2040     1.0  0.13238  0.51732  0.39502  1.0000
  H   H2041     1.0  0.25714  0.50640  0.50596  1.0000
  C   C2035     1.0  0.99895  0.63853  0.46092  1.0000
  S   S690      1.0  0.16937  0.58516  0.56161  1.0000
  C   C2036     1.0  0.27225  0.49733  0.39817  1.0000
  S   S691      1.0  0.20158  0.54976  0.54798  1.0000
  H   H2042     1.0  0.10148  0.70147  0.46750  1.0000
  H   H2043     1.0  0.36107  0.55812  0.52912  1.0000
  H   H2044     1.0  0.00461  0.62581  0.48265  1.0000
  C   C2037     1.0  0.07076  0.68125  0.38521  1.0000
  H   H2045     1.0  0.30810  0.59079  0.54999  1.0000
  C   C2038     1.0  0.13829  0.50944  0.38693  1.0000
  S   S692      1.0  0.16585  0.54798  0.54972  1.0000
  C   C2039     1.0  0.23580  0.51837  0.55258  1.0000
  C   C2040     1.0  0.21968  0.59391  0.55245  1.0000
  C   C2041     1.0  0.42651  0.62282  0.55242  1.0000
  C   C2042     1.0  0.17902  0.57236  0.37141  1.0000
  H   H2046     1.0  0.13257  0.70495  0.46975  1.0000
  H   H2047     1.0  0.03831  0.57695  0.48057  1.0000
  H   H2048     1.0  0.12954  0.50490  0.38438  1.0000
  H   H2049     1.0  0.40632  0.60188  0.54365  1.0000
  C   C2043     1.0  0.25026  0.51666  0.55561  1.0000
  H   H2050     1.0  0.19662  0.55911  0.38384  1.0000
  C   C2044     1.0  0.16708  0.67318  0.55785  1.0000
  C   C2045     1.0  0.35241  0.56674  0.55599  1.0000
  C   C2046     1.0  0.99515  0.59704  0.45704  1.0000
  C   C2047     1.0  0.36550  0.48284  0.52021  1.0000
  S   S693      1.0  0.32292  0.60980  0.55842  1.0000
  C   C2048     1.0  0.36221  0.54821  0.53915  1.0000
  H   H2051     1.0  0.48509  0.67020  0.46671  1.0000
  H   H2052     1.0  0.14858  0.62921  0.56200  1.0000
  C   C2049     1.0  0.15842  0.47872  0.41537  1.0000
  H   H2053     1.0  0.48346  0.72188  0.41584  1.0000
  H   H2054     1.0  0.20804  0.63624  0.55727  1.0000
  H   H2055     1.0  0.34473  0.53161  0.56246  1.0000
  C   C2050     1.0  0.36207  0.47754  0.56484  1.0000
  Fe  Fe352     1.0  0.11132  0.47809  0.48254  1.0000
  C   C2051     1.0  0.98797  0.64237  0.45179  1.0000
  C   C2052     1.0  0.15636  0.72307  0.53999  1.0000
  Fe  Fe353     1.0  0.17756  0.52818  0.36707  1.0000
  C   C2053     1.0  0.48454  0.71438  0.43975  1.0000
  H   H2056     1.0  0.12992  0.72529  0.46012  1.0000
  C   C2054     1.0  0.32553  0.48172  0.38900  1.0000
  H   H2057     1.0  0.25113  0.51782  0.56666  1.0000
  H   H2058     1.0  0.17574  0.63384  0.56592  1.0000
  H   H2059     1.0  0.44893  0.62192  0.56641  1.0000
  H   H2060     1.0  0.34624  0.64961  0.36767  1.0000
  C   C2055     1.0  0.28970  0.63065  0.36789  1.0000
  H   H2061     1.0  0.40021  0.61811  0.36837  1.0000
  C   C2056     1.0  0.40799  0.59403  0.36732  1.0000
  H   H2062     1.0  0.98591  0.59994  0.45089  1.0000
  C   C2057     1.0  0.17374  0.47754  0.38975  1.0000
  C   C2058     1.0  0.45032  0.61468  0.36681  1.0000
  C   C2059     1.0  0.46478  0.61659  0.36695  1.0000
  Fe  Fe354     1.0  0.30942  0.66740  0.65570  1.0000
  S   S694      1.0  0.33247  0.65552  0.64373  1.0000
  Fe  Fe355     1.0  0.29385  0.67573  0.68648  1.0000
  S   S695      1.0  0.29702  0.67561  0.70978  1.0000
  Fe  Fe356     1.0  0.27641  0.66416  0.66988  1.0000
  S   S696      1.0  0.25939  0.64904  0.67473  1.0000
  S   S697      1.0  0.29849  0.65389  0.67825  1.0000
  C   C2060     1.0  0.29659  0.71717  0.62063  1.0000
  H   H2063     1.0  0.37035  0.67012  0.60224  1.0000
  S   S698      1.0  0.34517  0.62251  0.58120  1.0000
  C   C2061     1.0  0.08143  0.68904  0.60176  1.0000
  H   H2064     1.0  0.47090  0.55643  0.75582  1.0000
  C   C2062     1.0  0.09590  0.72694  0.68370  1.0000
  C   C2063     1.0  0.17876  0.59945  0.57848  1.0000
  C   C2064     1.0  0.06321  0.68188  0.75477  1.0000
  S   S699      1.0  0.48520  0.55978  0.62369  1.0000
  H   H2065     1.0  0.02768  0.69639  0.63746  1.0000
  C   C2065     1.0  0.48409  0.57886  0.68466  1.0000
  H   H2066     1.0  0.21147  0.56441  0.58967  1.0000
  Fe  Fe357     1.0  0.46249  0.55898  0.61993  1.0000
  S   S700      1.0  0.44782  0.57135  0.63852  1.0000
  S   S701      1.0  0.45696  0.53846  0.61575  1.0000
  Fe  Fe358     1.0  0.44863  0.59302  0.62007  1.0000
  S   S702      1.0  0.42852  0.61288  0.61576  1.0000
  H   H2067     1.0  0.37051  0.64851  0.73683  1.0000
  N   N177      1.0  0.35605  0.69264  0.59638  1.0000
  S   S703      1.0  0.46130  0.58040  0.60122  1.0000
  C   C2066     1.0  0.26991  0.63453  0.74041  1.0000
  Fe  Fe359     1.0  0.38917  0.68071  0.73317  1.0000
  H   H2068     1.0  0.22935  0.50329  0.74765  1.0000
  Fe  Fe360     1.0  0.36409  0.70435  0.71841  1.0000
  H   H2069     1.0  0.47074  0.63843  0.71433  1.0000
  S   S704      1.0  0.39003  0.69967  0.71191  1.0000
  H   H2070     1.0  0.02575  0.68559  0.62499  1.0000
  C   C2067     1.0  0.14656  0.70625  0.58833  1.0000
  C   C2068     1.0  0.43017  0.63677  0.73789  1.0000
  H   H2071     1.0  0.12702  0.70181  0.58296  1.0000
  H   H2072     1.0  0.24673  0.62611  0.67025  1.0000
  S   S705      1.0  0.06720  0.68684  0.68970  1.0000
  H   H2073     1.0  0.34636  0.66405  0.72551  1.0000
  H   H2074     1.0  0.25874  0.51549  0.75649  1.0000
  Fe  Fe361     1.0  0.22381  0.63140  0.61868  1.0000
  S   S706      1.0  0.20158  0.64502  0.63034  1.0000
  S   S707      1.0  0.24614  0.63864  0.61535  1.0000
  Fe  Fe362     1.0  0.20765  0.61038  0.61163  1.0000
  S   S708      1.0  0.18394  0.62221  0.62275  1.0000
  S   S709      1.0  0.21304  0.58931  0.60156  1.0000
  Fe  Fe363     1.0  0.19220  0.64420  0.61084  1.0000
  S   S710      1.0  0.17789  0.66590  0.59891  1.0000
  Fe  Fe364     1.0  0.19542  0.62194  0.64131  1.0000
  S   S711      1.0  0.18338  0.61708  0.66641  1.0000
  S   S712      1.0  0.21500  0.63243  0.59808  1.0000
  S   S713      1.0  0.21857  0.60822  0.63120  1.0000
  C   C2069     1.0  0.12899  0.65234  0.58002  1.0000
  C   C2070     1.0  0.36736  0.64486  0.76130  1.0000
  C   C2071     1.0  0.19199  0.54436  0.70547  1.0000
  C   C2072     1.0  0.34144  0.65435  0.73373  1.0000
  H   H2075     1.0  0.41684  0.65523  0.69965  1.0000
  H   H2076     1.0  0.06311  0.67884  0.74429  1.0000
  C   C2073     1.0  0.45068  0.64481  0.74334  1.0000
  H   H2077     1.0  0.47515  0.48275  0.61913  1.0000
  H   H2078     1.0  0.34525  0.64407  0.72845  1.0000
  C   C2074     1.0  0.08881  0.69289  0.58623  1.0000
  H   H2079     1.0  0.33254  0.71413  0.62173  1.0000
  H   H2080     1.0  0.27199  0.63675  0.75049  1.0000
  C   C2075     1.0  0.21777  0.51014  0.74720  1.0000
  S   S714      1.0  0.23020  0.60103  0.70983  1.0000
  C   C2076     1.0  0.10235  0.71231  0.68019  1.0000
  H   H2081     1.0  0.15279  0.62057  0.59571  1.0000
  H   H2082     1.0  0.99730  0.67111  0.68205  1.0000
  H   H2083     1.0  0.09789  0.70857  0.67247  1.0000
  C   C2077     1.0  0.42567  0.59918  0.57096  1.0000
  C   C2078     1.0  0.26655  0.62041  0.74106  1.0000
  H   H2084     1.0  0.12264  0.65657  0.57088  1.0000
  C   C2079     1.0  0.11408  0.70228  0.68724  1.0000
  Fe  Fe365     1.0  0.18556  0.48055  0.73666  1.0000
  H   H2085     1.0  0.28587  0.70747  0.69399  1.0000
  H   H2086     1.0  0.17707  0.49865  0.60004  1.0000
  H   H2087     1.0  0.12802  0.63010  0.56792  1.0000
  H   H2088     1.0  0.44553  0.66865  0.74513  1.0000
  H   H2089     1.0  0.48117  0.56880  0.69321  1.0000
  C   C2080     1.0  0.19616  0.61274  0.67870  1.0000
  C   C2081     1.0  0.21204  0.61124  0.67256  1.0000
  C   C2082     1.0  0.22233  0.60748  0.68230  1.0000
  C   C2083     1.0  0.21681  0.60541  0.69822  1.0000
  C   C2084     1.0  0.20090  0.60688  0.70450  1.0000
  C   C2085     1.0  0.19056  0.61056  0.69470  1.0000
  H   H2090     1.0  0.21643  0.61298  0.66029  1.0000
  H   H2091     1.0  0.23464  0.60591  0.67746  1.0000
  H   H2092     1.0  0.19656  0.60530  0.71682  1.0000
  H   H2093     1.0  0.17824  0.61174  0.69950  1.0000
  C   C2086     1.0  0.20010  0.58793  0.59147  1.0000
  C   C2087     1.0  0.18822  0.60052  0.58752  1.0000
  N   N178      1.0  0.15496  0.47787  0.62961  1.0000
  Fe  Fe366     1.0  0.06144  0.72389  0.63985  1.0000
  C   C2088     1.0  0.19247  0.51309  0.74228  1.0000
  C   C2089     1.0  0.20231  0.57421  0.58657  1.0000
  H   H2094     1.0  0.18656  0.61114  0.59118  1.0000
  H   H2095     1.0  0.16987  0.60928  0.57504  1.0000
  C   C2090     1.0  0.28167  0.71951  0.68780  1.0000
  C   C2091     1.0  0.12838  0.72579  0.57488  1.0000
  C   C2092     1.0  0.14535  0.64203  0.60325  1.0000
  C   C2093     1.0  0.17566  0.66294  0.58188  1.0000
  C   C2094     1.0  0.17813  0.64788  0.57986  1.0000
  Fe  Fe367     1.0  0.22136  0.55729  0.75558  1.0000
  H   H2096     1.0  0.18225  0.63810  0.58846  1.0000
  C   C2095     1.0  0.27060  0.64573  0.72667  1.0000
  C   C2096     1.0  0.26102  0.60245  0.72930  1.0000
  C   C2097     1.0  0.36031  0.69320  0.57979  1.0000
  H   H2097     1.0  0.41939  0.67486  0.73960  1.0000
  C   C2098     1.0  0.26454  0.62849  0.71486  1.0000
  C   C2099     1.0  0.42084  0.65176  0.73748  1.0000
  H   H2098     1.0  0.17648  0.53485  0.74488  1.0000
  C   C2100     1.0  0.12821  0.66236  0.58926  1.0000
  H   H2099     1.0  0.17639  0.63318  0.72844  1.0000
  C   C2101     1.0  0.18218  0.48835  0.62252  1.0000
  S   S715      1.0  0.00544  0.72282  0.65254  1.0000
  H   H2100     1.0  0.42589  0.62785  0.73590  1.0000
  C   C2102     1.0  0.46765  0.64620  0.70360  1.0000
  H   H2101     1.0  0.36241  0.66889  0.63025  1.0000
  C   C2103     1.0  0.05197  0.72377  0.58934  1.0000
  C   C2104     1.0  0.08781  0.69212  0.72065  1.0000
  C   C2105     1.0  0.08326  0.68564  0.71101  1.0000
  C   C2106     1.0  0.07216  0.69459  0.70249  1.0000
  H   H2102     1.0  0.44097  0.53723  0.65130  1.0000
  S   S716      1.0  0.06846  0.72494  0.66074  1.0000
  H   H2103     1.0  0.08856  0.67380  0.70990  1.0000
  C   C2107     1.0  0.20524  0.54450  0.70997  1.0000
  H   H2104     1.0  0.26821  0.65139  0.70311  1.0000
  H   H2105     1.0  0.27334  0.65669  0.72593  1.0000
  H   H2106     1.0  0.09881  0.71020  0.56830  1.0000
  H   H2107     1.0  0.25746  0.60213  0.71889  1.0000
  H   H2108     1.0  0.07243  0.69655  0.62327  1.0000
  C   C2108     1.0  0.09004  0.71754  0.58991  1.0000
  C   C2109     1.0  0.13657  0.65719  0.60085  1.0000
  S   S717      1.0  0.34296  0.66649  0.57183  1.0000
  C   C2110     1.0  0.06539  0.70991  0.70389  1.0000
  S   S718      1.0  0.46940  0.64100  0.74668  1.0000
  H   H2109     1.0  0.44760  0.61232  0.69061  1.0000
  C   C2111     1.0  0.11937  0.70703  0.69752  1.0000
  H   H2110     1.0  0.16703  0.71454  0.60398  1.0000
  H   H2111     1.0  0.21089  0.49279  0.74059  1.0000
  H   H2112     1.0  0.26752  0.49674  0.76627  1.0000
  C   C2112     1.0  0.36211  0.64783  0.74776  1.0000
  C   C2113     1.0  0.16071  0.48937  0.57333  1.0000
  C   C2114     1.0  0.17063  0.67560  0.57061  1.0000
  H   H2113     1.0  0.11879  0.69071  0.68500  1.0000
  C   C2115     1.0  0.46722  0.50738  0.61754  1.0000
  S   S719      1.0  0.17932  0.50605  0.73695  1.0000
  C   C2116     1.0  0.15959  0.48663  0.61530  1.0000
  S   S720      1.0  0.47003  0.59692  0.62401  1.0000
  C   C2117     1.0  0.13331  0.71043  0.58223  1.0000
  C   C2118     1.0  0.00151  0.69346  0.66873  1.0000
  H   H2114     1.0  0.23825  0.48132  0.76593  1.0000
  Fe  Fe368     1.0  0.36326  0.70079  0.75209  1.0000
  H   H2115     1.0  0.45827  0.50849  0.61158  1.0000
  H   H2116     1.0  0.01203  0.70357  0.62749  1.0000
  S   S721      1.0  0.22659  0.53178  0.75586  1.0000
  H   H2117     1.0  0.36794  0.70149  0.57382  1.0000
  C   C2119     1.0  0.34708  0.69150  0.62786  1.0000
  C   C2120     1.0  0.20736  0.50419  0.74317  1.0000
  C   C2121     1.0  0.42829  0.64758  0.69847  1.0000
  C   C2122     1.0  0.48222  0.58117  0.66962  1.0000
  C   C2123     1.0  0.45964  0.53025  0.66329  1.0000
  Fe  Fe369     1.0  0.02867  0.72127  0.65729  1.0000
  C   C2124     1.0  0.39374  0.59742  0.60004  1.0000
  C   C2125     1.0  0.40474  0.58637  0.60749  1.0000
  C   C2126     1.0  0.41524  0.59108  0.61267  1.0000
  C   C2127     1.0  0.41453  0.60687  0.61069  1.0000
  C   C2128     1.0  0.40316  0.61794  0.60376  1.0000
  C   C2129     1.0  0.39283  0.61322  0.59833  1.0000
  H   H2118     1.0  0.40544  0.57414  0.60885  1.0000
  H   H2119     1.0  0.42397  0.58248  0.61804  1.0000
  H   H2120     1.0  0.40252  0.63015  0.60233  1.0000
  H   H2121     1.0  0.38416  0.62178  0.59287  1.0000
  C   C2130     1.0  0.44922  0.51234  0.65652  1.0000
  Fe  Fe370     1.0  0.48273  0.58245  0.60658  1.0000
  C   C2131     1.0  0.33467  0.65847  0.62386  1.0000
  C   C2132     1.0  0.34610  0.64808  0.61594  1.0000
  C   C2133     1.0  0.34857  0.65055  0.59994  1.0000
  C   C2134     1.0  0.33979  0.66355  0.59181  1.0000
  C   C2135     1.0  0.32841  0.67405  0.59968  1.0000
  C   C2136     1.0  0.32576  0.67145  0.61577  1.0000
  H   H2122     1.0  0.35308  0.63810  0.62219  1.0000
  H   H2123     1.0  0.35747  0.64247  0.59390  1.0000
  H   H2124     1.0  0.32161  0.68414  0.59338  1.0000
  H   H2125     1.0  0.31713  0.67966  0.62184  1.0000
  C   C2137     1.0  0.25536  0.64657  0.65819  1.0000
  C   C2138     1.0  0.25847  0.65679  0.64397  1.0000
  C   C2139     1.0  0.25544  0.65440  0.63089  1.0000
  C   C2140     1.0  0.24888  0.64201  0.63204  1.0000
  C   C2141     1.0  0.24555  0.63188  0.64629  1.0000
  C   C2142     1.0  0.24891  0.63412  0.65931  1.0000
  H   H2126     1.0  0.26294  0.66672  0.64306  1.0000
  H   H2127     1.0  0.25800  0.66227  0.61988  1.0000
  H   H2128     1.0  0.24080  0.62210  0.64717  1.0000
  C   C2143     1.0  0.31362  0.68230  0.70815  1.0000
  C   C2144     1.0  0.32516  0.68256  0.69464  1.0000
  C   C2145     1.0  0.33721  0.69001  0.69231  1.0000
  C   C2146     1.0  0.33813  0.69671  0.70375  1.0000
  C   C2147     1.0  0.32722  0.69552  0.71777  1.0000
  C   C2148     1.0  0.31487  0.68842  0.71991  1.0000
  H   H2129     1.0  0.32476  0.67711  0.68589  1.0000
  C   C2149     1.0  0.18803  0.52793  0.74551  1.0000
  H   H2130     1.0  0.32786  0.70075  0.72663  1.0000
  H   H2131     1.0  0.30600  0.68817  0.73045  1.0000
  H   H2132     1.0  0.19296  0.49220  0.61962  1.0000
  C   C2150     1.0  0.35799  0.67925  0.62227  1.0000
  H   H2133     1.0  0.05682  0.71690  0.69738  1.0000
  H   H2134     1.0  0.47861  0.51977  0.67473  1.0000
  H   H2135     1.0  0.48540  0.54397  0.59223  1.0000
  H   H2136     1.0  0.31030  0.68571  0.75878  1.0000
  C   C2151     1.0  0.30783  0.72327  0.68435  1.0000
  C   C2152     1.0  0.42644  0.66324  0.74002  1.0000
  N   N179      1.0  0.47983  0.53198  0.75870  1.0000
  H   H2137     1.0  0.14100  0.61497  0.57804  1.0000
  S   S722      1.0  0.48277  0.60410  0.72737  1.0000
  H   H2138     1.0  0.48562  0.54441  0.73534  1.0000
  N   N180      1.0  0.20058  0.64809  0.69793  1.0000
  C   C2153     1.0  0.21154  0.64633  0.68471  1.0000
  C   C2154     1.0  0.18513  0.65189  0.69777  1.0000
  C   C2155     1.0  0.20712  0.64846  0.67085  1.0000
  C   C2156     1.0  0.18032  0.65371  0.68423  1.0000
  C   C2157     1.0  0.19141  0.65197  0.67071  1.0000
  C   C2158     1.0  0.20543  0.64487  0.71250  1.0000
  H   H2139     1.0  0.22379  0.64305  0.68486  1.0000
  H   H2140     1.0  0.17639  0.65344  0.70815  1.0000
  H   H2141     1.0  0.21580  0.64692  0.66041  1.0000
  H   H2142     1.0  0.16808  0.65617  0.68430  1.0000
  H   H2143     1.0  0.18779  0.65300  0.66023  1.0000
  H   H2144     1.0  0.19643  0.65094  0.72100  1.0000
  H   H2145     1.0  0.20748  0.63218  0.71748  1.0000
  H   H2146     1.0  0.21630  0.64878  0.71067  1.0000
  C   C2159     1.0  0.08240  0.71385  0.60537  1.0000
  C   C2160     1.0  0.07822  0.69951  0.61134  1.0000
  N   N181      1.0  0.15485  0.71702  0.58680  1.0000
  C   C2161     1.0  0.04139  0.70091  0.60052  1.0000
  H   H2147     1.0  0.25155  0.59982  0.73938  1.0000
  C   C2162     1.0  0.17705  0.61745  0.75025  1.0000
  C   C2163     1.0  0.17036  0.61452  0.76599  1.0000
  H   H2148     1.0  0.12827  0.69921  0.70331  1.0000
  H   H2149     1.0  0.26604  0.61170  0.75178  1.0000
  H   H2150     1.0  0.32860  0.65813  0.73549  1.0000
  H   H2151     1.0  0.01308  0.69118  0.67065  1.0000
  C   C2164     1.0  0.15904  0.64248  0.74662  1.0000
  H   H2152     1.0  0.04046  0.68974  0.59958  1.0000
  H   H2153     1.0  0.46861  0.62002  0.69633  1.0000
  N   N182      1.0  0.45981  0.50014  0.66263  1.0000
  C   C2165     1.0  0.18104  0.58580  0.57347  1.0000
  C   C2166     1.0  0.19276  0.57312  0.57765  1.0000
  C   C2167     1.0  0.44511  0.63332  0.74071  1.0000
  S   S723      1.0  0.10970  0.67540  0.75462  1.0000
  Fe  Fe371     1.0  0.10499  0.70123  0.74632  1.0000
  H   H2154     1.0  0.30865  0.71528  0.69530  1.0000
  C   C2168     1.0  0.15212  0.63942  0.76235  1.0000
  S   S724      1.0  0.08641  0.71601  0.73384  1.0000
  N   N183      1.0  0.26398  0.61755  0.72837  1.0000
  N   N184      1.0  0.03411  0.70640  0.61363  1.0000
  S   S725      1.0  0.36147  0.72159  0.73248  1.0000
  C   C2169     1.0  0.17329  0.49194  0.61151  1.0000
  C   C2170     1.0  0.43080  0.63336  0.69454  1.0000
  H   H2155     1.0  0.45201  0.47922  0.67316  1.0000
  S   S726      1.0  0.24092  0.56908  0.74307  1.0000
  C   C2171     1.0  0.30627  0.72260  0.60664  1.0000
  S   S727      1.0  0.28783  0.67586  0.64642  1.0000
  H   H2156     1.0  0.43089  0.62687  0.58012  1.0000
  C   C2172     1.0  0.44544  0.62344  0.69364  1.0000
  C   C2173     1.0  0.17129  0.63129  0.74057  1.0000
  S   S728      1.0  0.05051  0.70346  0.65147  1.0000
  C   C2174     1.0  0.08103  0.70746  0.72198  1.0000
  C   C2175     1.0  0.19842  0.53384  0.74966  1.0000
  H   H2157     1.0  0.02973  0.72476  0.62518  1.0000
  N   N185      1.0  0.34661  0.65061  0.74819  1.0000
  H   H2158     1.0  0.18660  0.60900  0.74548  1.0000
  H   H2159     1.0  0.12118  0.67406  0.58734  1.0000
  S   S729      1.0  0.38208  0.59127  0.59192  1.0000
  H   H2160     1.0  0.15045  0.69425  0.59391  1.0000
  C   C2176     1.0  0.11265  0.72174  0.70076  1.0000
  C   C2177     1.0  0.21333  0.52493  0.75049  1.0000
  C   C2178     1.0  0.36235  0.67999  0.60640  1.0000
  H   H2161     1.0  0.98956  0.71152  0.69336  1.0000
  C   C2179     1.0  0.13885  0.62743  0.57214  1.0000
  C   C2180     1.0  0.44054  0.65174  0.70133  1.0000
  Fe  Fe372     1.0  0.22286  0.58894  0.73433  1.0000
  H   H2162     1.0  0.46455  0.65828  0.70527  1.0000
  H   H2163     1.0  0.45221  0.62173  0.74112  1.0000
  S   S730      1.0  0.20363  0.57622  0.74488  1.0000
  C   C2181     1.0  0.47010  0.50265  0.66936  1.0000
  H   H2164     1.0  0.36633  0.68161  0.57721  1.0000
  H   H2165     1.0  0.47849  0.49297  0.67422  1.0000
  H   H2166     1.0  0.34574  0.69072  0.68154  1.0000
  H   H2167     1.0  0.07801  0.67803  0.60636  1.0000
  H   H2168     1.0  0.34312  0.69071  0.64019  1.0000
  N   N186      1.0  0.13761  0.63748  0.58245  1.0000
  C   C2182     1.0  0.26780  0.64275  0.71384  1.0000
  H   H2169     1.0  0.31280  0.71474  0.59914  1.0000
  S   S731      1.0  0.30644  0.68864  0.66443  1.0000
  Fe  Fe373     1.0  0.37006  0.61029  0.57539  1.0000
  H   H2170     1.0  0.22491  0.55048  0.72223  1.0000
  C   C2183     1.0  0.06970  0.71626  0.71373  1.0000
  H   H2171     1.0  0.17485  0.55757  0.69222  1.0000
  C   C2184     1.0  0.44127  0.65973  0.74309  1.0000
  H   H2172     1.0  0.32788  0.56484  0.59118  1.0000
  C   C2185     1.0  0.45736  0.62790  0.69675  1.0000
  N   N187      1.0  0.21128  0.55747  0.70523  1.0000
  C   C2186     1.0  0.20501  0.57014  0.69524  1.0000
  H   H2173     1.0  0.15280  0.48935  0.60666  1.0000
  C   C2187     1.0  0.19179  0.57044  0.69047  1.0000
  H   H2174     1.0  0.45586  0.48393  0.65230  1.0000
  C   C2188     1.0  0.18517  0.55748  0.69574  1.0000
  C   C2189     1.0  0.22499  0.55749  0.71030  1.0000
  H   H2175     1.0  0.21022  0.58012  0.69093  1.0000
  C   C2190     1.0  0.34361  0.57122  0.56965  1.0000
  H   H2176     1.0  0.18673  0.58069  0.68274  1.0000
  C   C2191     1.0  0.99528  0.70780  0.66009  1.0000
  H   H2177     1.0  0.33175  0.69858  0.75514  1.0000
  S   S732      1.0  0.47494  0.56774  0.66488  1.0000
  H   H2178     1.0  0.23568  0.55270  0.70241  1.0000
  H   H2179     1.0  0.22529  0.56945  0.71049  1.0000
  H   H2180     1.0  0.05425  0.70628  0.74684  1.0000
  Fe  Fe374     1.0  0.05561  0.70610  0.67290  1.0000
  H   H2181     1.0  0.19483  0.54521  0.75233  1.0000
  C   C2192     1.0  0.32736  0.69192  0.76637  1.0000
  H   H2182     1.0  0.18702  0.53414  0.70961  1.0000
  S   S733      1.0  0.36334  0.68418  0.73842  1.0000
  H   H2183     1.0  0.11644  0.72520  0.70913  1.0000
  C   C2193     1.0  0.02444  0.69750  0.62645  1.0000
  H   H2184     1.0  0.37962  0.64332  0.76078  1.0000
  C   C2194     1.0  0.48087  0.51899  0.62859  1.0000
  H   H2185     1.0  0.42137  0.62999  0.69234  1.0000
  H   H2186     1.0  0.34104  0.71510  0.59374  1.0000
  Fe  Fe375     1.0  0.38748  0.71527  0.72766  1.0000
  H   H2187     1.0  0.41283  0.58431  0.56790  1.0000
  H   H2188     1.0  0.29579  0.70514  0.62393  1.0000
  H   H2189     1.0  0.15211  0.63799  0.61206  1.0000
  C   C2195     1.0  0.47097  0.54513  0.76355  1.0000
  S   S734      1.0  0.40254  0.65609  0.73303  1.0000
  H   H2190     1.0  0.13636  0.66491  0.60791  1.0000
  C   C2196     1.0  0.14574  0.63226  0.59389  1.0000
  H   H2191     1.0  0.31219  0.64090  0.57162  1.0000
  H   H2192     1.0  0.17799  0.71890  0.58431  1.0000
  H   H2193     1.0  0.21059  0.53421  0.71736  1.0000
  S   S735      1.0  0.35184  0.70805  0.69948  1.0000
  C   C2197     1.0  0.05818  0.69729  0.75622  1.0000
  C   C2198     1.0  0.34582  0.70496  0.60172  1.0000
  H   H2194     1.0  0.26249  0.62628  0.70475  1.0000
  N   N188      1.0  0.29835  0.63973  0.60978  1.0000
  C   C2199     1.0  0.30703  0.64339  0.59519  1.0000
  C   C2200     1.0  0.28774  0.63083  0.61279  1.0000
  H   H2195     1.0  0.47802  0.64502  0.69398  1.0000
  C   C2201     1.0  0.28550  0.62549  0.60100  1.0000
  C   C2202     1.0  0.29433  0.62913  0.58612  1.0000
  C   C2203     1.0  0.30066  0.64532  0.62215  1.0000
  H   H2196     1.0  0.31552  0.65034  0.59280  1.0000
  H   H2197     1.0  0.28079  0.62791  0.62431  1.0000
  C   C2204     1.0  0.09329  0.70707  0.58034  1.0000
  H   H2198     1.0  0.27681  0.61875  0.60340  1.0000
  Fe  Fe376     1.0  0.20105  0.58629  0.76525  1.0000
  H   H2199     1.0  0.31257  0.64006  0.62415  1.0000
  H   H2200     1.0  0.29907  0.65814  0.61898  1.0000
  H   H2201     1.0  0.29226  0.64241  0.63319  1.0000
  N   N189      1.0  0.45487  0.64195  0.70038  1.0000
  S   S736      1.0  0.38913  0.69581  0.74849  1.0000
  H   H2202     1.0  0.19436  0.56240  0.57422  1.0000
  S   S737      1.0  0.21881  0.60072  0.75364  1.0000
  H   H2203     1.0  0.09660  0.68527  0.72694  1.0000
  S   S738      1.0  0.27057  0.68487  0.68038  1.0000
  C   C2205     1.0  0.03550  0.72041  0.61480  1.0000
  Fe  Fe377     1.0  0.28364  0.69587  0.65752  1.0000
  C   C2206     1.0  0.16930  0.71235  0.59228  1.0000
  S   S739      1.0  0.15279  0.66031  0.73446  1.0000
  H   H2204     1.0  0.05656  0.70493  0.57796  1.0000
  C   C2207     1.0  0.19149  0.48048  0.57638  1.0000
  Fe  Fe378     1.0  0.13473  0.67686  0.74770  1.0000
  C   C2208     1.0  0.33491  0.56136  0.58065  1.0000
  H   H2205     1.0  0.27159  0.59319  0.73069  1.0000
  C   C2209     1.0  0.05040  0.70952  0.58817  1.0000
  S   S740      1.0  0.12998  0.70247  0.73740  1.0000
  H   H2206     1.0  0.48494  0.59595  0.64698  1.0000
  C   C2210     1.0  0.17712  0.47981  0.63724  1.0000
  H   H2207     1.0  0.44116  0.51043  0.65101  1.0000
  Fe  Fe379     1.0  0.47050  0.57400  0.64094  1.0000
  H   H2208     1.0  0.27419  0.72640  0.69635  1.0000
  C   C2211     1.0  0.30518  0.63814  0.58316  1.0000
  S   S741      1.0  0.27530  0.72100  0.64750  1.0000
  C   C2212     1.0  0.44901  0.52756  0.65669  1.0000
  C   C2213     1.0  0.46924  0.52048  0.62095  1.0000
  C   C2214     1.0  0.43870  0.61765  0.57419  1.0000
  Fe  Fe380     1.0  0.12891  0.70500  0.76107  1.0000
  H   H2209     1.0  0.16961  0.68726  0.57160  1.0000
  H   H2210     1.0  0.27456  0.71872  0.68023  1.0000
  C   C2215     1.0  0.33532  0.54703  0.57802  1.0000
  H   H2211     1.0  0.14874  0.49289  0.57228  1.0000
  C   C2216     1.0  0.34106  0.70453  0.61754  1.0000
  H   H2212     1.0  0.42852  0.59140  0.58145  1.0000
  S   S742      1.0  0.13780  0.72314  0.76592  1.0000
  H   H2213     1.0  0.34340  0.58237  0.57162  1.0000
  H   H2214     1.0  0.45979  0.54203  0.66328  1.0000
  C   C2217     1.0  0.45976  0.48424  0.66251  1.0000
  H   H2215     1.0  0.43835  0.66266  0.70475  1.0000
  H   H2216     1.0  0.48237  0.52897  0.63145  1.0000
  H   H2217     1.0  0.34971  0.69686  0.57498  1.0000
  C   C2218     1.0  0.47673  0.49280  0.62185  1.0000
  H   H2218     1.0  0.44298  0.60785  0.58323  1.0000
  C   C2219     1.0  0.18597  0.49535  0.56812  1.0000
  C   C2220     1.0  0.47024  0.51773  0.66970  1.0000
  S   S743      1.0  0.09181  0.68015  0.57416  1.0000
  S   S744      1.0  0.03275  0.72212  0.67979  1.0000
  H   H2219     1.0  0.07303  0.65855  0.76555  1.0000
  H   H2220     1.0  0.32866  0.53920  0.58651  1.0000
  H   H2221     1.0  0.13051  0.48143  0.63693  1.0000
  C   C2221     1.0  0.99257  0.68212  0.67517  1.0000
  H   H2222     1.0  0.22781  0.61707  0.57061  1.0000
  H   H2223     1.0  0.29283  0.62496  0.57688  1.0000
  H   H2224     1.0  0.17468  0.69984  0.59264  1.0000
  N   N190      1.0  0.29470  0.72668  0.67880  1.0000
  Fe  Fe381     1.0  0.23544  0.57985  0.76335  1.0000
  C   C2222     1.0  0.33607  0.64981  0.76199  1.0000
  H   H2225     1.0  0.32375  0.65196  0.76243  1.0000
  H   H2226     1.0  0.23525  0.58988  0.56751  1.0000
  C   C2223     1.0  0.17451  0.64547  0.56711  1.0000
  H   H2227     1.0  0.33083  0.72716  0.68039  1.0000
  C   C2224     1.0  0.06875  0.67052  0.76669  1.0000
  H   H2228     1.0  0.32638  0.49808  0.85633  1.0000
  H   H2229     1.0  0.28182  0.53377  0.85585  1.0000
  H   H2230     1.0  0.13074  0.70636  0.94196  1.0000
  C   C2225     1.0  0.32326  0.48810  0.85506  1.0000
  H   H2231     1.0  0.31046  0.50125  0.83758  1.0000
  C   C2226     1.0  0.01283  0.67677  0.95774  1.0000
  C   C2227     1.0  0.40344  0.49717  0.87505  1.0000
  H   H2232     1.0  0.38556  0.50516  0.92725  1.0000
  H   H2233     1.0  0.47318  0.50538  0.79191  1.0000
  H   H2234     1.0  0.37733  0.50509  0.83950  1.0000
  S   S745      1.0  0.14987  0.71687  0.84520  1.0000
  H   H2235     1.0  0.24819  0.71158  0.84159  1.0000
  S   S746      1.0  0.38332  0.52229  0.86174  1.0000
  C   C2228     1.0  0.22140  0.65253  0.83743  1.0000
  C   C2229     1.0  0.10317  0.67595  0.93614  1.0000
  S   S747      1.0  0.35303  0.49306  0.93496  1.0000
  C   C2230     1.0  0.47233  0.51661  0.78401  1.0000
  H   H2236     1.0  0.32837  0.61275  0.85952  1.0000
  C   C2231     1.0  0.01939  0.67300  0.94332  1.0000
  N   N191      1.0  0.18540  0.71949  0.91327  1.0000
  C   C2232     1.0  0.06163  0.65954  0.95577  1.0000
  C   C2233     1.0  0.25639  0.53027  0.77786  1.0000
  S   S748      1.0  0.25596  0.71387  0.91459  1.0000
  Fe  Fe382     1.0  0.36245  0.51419  0.87798  1.0000
  C   C2234     1.0  0.42549  0.50974  0.89654  1.0000
  H   H2237     1.0  0.27251  0.49307  0.79141  1.0000
  C   C2235     1.0  0.01814  0.68756  0.96188  1.0000
  H   H2238     1.0  0.26374  0.71901  0.86154  1.0000
  H   H2239     1.0  0.18634  0.50863  0.77576  1.0000
  H   H2240     1.0  0.45626  0.55485  0.78278  1.0000
  C   C2236     1.0  0.26682  0.52816  0.79971  1.0000
  H   H2241     1.0  0.13179  0.65384  0.80791  1.0000
  H   H2242     1.0  0.13087  0.67571  0.85131  1.0000
  C   C2237     1.0  0.42977  0.50621  0.85467  1.0000
  H   H2243     1.0  0.16709  0.72650  0.93149  1.0000
  S   S749      1.0  0.44986  0.48162  0.86864  1.0000
  C   C2238     1.0  0.22471  0.67516  0.84337  1.0000
  H   H2244     1.0  0.08806  0.64509  0.94008  1.0000
  Fe  Fe383     1.0  0.08427  0.68395  0.87606  1.0000
  S   S750      1.0  0.05869  0.68601  0.88556  1.0000
  S   S751      1.0  0.09389  0.69879  0.85369  1.0000
  Fe  Fe384     1.0  0.09330  0.65692  0.90222  1.0000
  S   S752      1.0  0.06846  0.65817  0.91407  1.0000
  Fe  Fe385     1.0  0.06458  0.65982  0.89089  1.0000
  S   S753      1.0  0.05689  0.63900  0.89008  1.0000
  Fe  Fe386     1.0  0.06543  0.68376  0.90773  1.0000
  S   S754      1.0  0.05259  0.69804  0.92537  1.0000
  S   S755      1.0  0.08951  0.65837  0.87909  1.0000
  S   S756      1.0  0.09088  0.68265  0.89805  1.0000
  Fe  Fe387     1.0  0.27052  0.64863  0.84120  1.0000
  S   S757      1.0  0.29559  0.64618  0.82933  1.0000
  S   S758      1.0  0.25796  0.66083  0.86068  1.0000
  Fe  Fe388     1.0  0.26420  0.63016  0.82176  1.0000
  S   S759      1.0  0.28880  0.62601  0.80833  1.0000
  S   S760      1.0  0.24389  0.62361  0.81801  1.0000
  Fe  Fe389     1.0  0.29504  0.62146  0.83118  1.0000
  S   S761      1.0  0.31596  0.60354  0.83733  1.0000
  Fe  Fe390     1.0  0.28721  0.65093  0.80762  1.0000
  H   H2245     1.0  0.15246  0.62310  0.78419  1.0000
  S   S762      1.0  0.27050  0.62350  0.84485  1.0000
  S   S763      1.0  0.26208  0.65556  0.81931  1.0000
  Fe  Fe391     1.0  0.32784  0.52437  0.88943  1.0000
  S   S764      1.0  0.32593  0.50119  0.90524  1.0000
  S   S765      1.0  0.30582  0.54234  0.88700  1.0000
  H   H2246     1.0  0.07774  0.72480  0.86928  1.0000
  C   C2239     1.0  0.06898  0.67474  0.78000  1.0000
  Fe  Fe392     1.0  0.34759  0.50224  0.91122  1.0000
  S   S766      1.0  0.34207  0.51465  0.86894  1.0000
  S   S767      1.0  0.34825  0.52630  0.89702  1.0000
  H   H2247     1.0  0.22158  0.65253  0.80482  1.0000
  C   C2240     1.0  0.08263  0.71992  0.90541  1.0000
  N   N192      1.0  0.28850  0.51275  0.87214  1.0000
  H   H2248     1.0  0.18305  0.48190  0.78034  1.0000
  N   N193      1.0  0.27096  0.71463  0.83902  1.0000
  H   H2249     1.0  0.21809  0.69672  0.82764  1.0000
  C   C2241     1.0  0.15928  0.69979  0.77901  1.0000
  C   C2242     1.0  0.30585  0.60186  0.87980  1.0000
  C   C2243     1.0  0.19977  0.71388  0.91664  1.0000
  H   H2250     1.0  0.16017  0.69409  0.76997  1.0000
  N   N194      1.0  0.26155  0.51462  0.77885  1.0000
  S   S768      1.0  0.46816  0.50068  0.82616  1.0000
  C   C2244     1.0  0.21051  0.70222  0.90983  1.0000
  N   N195      1.0  0.30483  0.61701  0.87207  1.0000
  H   H2251     1.0  0.26902  0.53350  0.80773  1.0000
  C   C2245     1.0  0.31424  0.48987  0.84443  1.0000
  S   S769      1.0  0.21738  0.56626  0.77688  1.0000
  S   S770      1.0  0.36313  0.49022  0.89254  1.0000
  H   H2252     1.0  0.11549  0.71549  0.85685  1.0000
  H   H2253     1.0  0.05431  0.70351  0.79844  1.0000
  C   C2246     1.0  0.21372  0.48961  0.79664  1.0000
  H   H2254     1.0  0.22257  0.64006  0.84013  1.0000
  S   S771      1.0  0.48084  0.53979  0.81985  1.0000
  C   C2247     1.0  0.46340  0.52997  0.78909  1.0000
  C   C2248     1.0  0.05890  0.70115  0.76953  1.0000
  S   S772      1.0  0.29029  0.70346  0.87883  1.0000
  H   H2255     1.0  0.24705  0.50445  0.77239  1.0000
  C   C2249     1.0  0.39916  0.48911  0.84204  1.0000
  H   H2256     1.0  0.11383  0.68003  0.93121  1.0000
  H   H2257     1.0  0.23868  0.70869  0.86810  1.0000
  H   H2258     1.0  0.06311  0.72087  0.89641  1.0000
  H   H2259     1.0  0.42874  0.48028  0.84101  1.0000
  C   C2250     1.0  0.23054  0.72518  0.88263  1.0000
  N   N196      1.0  0.12385  0.65299  0.83204  1.0000
  C   C2251     1.0  0.46268  0.54433  0.77881  1.0000
  H   H2260     1.0  0.09065  0.69629  0.94520  1.0000
  S   S773      1.0  0.18177  0.69444  0.85533  1.0000
  S   S774      1.0  0.14579  0.69804  0.88939  1.0000
  C   C2252     1.0  0.35667  0.64434  0.77538  1.0000
  C   C2253     1.0  0.41197  0.50606  0.90674  1.0000
  Fe  Fe393     1.0  0.17317  0.70483  0.83357  1.0000
  S   S775      1.0  0.17710  0.69014  0.81661  1.0000
  C   C2254     1.0  0.28307  0.48860  0.87239  1.0000
  C   C2255     1.0  0.13951  0.67034  0.81476  1.0000
  H   H2261     1.0  0.21049  0.68438  0.81114  1.0000
  H   H2262     1.0  0.20129  0.66188  0.81037  1.0000
  C   C2256     1.0  0.38370  0.51077  0.91543  1.0000
  C   C2257     1.0  0.22947  0.71813  0.87151  1.0000
  H   H2263     1.0  0.25506  0.54973  0.78729  1.0000
  C   C2258     1.0  0.21480  0.67723  0.82119  1.0000
  C   C2259     1.0  0.29148  0.70003  0.82263  1.0000
  N   N197      1.0  0.09878  0.72458  0.87486  1.0000
  C   C2260     1.0  0.48063  0.51785  0.76873  1.0000
  H   H2264     1.0  0.25665  0.69280  0.82476  1.0000
  H   H2265     1.0  0.41291  0.49569  0.91584  1.0000
  H   H2266     1.0  0.13724  0.69042  0.92237  1.0000
  C   C2261     1.0  0.26508  0.69783  0.82671  1.0000
  C   C2262     1.0  0.13179  0.65841  0.81753  1.0000
  C   C2263     1.0  0.34665  0.53174  0.95114  1.0000
  H   H2267     1.0  0.15694  0.72057  0.81098  1.0000
  C   C2264     1.0  0.14950  0.71443  0.77942  1.0000
  H   H2268     1.0  0.27770  0.50489  0.80984  1.0000
  H   H2269     1.0  0.14485  0.68606  0.82495  1.0000
  C   C2265     1.0  0.40978  0.53196  0.88280  1.0000
  C   C2266     1.0  0.15775  0.62542  0.77202  1.0000
  H   H2270     1.0  0.41955  0.47788  0.88544  1.0000
  C   C2267     1.0  0.13684  0.70273  0.91876  1.0000
  H   H2271     1.0  0.05556  0.71325  0.77025  1.0000
  C   C2268     1.0  0.27811  0.60690  0.88929  1.0000
  H   H2272     1.0  0.12385  0.62907  0.83712  1.0000
  C   C2269     1.0  0.21628  0.72289  0.86528  1.0000
  N   N198      1.0  0.39774  0.51521  0.90505  1.0000
  C   C2270     1.0  0.33365  0.69075  0.77884  1.0000
  S   S776      1.0  0.18401  0.72534  0.82701  1.0000
  C   C2271     1.0  0.22588  0.65918  0.84690  1.0000
  S   S777      1.0  0.29663  0.48020  0.83102  1.0000
  N   N199      1.0  0.21580  0.66158  0.82485  1.0000
  N   N200      1.0  0.06392  0.68989  0.78135  1.0000
  C   C2272     1.0  0.31891  0.62246  0.86317  1.0000
  C   C2273     1.0  0.12384  0.65878  0.84414  1.0000
  H   H2273     1.0  0.11777  0.65434  0.85567  1.0000
  S   S778      1.0  0.29487  0.66645  0.78487  1.0000
  C   C2274     1.0  0.11578  0.64051  0.83474  1.0000
  C   C2275     1.0  0.29578  0.50562  0.88408  1.0000
  C   C2276     1.0  0.19161  0.70174  0.89656  1.0000
  C   C2277     1.0  0.35259  0.50589  0.94623  1.0000
  C   C2278     1.0  0.35852  0.49996  0.95963  1.0000
  H   H2274     1.0  0.36054  0.64232  0.78595  1.0000
  H   H2275     1.0  0.29488  0.71486  0.83511  1.0000
  C   C2279     1.0  0.34668  0.52183  0.94199  1.0000
  H   H2276     1.0  0.39342  0.49371  0.88309  1.0000
  H   H2277     1.0  0.34202  0.52653  0.93174  1.0000
  C   C2280     1.0  0.21166  0.65442  0.81471  1.0000
  C   C2281     1.0  0.26732  0.67214  0.86600  1.0000
  C   C2282     1.0  0.25924  0.68020  0.87770  1.0000
  C   C2283     1.0  0.26628  0.68959  0.88198  1.0000
  C   C2284     1.0  0.28150  0.69085  0.87466  1.0000
  C   C2285     1.0  0.28970  0.68251  0.86320  1.0000
  C   C2286     1.0  0.28259  0.67328  0.85878  1.0000
  H   H2278     1.0  0.24743  0.67934  0.88337  1.0000
  H   H2279     1.0  0.25990  0.69592  0.89087  1.0000
  H   H2280     1.0  0.30149  0.68344  0.85752  1.0000
  H   H2281     1.0  0.28891  0.66720  0.84972  1.0000
  C   C2287     1.0  0.24758  0.61200  0.80457  1.0000
  C   C2288     1.0  0.23508  0.60966  0.80031  1.0000
  C   C2289     1.0  0.23767  0.60030  0.78977  1.0000
  C   C2290     1.0  0.25279  0.59312  0.78355  1.0000
  C   C2291     1.0  0.26530  0.59549  0.78775  1.0000
  C   C2292     1.0  0.26271  0.60494  0.79821  1.0000
  H   H2282     1.0  0.22334  0.61506  0.80522  1.0000
  H   H2283     1.0  0.22794  0.59852  0.78661  1.0000
  C   C2293     1.0  0.20641  0.69622  0.89963  1.0000
  H   H2284     1.0  0.27240  0.60653  0.80153  1.0000
  C   C2294     1.0  0.31298  0.58602  0.85014  1.0000
  C   C2295     1.0  0.29806  0.58332  0.85659  1.0000
  C   C2296     1.0  0.29594  0.56979  0.86781  1.0000
  C   C2297     1.0  0.30873  0.55886  0.87248  1.0000
  C   C2298     1.0  0.32367  0.56137  0.86576  1.0000
  C   C2299     1.0  0.32577  0.57496  0.85466  1.0000
  H   H2285     1.0  0.28815  0.59173  0.85311  1.0000
  H   H2286     1.0  0.28436  0.56785  0.87295  1.0000
  H   H2287     1.0  0.33360  0.55296  0.86927  1.0000
  H   H2288     1.0  0.33734  0.57698  0.84966  1.0000
  C   C2300     1.0  0.03680  0.69042  0.93743  1.0000
  C   C2301     1.0  0.03005  0.69442  0.95172  1.0000
  C   C2302     1.0  0.28639  0.71038  0.83253  1.0000
  H   H2289     1.0  0.45743  0.52927  0.80107  1.0000
  H   H2290     1.0  0.38519  0.53465  0.89129  1.0000
  C   C2303     1.0  0.03137  0.67979  0.93319  1.0000
  C   C2304     1.0  0.27722  0.62240  0.88168  1.0000
  C   C2305     1.0  0.21914  0.68427  0.83043  1.0000
  H   H2291     1.0  0.03639  0.67677  0.92209  1.0000
  H   H2292     1.0  0.22210  0.69829  0.91206  1.0000
  C   C2306     1.0  0.09791  0.62226  0.90869  1.0000
  C   C2307     1.0  0.08378  0.62092  0.91910  1.0000
  C   C2308     1.0  0.07060  0.62223  0.91361  1.0000
  C   C2309     1.0  0.07168  0.62479  0.89777  1.0000
  C   C2310     1.0  0.08642  0.62240  0.88803  1.0000
  C   C2311     1.0  0.09959  0.62115  0.89351  1.0000
  H   H2293     1.0  0.08228  0.62181  0.93085  1.0000
  H   H2294     1.0  0.05929  0.62414  0.92125  1.0000
  H   H2295     1.0  0.08740  0.62444  0.87575  1.0000
  H   H2296     1.0  0.11040  0.62226  0.88532  1.0000
  H   H2297     1.0  0.30084  0.51221  0.88864  1.0000
  C   C2312     1.0  0.08858  0.65632  0.94129  1.0000
  C   C2313     1.0  0.16812  0.69257  0.79021  1.0000
  C   C2314     1.0  0.16716  0.69996  0.80186  1.0000
  C   C2315     1.0  0.15769  0.71478  0.80205  1.0000
  C   C2316     1.0  0.14052  0.70954  0.90306  1.0000
  Fe  Fe394     1.0  0.15944  0.70845  0.86650  1.0000
  H   H2298     1.0  0.17552  0.68116  0.78995  1.0000
  H   H2299     1.0  0.11237  0.65432  0.92864  1.0000
  H   H2300     1.0  0.43675  0.50220  0.89758  1.0000
  H   H2301     1.0  0.33251  0.64616  0.78665  1.0000
  H   H2302     1.0  0.34203  0.54407  0.94783  1.0000
  C   C2317     1.0  0.42436  0.52282  0.88454  1.0000
  H   H2303     1.0  0.22819  0.68044  0.85061  1.0000
  C   C2318     1.0  0.41491  0.51509  0.85326  1.0000
  C   C2319     1.0  0.14887  0.72201  0.79083  1.0000
  H   H2304     1.0  0.37394  0.52103  0.91652  1.0000
  S   S779      1.0  0.17796  0.59734  0.77808  1.0000
  H   H2305     1.0  0.05283  0.66716  0.96300  1.0000
  H   H2306     1.0  0.20886  0.64298  0.82084  1.0000
  H   H2307     1.0  0.26766  0.60289  0.89579  1.0000
  C   C2320     1.0  0.25902  0.53728  0.78821  1.0000
  Fe  Fe395     1.0  0.34152  0.49157  0.88509  1.0000
  C   C2321     1.0  0.09604  0.67760  0.81403  1.0000
  C   C2322     1.0  0.10339  0.68979  0.81138  1.0000
  C   C2323     1.0  0.10224  0.69671  0.82348  1.0000
  C   C2324     1.0  0.09373  0.69145  0.83821  1.0000
  C   C2325     1.0  0.08584  0.67973  0.84067  1.0000
  C   C2326     1.0  0.08704  0.67277  0.82860  1.0000
  H   H2308     1.0  0.11047  0.69351  0.80018  1.0000
  H   H2309     1.0  0.10836  0.70578  0.82152  1.0000
  H   H2310     1.0  0.07885  0.67594  0.85189  1.0000
  H   H2311     1.0  0.08118  0.66347  0.83066  1.0000
  Fe  Fe396     1.0  0.11046  0.68025  0.77676  1.0000
  H   H2312     1.0  0.06632  0.68710  0.95558  1.0000
  C   C2327     1.0  0.18117  0.71337  0.90360  1.0000
  H   H2313     1.0  0.28446  0.68571  0.81206  1.0000
  C   C2328     1.0  0.39650  0.52787  0.89313  1.0000
  H   H2314     1.0  0.24066  0.72128  0.88756  1.0000
  C   C2329     1.0  0.06451  0.69425  0.79520  1.0000
  H   H2315     1.0  0.03421  0.70260  0.95509  1.0000
  C   C2330     1.0  0.07648  0.67969  0.95001  1.0000
  C   C2331     1.0  0.07517  0.72167  0.89364  1.0000
  C   C2332     1.0  0.19346  0.49914  0.78240  1.0000
  H   H2316     1.0  0.23046  0.65197  0.85677  1.0000
  H   H2317     1.0  0.28997  0.63936  0.86722  1.0000
  H   H2318     1.0  0.30370  0.69682  0.81737  1.0000
  C   C2333     1.0  0.09016  0.68511  0.94384  1.0000
  H   H2319     1.0  0.27664  0.50997  0.85662  1.0000
  C   C2334     1.0  0.28210  0.50448  0.86632  1.0000
  H   H2320     1.0  0.18827  0.69721  0.88861  1.0000
  H   H2321     1.0  0.38015  0.50254  0.91102  1.0000
  H   H2322     1.0  0.21478  0.68752  0.89390  1.0000
  C   C2335     1.0  0.31517  0.68473  0.76846  1.0000
  C   C2336     1.0  0.29079  0.62730  0.87312  1.0000
  S   S780      1.0  0.09856  0.66782  0.79948  1.0000
  C   C2337     1.0  0.13137  0.67077  0.84177  1.0000
  C   C2338     1.0  0.20473  0.50193  0.78804  1.0000
  H   H2323     1.0  0.29992  0.53130  0.86106  1.0000
  C   C2339     1.0  0.32773  0.68237  0.79342  1.0000
  C   C2340     1.0  0.31572  0.67492  0.79545  1.0000
  C   C2341     1.0  0.28794  0.52929  0.86549  1.0000
  C   C2342     1.0  0.13919  0.67660  0.82696  1.0000
  Fe  Fe397     1.0  0.47033  0.48801  0.85016  1.0000
  H   H2324     1.0  0.33270  0.68138  0.80303  1.0000
  H   H2325     1.0  0.31150  0.66814  0.80661  1.0000
  C   C2343     1.0  0.34095  0.64659  0.77577  1.0000
  C   C2344     1.0  0.29709  0.48973  0.89033  1.0000
  H   H2326     1.0  0.32287  0.62803  0.87013  1.0000
  S   S781      1.0  0.21510  0.71353  0.85171  1.0000
  C   C2345     1.0  0.26884  0.50553  0.79034  1.0000
  S   S782      1.0  0.25640  0.58113  0.77051  1.0000
  H   H2327     1.0  0.06416  0.64776  0.96315  1.0000
  H   H2328     1.0  0.26609  0.63060  0.88225  1.0000
  C   C2346     1.0  0.41828  0.48823  0.87640  1.0000
  H   H2329     1.0  0.40589  0.49754  0.83496  1.0000
  C   C2347     1.0  0.27171  0.51216  0.80087  1.0000
  H   H2330     1.0  0.31697  0.59367  0.87897  1.0000
  H   H2331     1.0  0.14542  0.67490  0.80318  1.0000
  H   H2332     1.0  0.27703  0.58993  0.78300  1.0000
  S   S783      1.0  0.10830  0.63425  0.91150  1.0000
  C   C2348     1.0  0.43147  0.49277  0.86627  1.0000
  H   H2333     1.0  0.25023  0.53742  0.76901  1.0000
  C   C2349     1.0  0.28072  0.69376  0.81970  1.0000
  Fe  Fe398     1.0  0.19074  0.71601  0.84978  1.0000
  H   H2334     1.0  0.31671  0.63088  0.85238  1.0000
  C   C2350     1.0  0.30942  0.67612  0.78296  1.0000
  C   C2351     1.0  0.26038  0.70839  0.83633  1.0000
  C   C2352     1.0  0.10623  0.72268  0.88633  1.0000
  H   H2335     1.0  0.47815  0.57048  0.80049  1.0000
  H   H2336     1.0  0.11118  0.64138  0.82456  1.0000
  C   C2353     1.0  0.13323  0.71171  0.92982  1.0000
  H   H2337     1.0  0.40872  0.54179  0.87314  1.0000
  S   S784      1.0  0.34908  0.69946  0.77623  1.0000
  H   H2338     1.0  0.01532  0.66471  0.94002  1.0000
  H   H2339     1.0  0.41365  0.52556  0.84436  1.0000
  C   C2354     1.0  0.10238  0.66149  0.93477  1.0000
  H   H2340     1.0  0.43987  0.50997  0.84701  1.0000
  C   C2355     1.0  0.40172  0.51064  0.86351  1.0000
  H   H2341     1.0  0.29338  0.58442  0.89417  1.0000
  H   H2342     1.0  0.10563  0.64127  0.84464  1.0000
  H   H2343     1.0  0.07526  0.69845  0.79315  1.0000
  C   C2356     1.0  0.29252  0.59656  0.88845  1.0000
  H   H2344     1.0  0.28189  0.53616  0.87447  1.0000
  H   H2345     1.0  0.07632  0.71788  0.91733  1.0000
  N   N201      1.0  0.07589  0.66534  0.94892  1.0000
  H   H2346     1.0  0.43473  0.52551  0.87628  1.0000
  C   C2357     1.0  0.08350  0.72390  0.87833  1.0000
  H   H2347     1.0  0.20655  0.51361  0.78562  1.0000
  H   H2348     1.0  0.07337  0.66583  0.78917  1.0000
  Fe  Fe399     1.0  0.48452  0.51385  0.82778  1.0000
  H   H2349     1.0  0.20321  0.71882  0.92420  1.0000
  S   S785      1.0  0.26325  0.71608  0.95288  1.0000
  C   C2358     1.0  0.09828  0.72040  0.90177  1.0000
  C   C2359     1.0  0.19163  0.48397  0.78506  1.0000
  C   C2360     1.0  0.14009  0.72543  0.89841  1.0000
  H   H2350     1.0  0.22268  0.49156  0.80093  1.0000
  Fe  Fe400     1.0  0.27594  0.71917  0.89509  1.0000
  H   H2351     1.0  0.16975  0.71763  0.90110  1.0000
  H   H2352     1.0  0.05638  0.65900  0.94656  1.0000
  H   H2353     1.0  0.06457  0.68422  0.80523  1.0000
  H   H2354     1.0  0.10432  0.71885  0.91080  1.0000
  S   S786      1.0  0.48481  0.50283  0.85258  1.0000
  C   C2361     1.0  0.38298  0.49344  0.84448  1.0000
  C   C2362     1.0  0.29073  0.48118  0.88439  1.0000
  S   S787      1.0  0.10344  0.70597  0.76914  1.0000
  C   C2363     1.0  0.26575  0.72548  0.84938  1.0000
  H   H2355     1.0  0.30344  0.48398  0.89938  1.0000
  S   S788      1.0  0.13588  0.67948  0.77071  1.0000
  H   H2356     1.0  0.11844  0.72278  0.88353  1.0000
  C   C2364     1.0  0.25859  0.50747  0.76797  1.0000
  Fe  Fe401     1.0  0.26531  0.72543  0.92735  1.0000
  C   C2365     1.0  0.35238  0.52581  0.96465  1.0000
  H   H2357     1.0  0.36333  0.48766  0.96281  1.0000
  C   C2366     1.0  0.48503  0.56228  0.79343  1.0000
  C   C2367     1.0  0.27153  0.72475  0.96227  1.0000
  H   H2358     1.0  0.27857  0.48194  0.86732  1.0000
  H   H2359     1.0  0.14242  0.64778  0.76707  1.0000
  H   H2360     1.0  0.36159  0.48596  0.85562  1.0000
  C   C2368     1.0  0.37415  0.48279  0.85368  1.0000
  C   C2369     1.0  0.10759  0.72669  0.85885  1.0000
  S   S789      1.0  0.15744  0.80897  0.09375  1.0000
  S   S790      1.0  0.19108  0.78061  0.11180  1.0000
  Fe  Fe402     1.0  0.11054  0.92293  0.05130  1.0000
  S   S791      1.0  0.09276  0.91493  0.04491  1.0000
  S   S792      1.0  0.11663  0.94571  0.03770  1.0000
  Fe  Fe403     1.0  0.11819  0.89317  0.07466  1.0000
  S   S793      1.0  0.10143  0.88239  0.07017  1.0000
  S   S794      1.0  0.13152  0.88032  0.09312  1.0000
  Fe  Fe404     1.0  0.11015  0.89241  0.04529  1.0000
  S   S795      1.0  0.11411  0.88083  0.02574  1.0000
  Fe  Fe405     1.0  0.08530  0.90568  0.07022  1.0000
  S   S796      1.0  0.06078  0.90460  0.08253  1.0000
  S   S797      1.0  0.12871  0.90101  0.04962  1.0000
  S   S798      1.0  0.10128  0.91586  0.07685  1.0000
  Fe  Fe406     1.0  0.28453  0.74159  0.01354  1.0000
  S   S799      1.0  0.03277  0.86940  0.00340  1.0000
  Fe  Fe407     1.0  0.27841  0.75464  0.04196  1.0000
  S   S800      1.0  0.04716  0.83232  0.00350  1.0000
  S   S801      1.0  0.29997  0.74205  0.02824  1.0000
  H   H2361     1.0  0.12574  0.79507  0.11436  1.0000
  S   S802      1.0  0.11192  0.74298  0.98016  1.0000
  Fe  Fe408     1.0  0.05360  0.85138  0.00931  1.0000
  S   S803      1.0  0.05940  0.84919  0.03192  1.0000
  H   H2362     1.0  0.21136  0.73036  0.08463  1.0000
  C   C2370     1.0  0.20868  0.74311  0.08014  1.0000
  S   S804      1.0  0.00353  0.84638  0.00263  1.0000
  H   H2363     1.0  0.36391  0.77630  0.16321  1.0000
  Fe  Fe409     1.0  0.25895  0.73340  0.04105  1.0000
  S   S805      1.0  0.20971  0.79625  0.13523  1.0000
  C   C2371     1.0  0.04369  0.89744  0.05482  1.0000
  C   C2372     1.0  0.24020  0.76538  0.06600  1.0000
  H   H2364     1.0  0.25580  0.76670  0.07887  1.0000
  H   H2365     1.0  0.11804  0.78291  0.99763  1.0000
  H   H2366     1.0  0.31283  0.87773  0.08867  1.0000
  S   S806      1.0  0.27203  0.73319  0.05822  1.0000
  C   C2373     1.0  0.20582  0.81206  0.14397  1.0000
  Fe  Fe410     1.0  0.06064  0.84035  0.97965  1.0000
  C   C2374     1.0  0.45921  0.89694  0.97834  1.0000
  H   H2367     1.0  0.13113  0.97171  0.02797  1.0000
  S   S807      1.0  0.18264  0.76549  0.14881  1.0000
  C   C2375     1.0  0.11127  0.83347  0.11360  1.0000
  C   C2376     1.0  0.36006  0.82912  0.01713  1.0000
  C   C2377     1.0  0.24573  0.94218  0.14140  1.0000
  C   C2378     1.0  0.10961  0.76208  0.00832  1.0000
  N   N202      1.0  0.22169  0.74958  0.07963  1.0000
  N   N203      1.0  0.03104  0.93335  0.12640  1.0000
  H   H2368     1.0  0.07008  0.90840  0.02256  1.0000
  H   H2369     1.0  0.22902  0.96050  0.05769  1.0000
  C   C2379     1.0  0.36153  0.84918  0.99333  1.0000
  C   C2380     1.0  0.99252  0.82230  0.97126  1.0000
  H   H2370     1.0  0.11514  0.91168  0.96770  1.0000
  C   C2381     1.0  0.38094  0.80670  0.02072  1.0000
  H   H2371     1.0  0.38890  0.83020  0.98546  1.0000
  Fe  Fe411     1.0  0.23281  0.88969  0.14571  1.0000
  N   N204      1.0  0.36804  0.83426  0.00255  1.0000
  S   S808      1.0  0.23241  0.90904  0.12461  1.0000
  C   C2382     1.0  0.13528  0.95083  0.97135  1.0000
  Fe  Fe412     1.0  0.98939  0.96455  0.10680  1.0000
  H   H2372     1.0  0.18142  0.81276  0.15273  1.0000
  S   S809      1.0  0.23632  0.86490  0.14449  1.0000
  H   H2373     1.0  0.16213  0.74223  0.11614  1.0000
  C   C2383     1.0  0.22740  0.74626  0.09258  1.0000
  S   S810      1.0  0.28889  0.94172  0.10335  1.0000
  H   H2374     1.0  0.24986  0.83897  0.12137  1.0000
  Fe  Fe413     1.0  0.36093  0.80475  0.07710  1.0000
  S   S811      1.0  0.36226  0.78076  0.09204  1.0000
  S   S812      1.0  0.38178  0.81002  0.05869  1.0000
  Fe  Fe414     1.0  0.32768  0.81592  0.09219  1.0000
  S   S813      1.0  0.32595  0.79300  0.10831  1.0000
  S   S814      1.0  0.30738  0.83625  0.09238  1.0000
  Fe  Fe415     1.0  0.34932  0.79288  0.11130  1.0000
  S   S815      1.0  0.35349  0.78359  0.13535  1.0000
  Fe  Fe416     1.0  0.33887  0.78288  0.08778  1.0000
  S   S816      1.0  0.33303  0.76214  0.08419  1.0000
  S   S817      1.0  0.35000  0.81681  0.09681  1.0000
  S   S818      1.0  0.33857  0.80590  0.07117  1.0000
  H   H2375     1.0  0.04972  0.81365  0.98280  1.0000
  C   C2384     1.0  0.20407  0.96629  0.06090  1.0000
  S   S819      1.0  0.01214  0.96719  0.09010  1.0000
  C   C2385     1.0  0.04331  0.92156  0.12268  1.0000
  N   N205      1.0  0.12922  0.93672  0.97791  1.0000
  H   H2376     1.0  0.02167  0.83636  0.97453  1.0000
  S   S820      1.0  0.24900  0.88494  0.16141  1.0000
  C   C2386     1.0  0.31803  0.76613  0.07445  1.0000
  C   C2387     1.0  0.30916  0.78117  0.07084  1.0000
  C   C2388     1.0  0.29681  0.78394  0.06360  1.0000
  C   C2389     1.0  0.29350  0.77172  0.05973  1.0000
  C   C2390     1.0  0.31474  0.75395  0.07053  1.0000
  H   H2377     1.0  0.31187  0.79065  0.07354  1.0000
  H   H2378     1.0  0.28997  0.79558  0.06078  1.0000
  C   C2391     1.0  0.37513  0.85771  0.02619  1.0000
  C   C2392     1.0  0.36322  0.85410  0.03892  1.0000
  C   C2393     1.0  0.36525  0.83959  0.04919  1.0000
  C   C2394     1.0  0.37930  0.82873  0.04685  1.0000
  C   C2395     1.0  0.39129  0.83246  0.03428  1.0000
  C   C2396     1.0  0.38919  0.84688  0.02394  1.0000
  H   H2379     1.0  0.35234  0.86248  0.04075  1.0000
  H   H2380     1.0  0.35593  0.83677  0.05885  1.0000
  H   H2381     1.0  0.40219  0.82411  0.03246  1.0000
  C   C2397     1.0  0.38243  0.82599  0.99691  1.0000
  C   C2398     1.0  0.11873  0.91682  0.97499  1.0000
  S   S821      1.0  0.15685  0.77234  0.12769  1.0000
  H   H2382     1.0  0.24531  0.77265  0.05546  1.0000
  C   C2399     1.0  0.24885  0.91712  0.11762  1.0000
  C   C2400     1.0  0.24849  0.93073  0.10611  1.0000
  C   C2401     1.0  0.26099  0.93811  0.10130  1.0000
  C   C2402     1.0  0.27386  0.93190  0.10803  1.0000
  C   C2403     1.0  0.27445  0.91801  0.11917  1.0000
  C   C2404     1.0  0.26200  0.91060  0.12389  1.0000
  H   H2383     1.0  0.23842  0.93571  0.10109  1.0000
  H   H2384     1.0  0.26063  0.94862  0.09243  1.0000
  H   H2385     1.0  0.28443  0.91317  0.12434  1.0000
  H   H2386     1.0  0.26249  0.89995  0.13247  1.0000
  C   C2405     1.0  0.28373  0.84209  0.14127  1.0000
  C   C2406     1.0  0.27811  0.85236  0.12876  1.0000
  C   C2407     1.0  0.28548  0.85058  0.11372  1.0000
  C   C2408     1.0  0.29859  0.83868  0.11116  1.0000
  C   C2409     1.0  0.30455  0.82879  0.12363  1.0000
  C   C2410     1.0  0.29712  0.83048  0.13868  1.0000
  H   H2387     1.0  0.26810  0.86167  0.13062  1.0000
  H   H2388     1.0  0.28098  0.85841  0.10406  1.0000
  H   H2389     1.0  0.31492  0.81984  0.12173  1.0000
  H   H2390     1.0  0.30162  0.82263  0.14832  1.0000
  Fe  Fe417     1.0  0.16623  0.79341  0.11441  1.0000
  H   H2391     1.0  0.07966  0.81067  0.99821  1.0000
  S   S822      1.0  0.19316  0.73608  0.12183  1.0000
  C   C2411     1.0  0.38853  0.80087  0.14905  1.0000
  H   H2392     1.0  0.26344  0.96035  0.12353  1.0000
  C   C2412     1.0  0.36973  0.78496  0.15519  1.0000
  C   C2413     1.0  0.36654  0.79093  0.14050  1.0000
  C   C2414     1.0  0.37422  0.80207  0.13009  1.0000
  C   C2415     1.0  0.38521  0.80704  0.13438  1.0000
  C   C2416     1.0  0.42270  0.74890  0.15213  1.0000
  S   S823      1.0  0.40408  0.85624  0.98137  1.0000
  H   H2393     1.0  0.37192  0.80666  0.11868  1.0000
  H   H2394     1.0  0.39133  0.81549  0.12626  1.0000
  H   H2395     1.0  0.39030  0.92491  0.97255  1.0000
  C   C2417     1.0  0.25990  0.93942  0.16019  1.0000
  H   H2396     1.0  0.27863  0.95167  0.13369  1.0000
  H   H2397     1.0  0.02121  0.74675  0.97865  1.0000
  C   C2418     1.0  0.47497  0.87314  0.01026  1.0000
  C   C2419     1.0  0.11923  0.81991  0.15330  1.0000
  S   S824      1.0  0.27393  0.84323  0.16019  1.0000
  H   H2398     1.0  0.34873  0.85116  0.99540  1.0000
  C   C2420     1.0  0.13137  0.96676  0.03992  1.0000
  H   H2399     1.0  0.29930  0.88457  0.14284  1.0000
  C   C2421     1.0  0.30252  0.75672  0.06317  1.0000
  C   C2422     1.0  0.38866  0.75292  0.12759  1.0000
  H   H2400     1.0  0.32087  0.85076  0.14090  1.0000
  H   H2401     1.0  0.26338  0.96765  0.13965  1.0000
  H   H2402     1.0  0.39133  0.74355  0.12124  1.0000
  H   H2403     1.0  0.39892  0.77593  0.13094  1.0000
  C   C2423     1.0  0.10781  0.77813  0.00285  1.0000
  H   H2404     1.0  0.20405  0.96176  0.05128  1.0000
  Fe  Fe418     1.0  0.18984  0.78720  0.13378  1.0000
  C   C2424     1.0  0.38912  0.81213  0.00593  1.0000
  C   C2425     1.0  0.35528  0.96745  0.00363  1.0000
  H   H2405     1.0  0.11531  0.80990  0.16198  1.0000
  H   H2406     1.0  0.12137  0.91158  0.01205  1.0000
  C   C2426     1.0  0.06076  0.90296  0.02990  1.0000
  S   S825      1.0  0.37607  0.88447  0.96953  1.0000
  S   S826      1.0  0.23463  0.72957  0.04921  1.0000
  H   H2407     1.0  0.12689  0.79548  0.14064  1.0000
  Fe  Fe419     1.0  0.21655  0.86372  0.16506  1.0000
  C   C2427     1.0  0.04715  0.92219  0.08290  1.0000
  C   C2428     1.0  0.05126  0.93644  0.07580  1.0000
  C   C2429     1.0  0.04026  0.95031  0.07754  1.0000
  C   C2430     1.0  0.02522  0.94990  0.08642  1.0000
  C   C2431     1.0  0.02111  0.93562  0.09302  1.0000
  C   C2432     1.0  0.03200  0.92181  0.09123  1.0000
  H   H2408     1.0  0.06297  0.93678  0.06932  1.0000
  H   H2409     1.0  0.04350  0.96135  0.07237  1.0000
  H   H2410     1.0  0.00961  0.93513  0.09969  1.0000
  H   H2411     1.0  0.02876  0.91081  0.09667  1.0000
  C   C2433     1.0  0.12567  0.95336  0.04741  1.0000
  C   C2434     1.0  0.34791  0.96460  0.01918  1.0000
  H   H2412     1.0  0.02843  0.88275  0.05660  1.0000
  H   H2413     1.0  0.22488  0.83631  0.14947  1.0000
  H   H2414     1.0  0.09864  0.80711  0.98636  1.0000
  C   C2435     1.0  0.12682  0.94652  0.06266  1.0000
  H   H2415     1.0  0.00828  0.93108  0.12825  1.0000
  C   C2436     1.0  0.05628  0.78883  0.98573  1.0000
  C   C2437     1.0  0.47543  0.89217  0.97501  1.0000
  H   H2416     1.0  0.12275  0.93604  0.06846  1.0000
  C   C2438     1.0  0.09930  0.87140  0.02778  1.0000
  C   C2439     1.0  0.08757  0.87038  0.04116  1.0000
  C   C2440     1.0  0.07573  0.86292  0.04260  1.0000
  C   C2441     1.0  0.07528  0.85691  0.03047  1.0000
  C   C2442     1.0  0.08704  0.85786  0.01711  1.0000
  C   C2443     1.0  0.09907  0.86504  0.01578  1.0000
  H   H2417     1.0  0.08753  0.87535  0.05041  1.0000
  H   H2418     1.0  0.06671  0.86216  0.05300  1.0000
  H   H2419     1.0  0.08706  0.85283  0.00789  1.0000
  H   H2420     1.0  0.10820  0.86566  0.00546  1.0000
  C   C2444     1.0  0.14955  0.82867  0.09403  1.0000
  C   C2445     1.0  0.14425  0.83870  0.08121  1.0000
  C   C2446     1.0  0.13832  0.85456  0.08098  1.0000
  C   C2447     1.0  0.13776  0.86043  0.09356  1.0000
  C   C2448     1.0  0.14279  0.85039  0.10648  1.0000
  C   C2449     1.0  0.14865  0.83455  0.10671  1.0000
  H   H2421     1.0  0.14486  0.83423  0.07135  1.0000
  H   H2422     1.0  0.13452  0.86228  0.07092  1.0000
  H   H2423     1.0  0.14232  0.85492  0.11624  1.0000
  H   H2424     1.0  0.15255  0.82702  0.11665  1.0000
  C   C2450     1.0  0.04289  0.88727  0.03377  1.0000
  C   C2451     1.0  0.21537  0.83134  0.15002  1.0000
  C   C2452     1.0  0.21803  0.81879  0.14308  1.0000
  C   C2453     1.0  0.16873  0.73139  0.11303  1.0000
  H   H2425     1.0  0.22961  0.81420  0.13707  1.0000
  C   C2454     1.0  0.33025  0.97537  0.99700  1.0000
  H   H2426     1.0  0.09604  0.80918  0.00592  1.0000
  S   S827      1.0  0.14552  0.97595  0.07342  1.0000
  H   H2427     1.0  0.22355  0.76150  0.05608  1.0000
  C   C2455     1.0  0.03737  0.88866  0.04913  1.0000
  Fe  Fe420     1.0  0.08763  0.73994  0.98506  1.0000
  H   H2428     1.0  0.36008  0.81125  0.03800  1.0000
  C   C2456     1.0  0.19009  0.97322  0.06961  1.0000
  H   H2429     1.0  0.09777  0.74333  0.01880  1.0000
  H   H2430     1.0  0.11334  0.89944  0.99554  1.0000
  Fe  Fe421     1.0  0.42015  0.87236  0.96906  1.0000
  S   S828      1.0  0.44600  0.86363  0.96728  1.0000
  Fe  Fe422     1.0  0.04789  0.87411  0.97981  1.0000
  C   C2457     1.0  0.23968  0.75241  0.09256  1.0000
  H   H2431     1.0  0.17928  0.97385  0.06668  1.0000
  H   H2432     1.0  0.20634  0.74509  0.06853  1.0000
  C   C2458     1.0  0.13318  0.95336  0.07053  1.0000
  H   H2433     1.0  0.01767  0.91792  0.14302  1.0000
  H   H2434     1.0  0.46165  0.89603  0.01280  1.0000
  H   H2435     1.0  0.38901  0.94791  0.98220  1.0000
  H   H2436     1.0  0.99554  0.77776  0.96884  1.0000
  H   H2437     1.0  0.36438  0.85868  0.99647  1.0000
  C   C2459     1.0  0.31917  0.85689  0.12946  1.0000
  C   C2460     1.0  0.01622  0.92987  0.13579  1.0000
  H   H2438     1.0  0.11579  0.81953  0.09692  1.0000
  N   N206      1.0  0.11766  0.81984  0.13800  1.0000
  C   C2461     1.0  0.12235  0.80618  0.13314  1.0000
  C   C2462     1.0  0.11232  0.83341  0.12840  1.0000
  C   C2463     1.0  0.12156  0.80583  0.11838  1.0000
  C   C2464     1.0  0.21787  0.97154  0.07682  1.0000
  C   C2465     1.0  0.11595  0.81957  0.10859  1.0000
  H   H2439     1.0  0.38652  0.76423  0.11930  1.0000
  H   H2440     1.0  0.45375  0.90766  0.98220  1.0000
  C   C2466     1.0  0.21803  0.96546  0.06456  1.0000
  H   H2441     1.0  0.07152  0.76082  0.02052  1.0000
  C   C2467     1.0  0.27250  0.73060  0.98599  1.0000
  H   H2442     1.0  0.39857  0.84970  0.01441  1.0000
  C   C2468     1.0  0.20047  0.83720  0.15793  1.0000
  C   C2469     1.0  0.07301  0.80626  0.97025  1.0000
  H   H2443     1.0  0.02224  0.95784  0.12287  1.0000
  C   C2470     1.0  0.45000  0.88806  0.97644  1.0000
  H   H2444     1.0  0.28404  0.87793  0.13944  1.0000
  N   N207      1.0  0.27922  0.80904  0.11208  1.0000
  C   C2471     1.0  0.26771  0.82213  0.11023  1.0000
  C   C2472     1.0  0.28257  0.80228  0.12626  1.0000
  C   C2473     1.0  0.25882  0.82845  0.12288  1.0000
  C   C2474     1.0  0.27394  0.80834  0.13915  1.0000
  C   C2475     1.0  0.26195  0.82146  0.13743  1.0000
  C   C2476     1.0  0.28841  0.80273  0.09860  1.0000
  H   H2445     1.0  0.26554  0.82787  0.09887  1.0000
  H   H2446     1.0  0.29210  0.79229  0.12764  1.0000
  H   H2447     1.0  0.14619  0.94954  0.97497  1.0000
  H   H2448     1.0  0.27686  0.80323  0.15031  1.0000
  H   H2449     1.0  0.33476  0.85498  0.09196  1.0000
  H   H2450     1.0  0.28088  0.80282  0.09106  1.0000
  H   H2451     1.0  0.29705  0.80981  0.09184  1.0000
  H   H2452     1.0  0.29474  0.79052  0.10192  1.0000
  N   N208      1.0  0.05462  0.89417  0.02445  1.0000
  C   C2477     1.0  0.06025  0.89255  0.00839  1.0000
  H   H2453     1.0  0.03809  0.88020  0.02952  1.0000
  H   H2454     1.0  0.03967  0.89852  0.06675  1.0000
  Fe  Fe423     1.0  0.25088  0.86005  0.16178  1.0000
  H   H2455     1.0  0.19802  0.74842  0.08775  1.0000
  H   H2456     1.0  0.03953  0.72813  0.99803  1.0000
  H   H2457     1.0  0.24341  0.94725  0.13000  1.0000
  C   C2478     1.0  0.41540  0.76348  0.14491  1.0000
  H   H2458     1.0  0.25553  0.82656  0.14726  1.0000
  H   H2459     1.0  0.35211  0.97498  0.98036  1.0000
  C   C2479     1.0  0.47321  0.86939  0.96823  1.0000
  H   H2460     1.0  0.17670  0.83489  0.16506  1.0000
  H   H2461     1.0  0.31827  0.73295  0.10483  1.0000
  H   H2462     1.0  0.40070  0.80583  0.00160  1.0000
  C   C2480     1.0  0.13823  0.96714  0.06323  1.0000
  C   C2481     1.0  0.04609  0.95210  0.11126  1.0000
  H   H2463     1.0  0.26794  0.73017  0.99815  1.0000
  C   C2482     1.0  0.22788  0.75906  0.06645  1.0000
  H   H2464     1.0  0.13137  0.93553  0.00063  1.0000
  C   C2483     1.0  0.12792  0.93029  0.99331  1.0000
  N   N209      1.0  0.09335  0.78766  0.00396  1.0000
  C   C2484     1.0  0.08042  0.78163  0.01048  1.0000
  H   H2465     1.0  0.22250  0.73872  0.10300  1.0000
  C   C2485     1.0  0.08180  0.76562  0.01590  1.0000
  C   C2486     1.0  0.09650  0.75581  0.01482  1.0000
  H   H2466     1.0  0.24421  0.74967  0.10285  1.0000
  S   S829      1.0  0.40473  0.89260  0.97886  1.0000
  H   H2467     1.0  0.06945  0.94279  0.10001  1.0000
  H   H2468     1.0  0.01058  0.93788  0.14379  1.0000
  N   N210      1.0  0.40126  0.75151  0.13502  1.0000
  C   C2487     1.0  0.41937  0.73562  0.15050  1.0000
  H   H2469     1.0  0.10743  0.84430  0.10584  1.0000
  Fe  Fe424     1.0  0.15840  0.77946  0.14844  1.0000
  H   H2470     1.0  0.26881  0.94238  0.16370  1.0000
  Fe  Fe425     1.0  0.38781  0.87698  0.98947  1.0000
  C   C2488     1.0  0.02682  0.75644  0.97316  1.0000
  H   H2471     1.0  0.32181  0.74239  0.07298  1.0000
  H   H2472     1.0  0.13392  0.94811  0.08237  1.0000
  H   H2473     1.0  0.12106  0.75445  0.00731  1.0000
  H   H2474     1.0  0.04542  0.78697  0.99349  1.0000
  C   C2489     1.0  0.36624  0.81513  0.02630  1.0000
  C   C2490     1.0  0.12220  0.91679  0.99987  1.0000
  C   C2491     1.0  0.03221  0.94847  0.12063  1.0000
  H   H2475     1.0  0.13157  0.81899  0.15309  1.0000
  C   C2492     1.0  0.05538  0.90473  0.04515  1.0000
  S   S830      1.0  0.27804  0.77527  0.05068  1.0000
  C   C2493     1.0  0.99966  0.83673  0.99067  1.0000
  C   C2494     1.0  0.24612  0.76201  0.07916  1.0000
  N   N211      1.0  0.18263  0.84836  0.10807  1.0000
  C   C2495     1.0  0.17681  0.85897  0.09628  1.0000
  C   C2496     1.0  0.18834  0.83314  0.10717  1.0000
  C   C2497     1.0  0.17691  0.85448  0.08301  1.0000
  C   C2498     1.0  0.18850  0.82822  0.09412  1.0000
  C   C2499     1.0  0.18278  0.83899  0.08196  1.0000
  C   C2500     1.0  0.18210  0.85304  0.12214  1.0000
  H   H2476     1.0  0.17161  0.87092  0.09721  1.0000
  H   H2477     1.0  0.19260  0.82464  0.11666  1.0000
  H   H2478     1.0  0.17180  0.86282  0.07391  1.0000
  H   H2479     1.0  0.19260  0.81607  0.09362  1.0000
  H   H2480     1.0  0.18230  0.83521  0.07203  1.0000
  H   H2481     1.0  0.17986  0.86585  0.12048  1.0000
  H   H2482     1.0  0.17276  0.84880  0.13159  1.0000
  H   H2483     1.0  0.19335  0.84812  0.12576  1.0000
  C   C2501     1.0  0.13742  0.97378  0.04787  1.0000
  H   H2484     1.0  0.07267  0.89309  0.00416  1.0000
  C   C2502     1.0  0.40471  0.76456  0.13630  1.0000
  Fe  Fe426     1.0  0.02758  0.85083  0.99553  1.0000
  C   C2503     1.0  0.12452  0.93030  0.96879  1.0000
  H   H2485     1.0  0.33895  0.84165  0.11825  1.0000
  H   H2486     1.0  0.35465  0.96065  0.02800  1.0000
  C   C2504     1.0  0.05876  0.94015  0.10766  1.0000
  H   H2487     1.0  0.04678  0.96411  0.10636  1.0000
  N   N212      1.0  0.30689  0.86919  0.12756  1.0000
  H   H2488     1.0  0.10201  0.97303  0.01516  1.0000
  H   H2489     1.0  0.46653  0.87101  0.00539  1.0000
  C   C2505     1.0  0.31480  0.87194  0.10010  1.0000
  C   C2506     1.0  0.32946  0.85168  0.11669  1.0000
  C   C2507     1.0  0.40854  0.73715  0.14186  1.0000
  C   C2508     1.0  0.08185  0.77862  0.97160  1.0000
  Fe  Fe427     1.0  0.18173  0.76002  0.12686  1.0000
  C   C2509     1.0  0.19088  0.81798  0.15180  1.0000
  C   C2510     1.0  0.11766  0.91000  0.99061  1.0000
  N   N213      1.0  0.25702  0.94587  0.14579  1.0000
  S   S831      1.0  0.26344  0.75615  0.02595  1.0000
  C   C2511     1.0  0.38067  0.78992  0.15947  1.0000
  S   S832      1.0  0.29341  0.74583  0.98780  1.0000
  S   S833      1.0  0.06916  0.85754  0.98630  1.0000
  C   C2512     1.0  0.05737  0.92477  0.11334  1.0000
  H   H2490     1.0  0.29511  0.88673  0.11158  1.0000
  H   H2491     1.0  0.05325  0.90179  0.00088  1.0000
  S   S834      1.0  0.06555  0.75734  0.99071  1.0000
  C   C2513     1.0  0.32716  0.85920  0.10194  1.0000
  S   S835      1.0  0.21162  0.88911  0.16485  1.0000
  H   H2492     1.0  0.41770  0.77393  0.14626  1.0000
  S   S836      1.0  0.16568  0.80159  0.13518  1.0000
  H   H2493     1.0  0.12666  0.96085  0.97535  1.0000
  H   H2494     1.0  0.04216  0.90961  0.12656  1.0000
  H   H2495     1.0  0.36630  0.84979  0.98081  1.0000
  S   S837      1.0  0.37206  0.87567  0.01310  1.0000
  H   H2496     1.0  0.30010  0.74724  0.06014  1.0000
  H   H2497     1.0  0.34901  0.83603  0.02191  1.0000
  H   H2498     1.0  0.30242  0.96471  0.01731  1.0000
  H   H2499     1.0  0.06033  0.91154  0.04956  1.0000
  S   S838      1.0  0.40313  0.80623  0.15390  1.0000
  C   C2514     1.0  0.06801  0.77617  0.98194  1.0000
  C   C2515     1.0  0.30478  0.87690  0.11311  1.0000
  C   C2516     1.0  0.38773  0.94934  0.97059  1.0000
  H   H2500     1.0  0.47670  0.78779  0.16207  1.0000
  H   H2501     1.0  0.29627  0.86513  0.15162  1.0000
  Fe  Fe428     1.0  0.28339  0.96586  0.08898  1.0000
  H   H2502     1.0  0.06893  0.78914  0.01122  1.0000
  C   C2517     1.0  0.05877  0.80390  0.97983  1.0000
  C   C2518     1.0  0.29616  0.87452  0.14102  1.0000
  H   H2503     1.0  0.37776  0.75210  0.13651  1.0000
  C   C2519     1.0  0.00692  0.82628  0.96763  1.0000
  H   H2504     1.0  0.09070  0.76895  0.96818  1.0000
  H   H2505     1.0  0.22843  0.92843  0.14781  1.0000
  H   H2506     1.0  0.10913  0.84436  0.13198  1.0000
  C   C2520     1.0  0.47206  0.88728  0.01457  1.0000
  H   H2507     1.0  0.06691  0.91542  0.11000  1.0000
  C   C2521     1.0  0.09187  0.80445  0.99840  1.0000
  H   H2508     1.0  0.11214  0.83062  0.15722  1.0000
  H   H2509     1.0  0.43752  0.89194  0.97880  1.0000
  H   H2510     1.0  0.38614  0.79626  0.02811  1.0000
  C   C2522     1.0  0.18823  0.83050  0.15879  1.0000
  H   H2511     1.0  0.05949  0.88110  0.00726  1.0000
  C   C2523     1.0  0.28485  0.73777  0.97808  1.0000
  S   S839      1.0  0.04059  0.85747  0.97115  1.0000
  C   C2524     1.0  0.26601  0.95695  0.13520  1.0000
  H   H2512     1.0  0.36782  0.96571  0.00018  1.0000
  C   C2525     1.0  0.23714  0.93160  0.15146  1.0000
  H   H2513     1.0  0.99790  0.76444  0.98700  1.0000
  H   H2514     1.0  0.43070  0.74790  0.15919  1.0000
  C   C2526     1.0  0.01054  0.83337  0.97739  1.0000
  N   N214      1.0  0.01844  0.77141  0.97238  1.0000
  C   C2527     1.0  0.33172  0.96721  0.02334  1.0000
  H   H2515     1.0  0.32606  0.96528  0.03547  1.0000
  N   N215      1.0  0.32310  0.97276  0.01229  1.0000
  C   C2528     1.0  0.45700  0.87437  0.97116  1.0000
  C   C2529     1.0  0.34642  0.97275  0.99246  1.0000
  H   H2516     1.0  0.12166  0.97326  0.00471  1.0000
  C   C2530     1.0  0.00163  0.77459  0.97846  1.0000
  H   H2517     1.0  0.22871  0.97132  0.07944  1.0000
  C   C2531     1.0  0.48243  0.87826  0.97016  1.0000
  H   H2518     1.0  0.48108  0.90137  0.02351  1.0000
  H   H2519     1.0  0.99209  0.87862  0.00781  1.0000
  H   H2520     1.0  0.99794  0.78452  0.98429  1.0000
  S   S840      1.0  0.28813  0.97102  0.06325  1.0000
  S   S841      1.0  0.98641  0.96657  0.13109  1.0000
  C   C2532     1.0  0.23998  0.92499  0.16617  1.0000
  H   H2521     1.0  0.38255  0.74992  0.16391  1.0000
  C   C2533     1.0  0.30615  0.97533  0.01683  1.0000
  H   H2522     1.0  0.04955  0.74155  0.96804  1.0000
  C   C2534     1.0  0.48299  0.89029  0.02052  1.0000
  C   C2535     1.0  0.04282  0.75339  0.96708  1.0000
  H   H2523     1.0  0.48577  0.84942  0.99708  1.0000
  H   H2524     1.0  0.33908  0.72773  0.09962  1.0000
  C   C2536     1.0  0.99642  0.94901  0.29167  1.0000
  S   S842      1.0  0.11484  0.92171  0.36104  1.0000
  S   S843      1.0  0.26956  0.74651  0.32369  1.0000
  H   H2525     1.0  0.31095  0.73714  0.35079  1.0000
  C   C2537     1.0  0.04412  0.83690  0.24029  1.0000
  H   H2526     1.0  0.35781  0.75334  0.21732  1.0000
  Fe  Fe429     1.0  0.43276  0.78119  0.19569  1.0000
  H   H2527     1.0  0.17026  0.82502  0.33543  1.0000
  S   S844      1.0  0.46999  0.93223  0.33672  1.0000
  C   C2538     1.0  0.06766  0.76044  0.25729  1.0000
  H   H2528     1.0  0.98751  0.91159  0.20927  1.0000
  H   H2529     1.0  0.34088  0.85679  0.35633  1.0000
  C   C2539     1.0  0.47063  0.85357  0.23337  1.0000
  S   S845      1.0  0.39671  0.74406  0.21264  1.0000
  C   C2540     1.0  0.46388  0.81540  0.20086  1.0000
  C   C2541     1.0  0.38979  0.74719  0.18483  1.0000
  C   C2542     1.0  0.10351  0.78769  0.30057  1.0000
  C   C2543     1.0  0.15233  0.82206  0.35613  1.0000
  H   H2530     1.0  0.28888  0.84729  0.32031  1.0000
  S   S846      1.0  0.09278  0.73542  0.32094  1.0000
  H   H2531     1.0  0.06373  0.97272  0.34647  1.0000
  Fe  Fe430     1.0  0.42370  0.87899  0.28518  1.0000
  S   S847      1.0  0.42358  0.85420  0.28682  1.0000
  S   S848      1.0  0.44440  0.88182  0.29204  1.0000
  Fe  Fe431     1.0  0.39342  0.89079  0.27414  1.0000
  S   S849      1.0  0.39096  0.86706  0.27485  1.0000
  S   S850      1.0  0.37578  0.91182  0.26587  1.0000
  Fe  Fe432     1.0  0.39824  0.86063  0.29740  1.0000
  S   S851      1.0  0.38806  0.84502  0.31912  1.0000
  Fe  Fe433     1.0  0.41634  0.86268  0.26426  1.0000
  S   S852      1.0  0.42776  0.85037  0.24465  1.0000
  S   S853      1.0  0.39879  0.88480  0.29760  1.0000
  S   S854      1.0  0.41848  0.88706  0.26157  1.0000
  H   H2532     1.0  0.20638  0.82574  0.19163  1.0000
  C   C2544     1.0  0.48279  0.97650  0.26810  1.0000
  Fe  Fe434     1.0  0.15176  0.91350  0.30913  1.0000
  S   S855      1.0  0.12567  0.92012  0.31595  1.0000
  S   S856      1.0  0.16642  0.92765  0.28976  1.0000
  Fe  Fe435     1.0  0.15392  0.88369  0.33301  1.0000
  S   S857      1.0  0.12825  0.88745  0.34190  1.0000
  Fe  Fe436     1.0  0.12688  0.89506  0.31709  1.0000
  S   S858      1.0  0.10912  0.88785  0.30953  1.0000
  Fe  Fe437     1.0  0.12915  0.91203  0.34022  1.0000
  S   S859      1.0  0.04581  0.72788  0.26628  1.0000
  S   S860      1.0  0.15261  0.88920  0.30823  1.0000
  S   S861      1.0  0.15513  0.90754  0.33334  1.0000
  Fe  Fe438     1.0  0.27328  0.91760  0.23998  1.0000
  S   S862      1.0  0.27494  0.90081  0.26243  1.0000
  S   S863      1.0  0.27751  0.90770  0.21900  1.0000
  Fe  Fe439     1.0  0.26822  0.94511  0.25410  1.0000
  S   S864      1.0  0.26946  0.93050  0.27783  1.0000
  Fe  Fe440     1.0  0.28968  0.91487  0.26551  1.0000
  S   S865      1.0  0.30892  0.89935  0.27702  1.0000
  Fe  Fe441     1.0  0.25474  0.91745  0.27304  1.0000
  S   S866      1.0  0.23742  0.90624  0.29220  1.0000
  S   S867      1.0  0.28978  0.93055  0.24205  1.0000
  S   S868      1.0  0.25168  0.93321  0.25028  1.0000
  S   S869      1.0  0.22217  0.89408  0.20061  1.0000
  C   C2545     1.0  0.07180  0.76439  0.24121  1.0000
  H   H2533     1.0  0.10874  0.87858  0.26174  1.0000
  C   C2546     1.0  0.99084  0.95933  0.30162  1.0000
  Fe  Fe442     1.0  0.30963  0.82260  0.34638  1.0000
  C   C2547     1.0  0.20902  0.80444  0.18490  1.0000
  S   S870      1.0  0.31998  0.83852  0.32524  1.0000
  H   H2534     1.0  0.23201  0.74317  0.36524  1.0000
  C   C2548     1.0  0.99278  0.97599  0.25929  1.0000
  C   C2549     1.0  0.02326  0.85842  0.23230  1.0000
  S   S871      1.0  0.14566  0.74269  0.35089  1.0000
  S   S872      1.0  0.26162  0.97135  0.24855  1.0000
  C   C2550     1.0  0.38507  0.74199  0.17438  1.0000
  C   C2551     1.0  0.24675  0.88318  0.24912  1.0000
  S   S873      1.0  0.13839  0.77920  0.16906  1.0000
  S   S874      1.0  0.29219  0.81113  0.34391  1.0000
  Fe  Fe443     1.0  0.11401  0.82803  0.26570  1.0000
  S   S875      1.0  0.11459  0.84517  0.24321  1.0000
  S   S876      1.0  0.12851  0.82786  0.28172  1.0000
  Fe  Fe444     1.0  0.09303  0.81179  0.25880  1.0000
  S   S877      1.0  0.09189  0.82752  0.23558  1.0000
  H   H2535     1.0  0.44227  0.77785  0.23070  1.0000
  Fe  Fe445     1.0  0.11743  0.82487  0.23302  1.0000
  S   S878      1.0  0.13624  0.82319  0.21158  1.0000
  Fe  Fe446     1.0  0.08912  0.84634  0.24786  1.0000
  S   S879      1.0  0.07319  0.86969  0.24270  1.0000
  S   S880      1.0  0.11887  0.80743  0.25525  1.0000
  S   S881      1.0  0.08823  0.83086  0.27138  1.0000
  C   C2552     1.0  0.07008  0.76935  0.26611  1.0000
  S   S882      1.0  0.00194  0.87125  0.26979  1.0000
  C   C2553     1.0  0.98627  0.94199  0.28856  1.0000
  S   S883      1.0  0.17139  0.86276  0.34143  1.0000
  H   H2536     1.0  0.34141  0.73366  0.18130  1.0000
  C   C2554     1.0  0.11481  0.75945  0.23470  1.0000
  C   C2555     1.0  0.48443  0.84555  0.23799  1.0000
  C   C2556     1.0  0.25298  0.89137  0.19943  1.0000
  H   H2537     1.0  0.34432  0.76090  0.17457  1.0000
  C   C2557     1.0  0.45004  0.79415  0.23801  1.0000
  C   C2558     1.0  0.40003  0.82261  0.23313  1.0000
  N   N216      1.0  0.10576  0.73969  0.25577  1.0000
  S   S884      1.0  0.41601  0.77453  0.21782  1.0000
  H   H2538     1.0  0.24548  0.87988  0.32173  1.0000
  Fe  Fe447     1.0  0.22816  0.88232  0.18059  1.0000
  C   C2559     1.0  0.08076  0.78630  0.24285  1.0000
  H   H2539     1.0  0.08148  0.78052  0.22158  1.0000
  H   H2540     1.0  0.08601  0.79613  0.23719  1.0000
  C   C2560     1.0  0.05345  0.87042  0.25102  1.0000
  C   C2561     1.0  0.04862  0.85803  0.26231  1.0000
  C   C2562     1.0  0.03276  0.85871  0.26856  1.0000
  C   C2563     1.0  0.02169  0.87165  0.26337  1.0000
  C   C2564     1.0  0.02654  0.88416  0.25228  1.0000
  C   C2565     1.0  0.04241  0.88358  0.24619  1.0000
  H   H2541     1.0  0.05706  0.84789  0.26617  1.0000
  H   H2542     1.0  0.02905  0.84906  0.27721  1.0000
  H   H2543     1.0  0.01807  0.89411  0.24809  1.0000
  H   H2544     1.0  0.04612  0.89320  0.23746  1.0000
  H   H2545     1.0  0.25549  0.88302  0.19236  1.0000
  H   H2546     1.0  0.27695  0.88859  0.19972  1.0000
  S   S885      1.0  0.32180  0.80133  0.36089  1.0000
  H   H2547     1.0  0.19285  0.90539  0.25132  1.0000
  H   H2548     1.0  0.12640  0.85735  0.33470  1.0000
  C   C2566     1.0  0.47962  0.86029  0.27331  1.0000
  H   H2549     1.0  0.33416  0.88915  0.31407  1.0000
  C   C2567     1.0  0.11666  0.76689  0.24508  1.0000
  C   C2568     1.0  0.02334  0.82334  0.26471  1.0000
  N   N217      1.0  0.02870  0.84396  0.24282  1.0000
  S   S886      1.0  0.47877  0.96129  0.34488  1.0000
  C   C2569     1.0  0.44746  0.92826  0.29899  1.0000
  H   H2550     1.0  0.06174  0.81740  0.24811  1.0000
  C   C2570     1.0  0.22586  0.87979  0.24029  1.0000
  C   C2571     1.0  0.45755  0.80436  0.19835  1.0000
  C   C2572     1.0  0.43235  0.80642  0.25744  1.0000
  C   C2573     1.0  0.07821  0.77744  0.23402  1.0000
  H   H2551     1.0  0.46821  0.85175  0.22325  1.0000
  C   C2574     1.0  0.98606  0.93599  0.19992  1.0000
  H   H2552     1.0  0.32448  0.87023  0.33739  1.0000
  H   H2553     1.0  0.10380  0.89728  0.27635  1.0000
  C   C2575     1.0  0.41428  0.82494  0.22357  1.0000
  C   C2576     1.0  0.26199  0.90475  0.21341  1.0000
  C   C2577     1.0  0.24668  0.91238  0.21844  1.0000
  C   C2578     1.0  0.23454  0.90941  0.21405  1.0000
  C   C2579     1.0  0.23765  0.89870  0.20475  1.0000
  C   C2580     1.0  0.26511  0.89446  0.20369  1.0000
  H   H2554     1.0  0.24419  0.92048  0.22578  1.0000
  H   H2555     1.0  0.22270  0.91523  0.21808  1.0000
  C   C2581     1.0  0.11467  0.87075  0.30245  1.0000
  C   C2582     1.0  0.13010  0.86254  0.29987  1.0000
  C   C2583     1.0  0.13424  0.84922  0.29373  1.0000
  C   C2584     1.0  0.12305  0.84433  0.28975  1.0000
  C   C2585     1.0  0.10762  0.85249  0.29239  1.0000
  C   C2586     1.0  0.10341  0.86552  0.29896  1.0000
  H   H2556     1.0  0.13886  0.86657  0.30239  1.0000
  H   H2557     1.0  0.14620  0.84292  0.29170  1.0000
  H   H2558     1.0  0.09887  0.84860  0.28966  1.0000
  H   H2559     1.0  0.09139  0.87157  0.30133  1.0000
  H   H2560     1.0  0.24006  0.89973  0.26354  1.0000
  H   H2561     1.0  0.41641  0.78166  0.24874  1.0000
  C   C2587     1.0  0.09660  0.88093  0.26043  1.0000
  C   C2588     1.0  0.46313  0.86591  0.25498  1.0000
  C   C2589     1.0  0.29018  0.87120  0.31221  1.0000
  C   C2590     1.0  0.18617  0.92173  0.29032  1.0000
  C   C2591     1.0  0.19674  0.93037  0.28021  1.0000
  C   C2592     1.0  0.21254  0.92577  0.28070  1.0000
  C   C2593     1.0  0.21777  0.91248  0.29129  1.0000
  C   C2594     1.0  0.20724  0.90379  0.30128  1.0000
  C   C2595     1.0  0.19149  0.90836  0.30077  1.0000
  H   H2562     1.0  0.19265  0.94073  0.27212  1.0000
  H   H2563     1.0  0.22058  0.93259  0.27299  1.0000
  H   H2564     1.0  0.21124  0.89345  0.30943  1.0000
  H   H2565     1.0  0.18347  0.90150  0.30846  1.0000
  H   H2566     1.0  0.47698  0.87285  0.27329  1.0000
  H   H2567     1.0  0.22073  0.80445  0.17818  1.0000
  S   S887      1.0  0.41875  0.80533  0.18937  1.0000
  H   H2568     1.0  0.28208  0.78308  0.34537  1.0000
  H   H2569     1.0  0.15363  0.84778  0.32167  1.0000
  H   H2570     1.0  0.28776  0.89597  0.30497  1.0000
  C   C2596     1.0  0.36948  0.84250  0.32038  1.0000
  C   C2597     1.0  0.36142  0.85042  0.30874  1.0000
  C   C2598     1.0  0.34636  0.84881  0.31022  1.0000
  C   C2599     1.0  0.33919  0.83944  0.32343  1.0000
  C   C2600     1.0  0.34722  0.83147  0.33510  1.0000
  C   C2601     1.0  0.36240  0.83293  0.33352  1.0000
  H   H2571     1.0  0.36667  0.85793  0.29868  1.0000
  H   H2572     1.0  0.34019  0.85492  0.30116  1.0000
  H   H2573     1.0  0.34173  0.82428  0.34537  1.0000
  H   H2574     1.0  0.36859  0.82676  0.34257  1.0000
  C   C2602     1.0  0.35694  0.90881  0.26937  1.0000
  C   C2603     1.0  0.35314  0.89510  0.27891  1.0000
  C   C2604     1.0  0.33832  0.89248  0.28113  1.0000
  C   C2605     1.0  0.32716  0.90355  0.27389  1.0000
  C   C2606     1.0  0.33084  0.91735  0.26442  1.0000
  C   C2607     1.0  0.34573  0.91999  0.26219  1.0000
  H   H2575     1.0  0.36160  0.88650  0.28459  1.0000
  H   H2576     1.0  0.33552  0.88178  0.28841  1.0000
  H   H2577     1.0  0.32226  0.92595  0.25881  1.0000
  H   H2578     1.0  0.34862  0.93064  0.25481  1.0000
  C   C2608     1.0  0.41678  0.84001  0.24024  1.0000
  C   C2609     1.0  0.39423  0.82891  0.24629  1.0000
  C   C2610     1.0  0.40264  0.83747  0.24992  1.0000
  H   H2579     1.0  0.38326  0.82703  0.25381  1.0000
  H   H2580     1.0  0.39823  0.84193  0.26028  1.0000
  C   C2611     1.0  0.44468  0.89979  0.29525  1.0000
  C   C2612     1.0  0.43683  0.91379  0.28748  1.0000
  C   C2613     1.0  0.34743  0.72866  0.20337  1.0000
  C   C2614     1.0  0.45486  0.91426  0.30720  1.0000
  C   C2615     1.0  0.45372  0.90007  0.30509  1.0000
  H   H2581     1.0  0.42988  0.91371  0.27984  1.0000
  H   H2582     1.0  0.46161  0.91433  0.31502  1.0000
  H   H2583     1.0  0.45975  0.88928  0.31121  1.0000
  C   C2616     1.0  0.13778  0.79120  0.18112  1.0000
  C   C2617     1.0  0.12588  0.79220  0.19437  1.0000
  C   C2618     1.0  0.12516  0.80206  0.20387  1.0000
  C   C2619     1.0  0.13618  0.81114  0.19989  1.0000
  C   C2620     1.0  0.14782  0.81035  0.18646  1.0000
  Fe  Fe448     1.0  0.06023  0.73148  0.24216  1.0000
  H   H2584     1.0  0.11721  0.78539  0.19725  1.0000
  H   H2585     1.0  0.11608  0.80273  0.21415  1.0000
  H   H2586     1.0  0.15615  0.81759  0.18315  1.0000
  C   C2621     1.0  0.16526  0.85228  0.36005  1.0000
  H   H2587     1.0  0.35260  0.77077  0.19278  1.0000
  S   S888      1.0  0.06990  0.75279  0.22988  1.0000
  H   H2588     1.0  0.43257  0.93873  0.28284  1.0000
  H   H2589     1.0  0.12369  0.79765  0.29374  1.0000
  S   S889      1.0  0.45833  0.77500  0.19586  1.0000
  H   H2590     1.0  0.45464  0.87376  0.26169  1.0000
  C   C2622     1.0  0.26564  0.88962  0.31332  1.0000
  C   C2623     1.0  0.13377  0.84743  0.34067  1.0000
  H   H2591     1.0  0.11729  0.76440  0.22243  1.0000
  H   H2592     1.0  0.09893  0.79463  0.29061  1.0000
  C   C2624     1.0  0.98615  0.92094  0.19937  1.0000
  H   H2593     1.0  0.11360  0.76675  0.26905  1.0000
  H   H2594     1.0  0.27056  0.74803  0.36557  1.0000
  C   C2625     1.0  0.07677  0.78219  0.25893  1.0000
  H   H2595     1.0  0.01214  0.86523  0.23799  1.0000
  H   H2596     1.0  0.41017  0.79994  0.26603  1.0000
  H   H2597     1.0  0.36050  0.89386  0.30974  1.0000
  N   N218      1.0  0.44636  0.80453  0.24722  1.0000
  N   N219      1.0  0.35215  0.73410  0.21322  1.0000
  H   H2598     1.0  0.22203  0.87455  0.23327  1.0000
  C   C2626     1.0  0.29763  0.76068  0.34885  1.0000
  C   C2627     1.0  0.45993  0.86388  0.24187  1.0000
  H   H2599     1.0  0.06586  0.88742  0.26583  1.0000
  C   C2628     1.0  0.42149  0.79801  0.25834  1.0000
  C   C2629     1.0  0.28049  0.75201  0.33316  1.0000
  C   C2630     1.0  0.27650  0.76707  0.33574  1.0000
  C   C2631     1.0  0.28516  0.77145  0.34347  1.0000
  S   S890      1.0  0.23139  0.85678  0.18249  1.0000
  C   C2632     1.0  0.30143  0.74557  0.34648  1.0000
  S   S891      1.0  0.44729  0.96721  0.33204  1.0000
  H   H2600     1.0  0.26676  0.77537  0.33170  1.0000
  H   H2601     1.0  0.13491  0.96921  0.34629  1.0000
  C   C2633     1.0  0.28224  0.85917  0.31849  1.0000
  Fe  Fe449     1.0  0.40131  0.79806  0.21073  1.0000
  S   S892      1.0  0.08042  0.79248  0.27044  1.0000
  H   H2602     1.0  0.24779  0.85271  0.33775  1.0000
  H   H2603     1.0  0.07444  0.76943  0.31983  1.0000
  H   H2604     1.0  0.44624  0.80779  0.19568  1.0000
  C   C2634     1.0  0.42498  0.78775  0.24861  1.0000
  H   H2605     1.0  0.32923  0.76901  0.32458  1.0000
  H   H2606     1.0  0.38317  0.78514  0.17075  1.0000
  H   H2607     1.0  0.11643  0.84463  0.36163  1.0000
  H   H2608     1.0  0.09630  0.97017  0.34699  1.0000
  C   C2635     1.0  0.43941  0.78569  0.23845  1.0000
  C   C2636     1.0  0.28360  0.97535  0.26133  1.0000
  H   H2609     1.0  0.25444  0.84708  0.31932  1.0000
  C   C2637     1.0  0.35085  0.75903  0.19577  1.0000
  C   C2638     1.0  0.05971  0.90294  0.28118  1.0000
  C   C2639     1.0  0.32249  0.75645  0.30519  1.0000
  C   C2640     1.0  0.25142  0.92892  0.17060  1.0000
  H   H2610     1.0  0.25899  0.88077  0.24909  1.0000
  H   H2611     1.0  0.28792  0.96291  0.26321  1.0000
  H   H2612     1.0  0.06268  0.75047  0.26297  1.0000
  Fe  Fe450     1.0  0.45837  0.95042  0.35068  1.0000
  H   H2613     1.0  0.01509  0.81827  0.27432  1.0000
  S   S893      1.0  0.38829  0.78965  0.19859  1.0000
  S   S894      1.0  0.48130  0.96097  0.30885  1.0000
  C   C2641     1.0  0.33570  0.87284  0.33568  1.0000
  H   H2614     1.0  0.29607  0.72960  0.33664  1.0000
  H   H2615     1.0  0.07280  0.74235  0.30001  1.0000
  N   N220      1.0  0.26637  0.86234  0.32224  1.0000
  Fe  Fe451     1.0  0.27775  0.81921  0.36521  1.0000
  S   S895      1.0  0.99021  0.91727  0.25914  1.0000
  H   H2616     1.0  0.45465  0.81971  0.25530  1.0000
  C   C2642     1.0  0.39228  0.73727  0.19878  1.0000
  H   H2617     1.0  0.10395  0.74250  0.27837  1.0000
  H   H2618     1.0  0.18602  0.83415  0.35847  1.0000
  H   H2619     1.0  0.26195  0.80000  0.36106  1.0000
  H   H2620     1.0  0.26556  0.83893  0.33411  1.0000
  C   C2643     1.0  0.15832  0.82915  0.34099  1.0000
  H   H2621     1.0  0.34361  0.75561  0.34509  1.0000
  C   C2644     1.0  0.18646  0.79332  0.19365  1.0000
  H   H2622     1.0  0.30278  0.86865  0.30912  1.0000
  C   C2645     1.0  0.34506  0.86523  0.34633  1.0000
  H   H2623     1.0  0.18054  0.78456  0.19391  1.0000
  H   H2624     1.0  0.19358  0.88518  0.25331  1.0000
  H   H2625     1.0  0.05238  0.84223  0.23091  1.0000
  N   N221      1.0  0.21563  0.89066  0.24787  1.0000
  H   H2626     1.0  0.45735  0.82726  0.20015  1.0000
  H   H2627     1.0  0.99065  0.93422  0.28073  1.0000
  H   H2628     1.0  0.02150  0.85585  0.22198  1.0000
  H   H2629     1.0  0.43355  0.83556  0.21957  1.0000
  C   C2646     1.0  0.29300  0.74128  0.33848  1.0000
  C   C2647     1.0  0.35377  0.74911  0.20964  1.0000
  H   H2630     1.0  0.19860  0.89746  0.23443  1.0000
  C   C2648     1.0  0.47864  0.81121  0.20416  1.0000
  C   C2649     1.0  0.34622  0.75350  0.18557  1.0000
  H   H2631     1.0  0.13307  0.94429  0.34217  1.0000
  C   C2650     1.0  0.25806  0.87732  0.31941  1.0000
  C   C2651     1.0  0.12658  0.94811  0.35266  1.0000
  C   C2652     1.0  0.25815  0.84965  0.32859  1.0000
  H   H2632     1.0  0.09323  0.86956  0.26369  1.0000
  C   C2653     1.0  0.06526  0.91049  0.28896  1.0000
  N   N222      1.0  0.09565  0.77740  0.31135  1.0000
  H   H2633     1.0  0.32640  0.75075  0.29522  1.0000
  C   C2654     1.0  0.24319  0.97552  0.28581  1.0000
  S   S896      1.0  0.38907  0.81218  0.22882  1.0000
  H   H2634     1.0  0.00859  0.94668  0.28612  1.0000
  C   C2655     1.0  0.09142  0.89895  0.27746  1.0000
  H   H2635     1.0  0.09620  0.88603  0.24814  1.0000
  Fe  Fe452     1.0  0.30289  0.79065  0.36029  1.0000
  C   C2656     1.0  0.14880  0.80018  0.17729  1.0000
  H   H2636     1.0  0.10703  0.74055  0.23219  1.0000
  C   C2657     1.0  0.07025  0.89334  0.27176  1.0000
  H   H2637     1.0  0.37674  0.87974  0.32872  1.0000
  N   N223      1.0  0.08588  0.89131  0.27015  1.0000
  S   S897      1.0  0.10393  0.73543  0.35805  1.0000
  C   C2658     1.0  0.24950  0.80256  0.36507  1.0000
  Fe  Fe453     1.0  0.40466  0.76665  0.20374  1.0000
  H   H2638     1.0  0.46116  0.79257  0.23005  1.0000
  C   C2659     1.0  0.08121  0.90850  0.28710  1.0000
  H   H2639     1.0  0.31006  0.75631  0.31028  1.0000
  H   H2640     1.0  0.06691  0.76615  0.27854  1.0000
  H   H2641     1.0  0.44913  0.87012  0.23841  1.0000
  C   C2660     1.0  0.10150  0.76855  0.32385  1.0000
  C   C2661     1.0  0.11548  0.76998  0.32590  1.0000
  C   C2662     1.0  0.12350  0.78053  0.31504  1.0000
  H   H2642     1.0  0.09538  0.76026  0.33227  1.0000
  H   H2643     1.0  0.12011  0.76290  0.33582  1.0000
  H   H2644     1.0  0.13435  0.78177  0.31650  1.0000
  H   H2645     1.0  0.07386  0.78675  0.30486  1.0000
  C   C2663     1.0  0.48062  0.78478  0.20268  1.0000
  C   C2664     1.0  0.33700  0.73270  0.31930  1.0000
  H   H2646     1.0  0.26284  0.96712  0.29647  1.0000
  C   C2665     1.0  0.12762  0.96220  0.35502  1.0000
  H   H2647     1.0  0.99170  0.95281  0.24878  1.0000
  C   C2666     1.0  0.46590  0.78902  0.19922  1.0000
  C   C2667     1.0  0.33409  0.75664  0.32594  1.0000
  N   N224      1.0  0.33169  0.74846  0.31687  1.0000
  H   H2648     1.0  0.23335  0.91682  0.17408  1.0000
  H   H2649     1.0  0.46929  0.80788  0.24330  1.0000
  S   S898      1.0  0.42280  0.77110  0.18210  1.0000
  H   H2650     1.0  0.00375  0.97102  0.25246  1.0000
  C   C2668     1.0  0.20167  0.79296  0.18526  1.0000
  N   N225      1.0  0.18583  0.81689  0.20049  1.0000
  C   C2669     1.0  0.20085  0.81643  0.19258  1.0000
  C   C2670     1.0  0.17874  0.80536  0.20137  1.0000
  H   H2651     1.0  0.21239  0.90595  0.26266  1.0000
  H   H2652     1.0  0.04320  0.80531  0.26989  1.0000
  H   H2653     1.0  0.46717  0.96261  0.26860  1.0000
  C   C2671     1.0  0.17701  0.83042  0.20699  1.0000
  C   C2672     1.0  0.11277  0.76073  0.26087  1.0000
  H   H2654     1.0  0.16689  0.80562  0.20776  1.0000
  H   H2655     1.0  0.39114  0.75898  0.18230  1.0000
  H   H2656     1.0  0.37867  0.86526  0.35397  1.0000
  H   H2657     1.0  0.12065  0.77765  0.24090  1.0000
  H   H2658     1.0  0.17357  0.84030  0.19758  1.0000
  H   H2659     1.0  0.16625  0.82811  0.21554  1.0000
  H   H2660     1.0  0.18409  0.83392  0.21284  1.0000
  H   H2661     1.0  0.41889  0.82009  0.21343  1.0000
  H   H2662     1.0  0.08414  0.76814  0.30036  1.0000
  H   H2663     1.0  0.47191  0.85468  0.28364  1.0000
  C   C2673     1.0  0.11751  0.78944  0.30227  1.0000
  C   C2674     1.0  0.10725  0.74706  0.26606  1.0000
  C   C2675     1.0  0.43840  0.92796  0.28919  1.0000
  C   C2676     1.0  0.45704  0.81450  0.24517  1.0000
  C   C2677     1.0  0.28179  0.88651  0.30979  1.0000
  H   H2664     1.0  0.42924  0.81494  0.26449  1.0000
  H   H2665     1.0  0.25903  0.90149  0.31108  1.0000
  C   C2678     1.0  0.42258  0.83371  0.22707  1.0000
  C   C2679     1.0  0.34222  0.74910  0.33762  1.0000
  H   H2666     1.0  0.15809  0.79937  0.16724  1.0000
  H   H2667     1.0  0.24979  0.86786  0.23413  1.0000
  N   N226      1.0  0.36976  0.86348  0.22866  1.0000
  C   C2680     1.0  0.38474  0.86502  0.22570  1.0000
  C   C2681     1.0  0.35802  0.87286  0.23686  1.0000
  C   C2682     1.0  0.38828  0.87614  0.23103  1.0000
  C   C2683     1.0  0.36110  0.88432  0.24209  1.0000
  C   C2684     1.0  0.37634  0.88591  0.23919  1.0000
  C   C2685     1.0  0.36627  0.85127  0.22371  1.0000
  H   H2668     1.0  0.39411  0.85742  0.21943  1.0000
  H   H2669     1.0  0.34616  0.87153  0.23944  1.0000
  H   H2670     1.0  0.40022  0.87704  0.22902  1.0000
  H   H2671     1.0  0.35174  0.89184  0.24845  1.0000
  H   H2672     1.0  0.37890  0.89464  0.24335  1.0000
  H   H2673     1.0  0.36430  0.84146  0.23369  1.0000
  H   H2674     1.0  0.35579  0.85577  0.21873  1.0000
  H   H2675     1.0  0.37597  0.84655  0.21478  1.0000
  H   H2676     1.0  0.32358  0.76871  0.30069  1.0000
  C   C2686     1.0  0.19935  0.89487  0.24671  1.0000
  Fe  Fe454     1.0  0.40718  0.79473  0.17776  1.0000
  C   C2687     1.0  0.03906  0.81612  0.26227  1.0000
  H   H2677     1.0  0.03174  0.86599  0.22869  1.0000
  C   C2688     1.0  0.36931  0.85940  0.35492  1.0000
  C   C2689     1.0  0.10911  0.74589  0.24029  1.0000
  H   H2678     1.0  0.00610  0.84300  0.25690  1.0000
  S   S899      1.0  0.30863  0.76568  0.35866  1.0000
  H   H2679     1.0  0.45572  0.82411  0.23491  1.0000
  H   H2680     1.0  0.24200  0.75834  0.35447  1.0000
  S   S900      1.0  0.44998  0.94636  0.29979  1.0000
  Fe  Fe455     1.0  0.46070  0.94992  0.31742  1.0000
  H   H2681     1.0  0.08573  0.91403  0.29333  1.0000
  C   C2690     1.0  0.34120  0.88333  0.32253  1.0000
  C   C2691     1.0  0.22052  0.89750  0.25646  1.0000
  C   C2692     1.0  0.24158  0.87593  0.24074  1.0000
  H   H2682     1.0  0.04732  0.90440  0.28253  1.0000
  Fe  Fe456     1.0  0.46867  0.97687  0.32512  1.0000
  C   C2693     1.0  0.35598  0.88597  0.32010  1.0000
  H   H2683     1.0  0.24303  0.96417  0.28459  1.0000
  C   C2694     1.0  0.04952  0.82291  0.24999  1.0000
  C   C2695     1.0  0.23615  0.89395  0.25711  1.0000
  C   C2696     1.0  0.08130  0.77536  0.30902  1.0000
  C   C2697     1.0  0.01831  0.83730  0.25476  1.0000
  C   C2698     1.0  0.12821  0.84017  0.35589  1.0000
  C   C2699     1.0  0.34776  0.73306  0.34010  1.0000
  H   H2684     1.0  0.05723  0.91781  0.29649  1.0000
  H   H2685     1.0  0.14358  0.86850  0.36524  1.0000
  C   C2700     1.0  0.36506  0.87806  0.33093  1.0000
  H   H2686     1.0  0.48392  0.92391  0.29679  1.0000
  H   H2687     1.0  0.15975  0.81223  0.36211  1.0000
  H   H2688     1.0  0.16680  0.75577  0.35839  1.0000
  C   C2701     1.0  0.14899  0.84195  0.33328  1.0000
  S   S901      1.0  0.00351  0.96943  0.30368  1.0000
  N   N227      1.0  0.13753  0.82778  0.36347  1.0000
  H   H2689     1.0  0.20765  0.78397  0.17881  1.0000
  H   H2690     1.0  0.37483  0.84760  0.35270  1.0000
  S   S902      1.0  0.19695  0.85219  0.16766  1.0000
  N   N228      1.0  0.47677  0.85810  0.25934  1.0000
  N   N229      1.0  0.35948  0.86800  0.34392  1.0000
  H   H2691     1.0  0.25370  0.92386  0.18204  1.0000
  S   S903      1.0  0.98702  0.94024  0.21696  1.0000
  C   C2702     1.0  0.34450  0.73822  0.18937  1.0000
  C   C2703     1.0  0.06329  0.97289  0.35824  1.0000
  C   C2704     1.0  0.07759  0.72999  0.30218  1.0000
  C   C2705     1.0  0.17497  0.83837  0.36567  1.0000
  C   C2706     1.0  0.11694  0.93915  0.36375  1.0000
  C   C2707     1.0  0.46838  0.97268  0.27171  1.0000
  H   H2692     1.0  0.25236  0.73834  0.35673  1.0000
  H   H2693     1.0  0.08692  0.72864  0.26255  1.0000
  H   H2694     1.0  0.17436  0.89075  0.35699  1.0000
  S   S904      1.0  0.48586  0.82517  0.20794  1.0000
  H   H2695     1.0  0.24702  0.78082  0.36268  1.0000
  S   S905      1.0  0.29417  0.83249  0.36636  1.0000
  C   C2708     1.0  0.24314  0.74684  0.36262  1.0000
  N   N230      1.0  0.07473  0.97727  0.36168  1.0000
  H   H2696     1.0  0.19462  0.86739  0.36308  1.0000
  C   C2709     1.0  0.24104  0.79167  0.36606  1.0000
  C   C2710     1.0  0.25433  0.97719  0.29244  1.0000
  C   C2711     1.0  0.18634  0.74035  0.50055  1.0000
  C   C2712     1.0  0.21729  0.80895  0.37571  1.0000
  H   H2697     1.0  0.24273  0.81296  0.56159  1.0000
  C   C2713     1.0  0.14689  0.74554  0.36846  1.0000
  H   H2698     1.0  0.42368  0.95393  0.55318  1.0000
  H   H2699     1.0  0.47407  0.83195  0.44190  1.0000
  C   C2714     1.0  0.22519  0.79541  0.42766  1.0000
  H   H2700     1.0  0.11011  0.92505  0.55765  1.0000
  H   H2701     1.0  0.13774  0.94501  0.53777  1.0000
  C   C2715     1.0  0.12575  0.97194  0.56057  1.0000
  C   C2716     1.0  0.43106  0.90764  0.40077  1.0000
  H   H2702     1.0  0.42254  0.77606  0.39346  1.0000
  C   C2717     1.0  0.42565  0.94275  0.53483  1.0000
  C   C2718     1.0  0.14712  0.90015  0.37521  1.0000
  H   H2703     1.0  0.12903  0.74028  0.40645  1.0000
  C   C2719     1.0  0.13749  0.74331  0.39604  1.0000
  C   C2720     1.0  0.47740  0.91629  0.50809  1.0000
  C   C2721     1.0  0.38379  0.76471  0.47403  1.0000
  C   C2722     1.0  0.39540  0.89847  0.42968  1.0000
  C   C2723     1.0  0.15860  0.75229  0.36888  1.0000
  N   N231      1.0  0.24697  0.74802  0.37653  1.0000
  C   C2724     1.0  0.15981  0.76574  0.47498  1.0000
  S   S906      1.0  0.21462  0.78061  0.37389  1.0000
  H   H2704     1.0  0.28135  0.73352  0.55661  1.0000
  N   N232      1.0  0.37920  0.77955  0.47631  1.0000
  C   C2725     1.0  0.38938  0.78589  0.48137  1.0000
  Fe  Fe457     1.0  0.19397  0.79410  0.51936  1.0000
  S   S907      1.0  0.20842  0.76997  0.52400  1.0000
  S   S908      1.0  0.18786  0.80629  0.49630  1.0000
  Fe  Fe458     1.0  0.19014  0.76618  0.54563  1.0000
  C   C2726     1.0  0.14563  0.73574  0.53388  1.0000
  Fe  Fe459     1.0  0.21918  0.77927  0.53749  1.0000
  S   S909      1.0  0.24499  0.77219  0.53579  1.0000
  S   S910      1.0  0.17477  0.78977  0.54023  1.0000
  S   S911      1.0  0.20630  0.80386  0.53103  1.0000
  Fe  Fe460     1.0  0.16619  0.80086  0.41097  1.0000
  S   S912      1.0  0.16935  0.78809  0.39255  1.0000
  S   S913      1.0  0.15090  0.82476  0.40875  1.0000
  Fe  Fe461     1.0  0.18702  0.77475  0.42884  1.0000
  S   S914      1.0  0.19182  0.75971  0.41198  1.0000
  S   S915      1.0  0.19978  0.76504  0.44811  1.0000
  Fe  Fe462     1.0  0.19431  0.78147  0.39404  1.0000
  H   H2705     1.0  0.16643  0.85586  0.40842  1.0000
  Fe  Fe463     1.0  0.16644  0.76769  0.41223  1.0000
  S   S916      1.0  0.15099  0.75172  0.41434  1.0000
  S   S917      1.0  0.19150  0.79595  0.41088  1.0000
  S   S918      1.0  0.16129  0.78099  0.43073  1.0000
  H   H2706     1.0  0.27713  0.75227  0.38788  1.0000
  H   H2707     1.0  0.43034  0.92872  0.51817  1.0000
  S   S919      1.0  0.35522  0.79939  0.53763  1.0000
  C   C2727     1.0  0.17750  0.74561  0.48930  1.0000
  C   C2728     1.0  0.06159  0.97378  0.38834  1.0000
  C   C2729     1.0  0.47424  0.91569  0.40940  1.0000
  H   H2708     1.0  0.36115  0.80002  0.47646  1.0000
  S   S920      1.0  0.47116  0.87647  0.45880  1.0000
  Fe  Fe464     1.0  0.46350  0.91148  0.47754  1.0000
  S   S921      1.0  0.45870  0.88851  0.49135  1.0000
  N   N233      1.0  0.24515  0.84618  0.55069  1.0000
  Fe  Fe465     1.0  0.44881  0.88852  0.47185  1.0000
  S   S922      1.0  0.42686  0.88001  0.47758  1.0000
  H   H2709     1.0  0.19077  0.84980  0.38898  1.0000
  Fe  Fe466     1.0  0.39553  0.81049  0.43835  1.0000
  S   S923      1.0  0.37038  0.81540  0.43826  1.0000
  S   S924      1.0  0.41072  0.78675  0.44317  1.0000
  Fe  Fe467     1.0  0.39660  0.84446  0.43039  1.0000
  S   S925      1.0  0.37134  0.85254  0.42971  1.0000
  S   S926      1.0  0.41362  0.85993  0.42358  1.0000
  Fe  Fe468     1.0  0.36797  0.83366  0.45106  1.0000
  S   S927      1.0  0.34709  0.83605  0.47066  1.0000
  Fe  Fe469     1.0  0.37581  0.83365  0.41704  1.0000
  S   S928      1.0  0.36818  0.83679  0.39505  1.0000
  S   S929      1.0  0.39288  0.82727  0.45287  1.0000
  S   S930      1.0  0.40136  0.82704  0.41598  1.0000
  C   C2730     1.0  0.42363  0.87394  0.46265  1.0000
  C   C2731     1.0  0.41096  0.86722  0.46541  1.0000
  C   C2732     1.0  0.40810  0.86238  0.45358  1.0000
  C   C2733     1.0  0.41789  0.86432  0.43896  1.0000
  C   C2734     1.0  0.43074  0.87078  0.43628  1.0000
  C   C2735     1.0  0.43364  0.87555  0.44812  1.0000
  H   H2710     1.0  0.40322  0.86592  0.47666  1.0000
  H   H2711     1.0  0.39806  0.85757  0.45567  1.0000
  H   H2712     1.0  0.43831  0.87231  0.42495  1.0000
  H   H2713     1.0  0.44344  0.88074  0.44591  1.0000
  C   C2736     1.0  0.15827  0.92677  0.53658  1.0000
  C   C2737     1.0  0.35153  0.82990  0.39739  1.0000
  C   C2738     1.0  0.18438  0.87029  0.37191  1.0000
  C   C2739     1.0  0.35278  0.80982  0.51916  1.0000
  C   C2740     1.0  0.33804  0.81525  0.51585  1.0000
  C   C2741     1.0  0.33639  0.82352  0.50096  1.0000
  C   C2742     1.0  0.34945  0.82632  0.48936  1.0000
  C   C2743     1.0  0.36417  0.82101  0.49274  1.0000
  C   C2744     1.0  0.36583  0.81277  0.50762  1.0000
  H   H2714     1.0  0.32792  0.81304  0.52472  1.0000
  H   H2715     1.0  0.32498  0.82763  0.49839  1.0000
  H   H2716     1.0  0.37423  0.82345  0.48398  1.0000
  H   H2717     1.0  0.37722  0.80875  0.51022  1.0000
  N   N234      1.0  0.41914  0.90610  0.41508  1.0000
  C   C2745     1.0  0.25294  0.78398  0.54207  1.0000
  C   C2746     1.0  0.35477  0.78236  0.47012  1.0000
  S   S931      1.0  0.31549  0.81517  0.56434  1.0000
  C   C2747     1.0  0.11768  0.93081  0.56056  1.0000
  C   C2748     1.0  0.27572  0.78976  0.54573  1.0000
  C   C2749     1.0  0.26907  0.78114  0.54004  1.0000
  C   C2750     1.0  0.38769  0.76967  0.39424  1.0000
  C   C2751     1.0  0.18652  0.75049  0.50918  1.0000
  H   H2718     1.0  0.42861  0.91963  0.39372  1.0000
  H   H2719     1.0  0.27645  0.77221  0.53408  1.0000
  C   C2752     1.0  0.19252  0.79554  0.48198  1.0000
  C   C2753     1.0  0.18448  0.80076  0.47002  1.0000
  C   C2754     1.0  0.18688  0.79163  0.45932  1.0000
  C   C2755     1.0  0.19737  0.77727  0.46055  1.0000
  C   C2756     1.0  0.20591  0.77238  0.47205  1.0000
  C   C2757     1.0  0.20358  0.78154  0.48267  1.0000
  H   H2720     1.0  0.17603  0.81167  0.46934  1.0000
  H   H2721     1.0  0.18035  0.79555  0.45037  1.0000
  H   H2722     1.0  0.21416  0.76133  0.47294  1.0000
  H   H2723     1.0  0.21011  0.77761  0.49159  1.0000
  H   H2724     1.0  0.40526  0.80059  0.39989  1.0000
  C   C2758     1.0  0.24345  0.79553  0.54979  1.0000
  C   C2759     1.0  0.15989  0.75433  0.38291  1.0000
  C   C2760     1.0  0.14937  0.74976  0.39654  1.0000
  H   H2725     1.0  0.35428  0.80763  0.56588  1.0000
  H   H2726     1.0  0.10343  0.96191  0.39031  1.0000
  H   H2727     1.0  0.16916  0.75922  0.38321  1.0000
  H   H2728     1.0  0.22396  0.74869  0.39008  1.0000
  N   N235      1.0  0.44581  0.91841  0.54963  1.0000
  H   H2729     1.0  0.34528  0.82691  0.42207  1.0000
  H   H2730     1.0  0.13563  0.85350  0.39175  1.0000
  C   C2761     1.0  0.34756  0.82837  0.38444  1.0000
  C   C2762     1.0  0.22992  0.84836  0.55830  1.0000
  H   H2731     1.0  0.48006  0.90678  0.50239  1.0000
  C   C2763     1.0  0.14645  0.75080  0.53364  1.0000
  C   C2764     1.0  0.15784  0.75320  0.53959  1.0000
  C   C2765     1.0  0.17762  0.76559  0.50673  1.0000
  H   H2732     1.0  0.14082  0.81339  0.38538  1.0000
  Fe  Fe470     1.0  0.47495  0.90045  0.44750  1.0000
  H   H2733     1.0  0.13812  0.76063  0.52900  1.0000
  H   H2734     1.0  0.15818  0.76483  0.53962  1.0000
  C   C2766     1.0  0.45062  0.84259  0.47451  1.0000
  C   C2767     1.0  0.43244  0.92944  0.52890  1.0000
  C   C2768     1.0  0.26544  0.75130  0.38861  1.0000
  Fe  Fe471     1.0  0.30474  0.81024  0.38077  1.0000
  C   C2769     1.0  0.43909  0.93136  0.55558  1.0000
  H   H2735     1.0  0.43954  0.94123  0.40796  1.0000
  H   H2736     1.0  0.45416  0.83578  0.50640  1.0000
  C   C2770     1.0  0.35939  0.76729  0.46765  1.0000
  N   N236      1.0  0.46166  0.84183  0.48213  1.0000
  C   C2771     1.0  0.46375  0.94237  0.51069  1.0000
  C   C2772     1.0  0.26628  0.80130  0.55344  1.0000
  H   H2737     1.0  0.46490  0.89883  0.54959  1.0000
  H   H2738     1.0  0.38866  0.79831  0.47570  1.0000
  H   H2739     1.0  0.35513  0.79231  0.40920  1.0000
  C   C2773     1.0  0.15723  0.87717  0.39356  1.0000
  H   H2740     1.0  0.15750  0.77856  0.47090  1.0000
  H   H2741     1.0  0.11441  0.94350  0.55588  1.0000
  C   C2774     1.0  0.24973  0.84186  0.53569  1.0000
  C   C2775     1.0  0.45074  0.93411  0.40397  1.0000
  C   C2776     1.0  0.40906  0.90960  0.44108  1.0000
  H   H2742     1.0  0.44275  0.90515  0.40326  1.0000
  C   C2777     1.0  0.41015  0.77817  0.39441  1.0000
  C   C2778     1.0  0.47031  0.94076  0.52319  1.0000
  S   S932      1.0  0.18280  0.74316  0.55350  1.0000
  C   C2779     1.0  0.15633  0.83535  0.39004  1.0000
  H   H2743     1.0  0.39524  0.75782  0.47523  1.0000
  C   C2780     1.0  0.16853  0.86383  0.39734  1.0000
  C   C2781     1.0  0.45691  0.84593  0.49723  1.0000
  C   C2782     1.0  0.19074  0.85204  0.54841  1.0000
  C   C2783     1.0  0.40377  0.76701  0.39236  1.0000
  H   H2744     1.0  0.16082  0.89063  0.55946  1.0000
  H   H2745     1.0  0.18883  0.83190  0.54211  1.0000
  H   H2746     1.0  0.19489  0.85775  0.53665  1.0000
  C   C2784     1.0  0.17282  0.88350  0.36851  1.0000
  H   H2747     1.0  0.43154  0.89932  0.39386  1.0000
  C   C2785     1.0  0.42891  0.94370  0.54833  1.0000
  C   C2786     1.0  0.16866  0.74054  0.54555  1.0000
  C   C2787     1.0  0.45971  0.92477  0.41455  1.0000
  H   H2748     1.0  0.45552  0.92488  0.42663  1.0000
  C   C2788     1.0  0.39953  0.74878  0.42814  1.0000
  C   C2789     1.0  0.38782  0.76172  0.43129  1.0000
  C   C2790     1.0  0.39126  0.77374  0.43541  1.0000
  C   C2791     1.0  0.40632  0.77265  0.43672  1.0000
  C   C2792     1.0  0.41803  0.75986  0.43331  1.0000
  C   C2793     1.0  0.41470  0.74812  0.42872  1.0000
  H   H2749     1.0  0.37609  0.76234  0.43072  1.0000
  H   H2750     1.0  0.38216  0.78353  0.43809  1.0000
  H   H2751     1.0  0.42974  0.75908  0.43409  1.0000
  C   C2794     1.0  0.35371  0.83149  0.55472  1.0000
  C   C2795     1.0  0.11907  0.96740  0.36847  1.0000
  C   C2796     1.0  0.05056  0.96912  0.36976  1.0000
  C   C2797     1.0  0.25013  0.80418  0.55545  1.0000
  C   C2798     1.0  0.35571  0.84561  0.55576  1.0000
  H   H2752     1.0  0.12416  0.81237  0.37940  1.0000
  H   H2753     1.0  0.35175  0.76257  0.46405  1.0000
  C   C2799     1.0  0.18866  0.85935  0.56047  1.0000
  H   H2754     1.0  0.13966  0.89665  0.36979  1.0000
  H   H2755     1.0  0.40604  0.89583  0.40654  1.0000
  C   C2800     1.0  0.13631  0.74107  0.38206  1.0000
  S   S933      1.0  0.13096  0.73319  0.52664  1.0000
  H   H2756     1.0  0.47736  0.95076  0.40119  1.0000
  S   S934      1.0  0.25235  0.83007  0.36869  1.0000
  N   N237      1.0  0.37824  0.78304  0.39817  1.0000
  S   S935      1.0  0.30982  0.80963  0.40324  1.0000
  C   C2801     1.0  0.48051  0.92694  0.52811  1.0000
  C   C2802     1.0  0.37396  0.75835  0.46967  1.0000
  H   H2757     1.0  0.17690  0.90638  0.53830  1.0000
  H   H2758     1.0  0.24198  0.83494  0.53484  1.0000
  C   C2803     1.0  0.22495  0.79476  0.37160  1.0000
  C   C2804     1.0  0.16483  0.91143  0.54271  1.0000
  H   H2759     1.0  0.41112  0.75608  0.38996  1.0000
  N   N238      1.0  0.16906  0.76055  0.48676  1.0000
  Fe  Fe472     1.0  0.29835  0.80146  0.56514  1.0000
  H   H2760     1.0  0.06081  0.97467  0.39998  1.0000
  H   H2761     1.0  0.35388  0.85579  0.54659  1.0000
  C   C2805     1.0  0.04973  0.96958  0.38489  1.0000
  S   S936      1.0  0.39520  0.73366  0.42320  1.0000
  C   C2806     1.0  0.18218  0.86040  0.38641  1.0000
  H   H2762     1.0  0.41033  0.91291  0.45096  1.0000
  H   H2763     1.0  0.35805  0.79262  0.38906  1.0000
  H   H2764     1.0  0.10122  0.93725  0.38599  1.0000
  H   H2765     1.0  0.40174  0.77994  0.47809  1.0000
  H   H2766     1.0  0.44170  0.93228  0.56593  1.0000
  H   H2767     1.0  0.42395  0.73867  0.42539  1.0000
  H   H2768     1.0  0.17764  0.77360  0.51337  1.0000
  H   H2769     1.0  0.21511  0.79036  0.43102  1.0000
  H   H2770     1.0  0.14860  0.76206  0.47975  1.0000
  C   C2807     1.0  0.45490  0.83905  0.45994  1.0000
  H   H2771     1.0  0.32265  0.81591  0.42514  1.0000
  H   H2772     1.0  0.26167  0.83447  0.53401  1.0000
  C   C2808     1.0  0.15325  0.94966  0.56330  1.0000
  C   C2809     1.0  0.44247  0.91724  0.53656  1.0000
  C   C2810     1.0  0.48176  0.83321  0.46140  1.0000
  N   N239      1.0  0.13401  0.92430  0.55442  1.0000
  H   H2773     1.0  0.38818  0.90145  0.45309  1.0000
  H   H2774     1.0  0.23098  0.79767  0.55155  1.0000
  H   H2775     1.0  0.44654  0.85571  0.49766  1.0000
  C   C2811     1.0  0.47975  0.91597  0.39363  1.0000
  C   C2812     1.0  0.46713  0.93009  0.50323  1.0000
  S   S937      1.0  0.31606  0.78323  0.55389  1.0000
  Fe  Fe473     1.0  0.47759  0.94045  0.56050  1.0000
  S   S938      1.0  0.45770  0.93201  0.48848  1.0000
  H   H2776     1.0  0.45586  0.95309  0.50692  1.0000
  C   C2813     1.0  0.34249  0.82547  0.41205  1.0000
  C   C2814     1.0  0.18746  0.83733  0.55150  1.0000
  C   C2815     1.0  0.25401  0.75256  0.40204  1.0000
  C   C2816     1.0  0.32961  0.81935  0.41377  1.0000
  S   S939      1.0  0.19356  0.87745  0.55643  1.0000
  C   C2817     1.0  0.33458  0.82242  0.38614  1.0000
  H   H2777     1.0  0.22981  0.79438  0.40378  1.0000
  H   H2778     1.0  0.42999  0.91582  0.42653  1.0000
  H   H2779     1.0  0.41801  0.95236  0.52890  1.0000
  H   H2780     1.0  0.44909  0.89759  0.56653  1.0000
  C   C2818     1.0  0.47059  0.83450  0.45330  1.0000
  H   H2781     1.0  0.16616  0.76079  0.46469  1.0000
  H   H2782     1.0  0.19298  0.72849  0.50260  1.0000
  Fe  Fe474     1.0  0.18842  0.79742  0.55239  1.0000
  C   C2819     1.0  0.15103  0.85769  0.36942  1.0000
  H   H2783     1.0  0.03970  0.96717  0.39387  1.0000
  H   H2784     1.0  0.17792  0.81911  0.38486  1.0000
  H   H2785     1.0  0.46621  0.84989  0.49960  1.0000
  C   C2820     1.0  0.23572  0.74911  0.38970  1.0000
  C   C2821     1.0  0.36485  0.78830  0.47457  1.0000
  H   H2786     1.0  0.16199  0.78223  0.49368  1.0000
  H   H2787     1.0  0.21973  0.83094  0.37757  1.0000
  C   C2822     1.0  0.10860  0.94421  0.37732  1.0000
  C   C2823     1.0  0.36142  0.78577  0.40001  1.0000
  H   H2788     1.0  0.28816  0.78758  0.54393  1.0000
  H   H2789     1.0  0.35464  0.83156  0.37309  1.0000
  H   H2790     1.0  0.35049  0.83050  0.54467  1.0000
  C   C2824     1.0  0.14657  0.84925  0.38445  1.0000
  C   C2825     1.0  0.42023  0.91108  0.42727  1.0000
  S   S940      1.0  0.28685  0.79772  0.38146  1.0000
  H   H2791     1.0  0.44788  0.90705  0.53173  1.0000
  H   H2792     1.0  0.16521  0.93382  0.52738  1.0000
  H   H2793     1.0  0.22362  0.79790  0.45054  1.0000
  N   N240      1.0  0.25087  0.80868  0.41898  1.0000
  C   C2826     1.0  0.24299  0.80626  0.43405  1.0000
  C   C2827     1.0  0.24639  0.80425  0.40826  1.0000
  C   C2828     1.0  0.22998  0.79968  0.43861  1.0000
  C   C2829     1.0  0.23345  0.79765  0.41239  1.0000
  C   C2830     1.0  0.13957  0.97411  0.55001  1.0000
  C   C2831     1.0  0.26463  0.81535  0.41437  1.0000
  H   H2794     1.0  0.24670  0.80948  0.44265  1.0000
  H   H2795     1.0  0.25277  0.80590  0.39640  1.0000
  C   C2832     1.0  0.14270  0.93302  0.54251  1.0000
  C   C2833     1.0  0.47703  0.83674  0.47598  1.0000
  C   C2834     1.0  0.22570  0.81998  0.37439  1.0000
  H   H2796     1.0  0.26576  0.82250  0.40241  1.0000
  H   H2797     1.0  0.26403  0.82308  0.42194  1.0000
  H   H2798     1.0  0.27528  0.80597  0.41490  1.0000
  C   C2835     1.0  0.38445  0.79415  0.39993  1.0000
  H   H2799     1.0  0.33158  0.82126  0.37610  1.0000
  H   H2800     1.0  0.14642  0.87947  0.40192  1.0000
  H   H2801     1.0  0.44608  0.84005  0.45380  1.0000
  C   C2836     1.0  0.16877  0.77041  0.49553  1.0000
  H   H2802     1.0  0.38282  0.76071  0.39308  1.0000
  C   C2837     1.0  0.47088  0.92547  0.38302  1.0000
  H   H2803     1.0  0.12432  0.82904  0.38618  1.0000
  H   H2804     1.0  0.22997  0.75254  0.41295  1.0000
  H   H2805     1.0  0.20487  0.81151  0.37967  1.0000
  C   C2838     1.0  0.23904  0.75143  0.40263  1.0000
  C   C2839     1.0  0.40046  0.79189  0.39811  1.0000
  H   H2806     1.0  0.24927  0.85245  0.52633  1.0000
  C   C2840     1.0  0.32565  0.81779  0.40083  1.0000
  S   S941      1.0  0.44488  0.94613  0.37520  1.0000
  C   C2841     1.0  0.10975  0.95822  0.37974  1.0000
  C   C2842     1.0  0.45634  0.93450  0.38820  1.0000
  H   H2807     1.0  0.46760  0.95026  0.52888  1.0000
  C   C2843     1.0  0.15581  0.90259  0.55467  1.0000
  H   H2808     1.0  0.38608  0.89298  0.43062  1.0000
  C   C2844     1.0  0.15329  0.96291  0.55133  1.0000
  C   C2845     1.0  0.39662  0.90318  0.44228  1.0000
  H   H2809     1.0  0.34348  0.78948  0.46857  1.0000
  C   C2846     1.0  0.17043  0.82986  0.38060  1.0000
  S   S942      1.0  0.45154  0.91246  0.45906  1.0000
  N   N241      1.0  0.15953  0.88686  0.37933  1.0000
  H   H2810     1.0  0.43841  0.84620  0.47959  1.0000
  S   S943      1.0  0.45724  0.96056  0.55847  1.0000
  H   H2811     1.0  0.38593  0.78475  0.49406  1.0000
  H   H2812     1.0  0.35747  0.77470  0.40336  1.0000
  C   C2847     1.0  0.40681  0.90006  0.41607  1.0000
  Fe  Fe475     1.0  0.33328  0.79571  0.55509  1.0000
  H   H2813     1.0  0.47524  0.92566  0.37086  1.0000
  H   H2814     1.0  0.16400  0.96457  0.54316  1.0000
  H   H2815     1.0  0.22125  0.84664  0.55346  1.0000
  C   C2848     1.0  0.26168  0.74895  0.37594  1.0000
  H   H2816     1.0  0.46261  0.90967  0.56355  1.0000
  C   C2849     1.0  0.24181  0.81674  0.36917  1.0000
  Fe  Fe476     1.0  0.48142  0.87849  0.47715  1.0000
  H   H2817     1.0  0.37782  0.74672  0.46749  1.0000
  H   H2818     1.0  0.19334  0.74659  0.51794  1.0000
  H   H2819     1.0  0.37700  0.80470  0.40308  1.0000
  C   C2850     1.0  0.25601  0.84875  0.55663  1.0000
  C   C2851     1.0  0.45605  0.90542  0.55775  1.0000
  S   S944      1.0  0.20224  0.77332  0.55964  1.0000
  H   H2820     1.0  0.25673  0.75443  0.41195  1.0000
  C   C2852     1.0  0.27673  0.74223  0.56353  1.0000
  H   H2821     1.0  0.17749  0.73771  0.48253  1.0000
  C   C2853     1.0  0.48416  0.91478  0.52043  1.0000
  C   C2854     1.0  0.13137  0.82025  0.37934  1.0000
  H   H2822     1.0  0.13969  0.90469  0.38542  1.0000
  H   H2823     1.0  0.36240  0.85835  0.36695  1.0000
  S   S945      1.0  0.27434  0.81226  0.56068  1.0000
  H   H2824     1.0  0.26810  0.84696  0.55063  1.0000
  H   H2825     1.0  0.12708  0.73610  0.38179  1.0000
  C   C2855     1.0  0.14039  0.90928  0.56053  1.0000
  H   H2826     1.0  0.16388  0.94120  0.56424  1.0000
  H   H2827     1.0  0.25306  0.74514  0.56207  1.0000
  H   H2828     1.0  0.15185  0.90995  0.36696  1.0000
  H   H2829     1.0  0.48574  0.83560  0.48226  1.0000
  C   C2856     1.0  0.26084  0.74864  0.56671  1.0000
  C   C2857     1.0  0.18213  0.82983  0.56666  1.0000
  H   H2830     1.0  0.29901  0.74236  0.56677  1.0000
  H   H2831     1.0  0.04118  0.96633  0.36685  1.0000
  H   H2832     1.0  0.31648  0.83461  0.58446  1.0000
  C   C2858     1.0  0.32512  0.85091  0.59081  1.0000
  C   C2859     1.0  0.30589  0.89261  0.62272  1.0000
  H   H2833     1.0  0.17634  0.83128  0.59048  1.0000
  H   H2834     1.0  0.32898  0.74584  0.65538  1.0000
  H   H2835     1.0  0.45488  0.84706  0.75401  1.0000
  S   S946      1.0  0.17310  0.84625  0.75062  1.0000
  H   H2836     1.0  0.30003  0.93323  0.70921  1.0000
  S   S947      1.0  0.25352  0.97074  0.66323  1.0000
  H   H2837     1.0  0.42623  0.73284  0.73910  1.0000
  S   S948      1.0  0.12994  0.86457  0.74526  1.0000
  C   C2860     1.0  0.14456  0.76094  0.76478  1.0000
  H   H2838     1.0  0.11855  0.72911  0.56948  1.0000
  Fe  Fe477     1.0  0.47821  0.94309  0.59231  1.0000
  H   H2839     1.0  0.36978  0.81431  0.71882  1.0000
  H   H2840     1.0  0.42044  0.86015  0.65028  1.0000
  C   C2861     1.0  0.27451  0.91095  0.65208  1.0000
  C   C2862     1.0  0.14955  0.73227  0.58045  1.0000
  S   S949      1.0  0.00923  0.92926  0.74089  1.0000
  H   H2841     1.0  0.35718  0.82388  0.70551  1.0000
  Fe  Fe478     1.0  0.37910  0.88099  0.61722  1.0000
  S   S950      1.0  0.37152  0.87814  0.64283  1.0000
  S   S951      1.0  0.40333  0.88435  0.60541  1.0000
  Fe  Fe479     1.0  0.35036  0.87253  0.61487  1.0000
  S   S952      1.0  0.34048  0.86866  0.64036  1.0000
  H   H2842     1.0  0.02312  0.80447  0.69377  1.0000
  Fe  Fe480     1.0  0.34788  0.89047  0.63849  1.0000
  S   S953      1.0  0.33248  0.90723  0.65309  1.0000
  Fe  Fe481     1.0  0.36481  0.85664  0.64264  1.0000
  S   S954      1.0  0.37148  0.83449  0.65979  1.0000
  S   S955      1.0  0.35606  0.89538  0.61273  1.0000
  S   S956      1.0  0.37409  0.85845  0.61724  1.0000
  S   S957      1.0  0.45760  0.96321  0.59304  1.0000
  Fe  Fe482     1.0  0.44738  0.94986  0.58294  1.0000
  S   S958      1.0  0.42192  0.94923  0.58963  1.0000
  C   C2863     1.0  0.19564  0.92238  0.75916  1.0000
  Fe  Fe483     1.0  0.39399  0.83401  0.73318  1.0000
  S   S959      1.0  0.40591  0.80893  0.73481  1.0000
  S   S960      1.0  0.39041  0.85221  0.71189  1.0000
  C   C2864     1.0  0.00857  0.85986  0.73762  1.0000
  C   C2865     1.0  0.18723  0.95506  0.57997  1.0000
  H   H2843     1.0  0.41884  0.77656  0.76353  1.0000
  C   C2866     1.0  0.14521  0.84335  0.61356  1.0000
  Fe  Fe484     1.0  0.38566  0.80457  0.75428  1.0000
  C   C2867     1.0  0.29338  0.73733  0.66532  1.0000
  S   S961      1.0  0.40579  0.83789  0.74949  1.0000
  S   S962      1.0  0.37283  0.82938  0.75109  1.0000
  H   H2844     1.0  0.35376  0.79858  0.59344  1.0000
  H   H2845     1.0  0.28149  0.75101  0.63284  1.0000
  Fe  Fe485     1.0  0.17537  0.88367  0.61129  1.0000
  S   S963      1.0  0.17218  0.86445  0.63210  1.0000
  Fe  Fe486     1.0  0.19442  0.90770  0.59452  1.0000
  H   H2846     1.0  0.28534  0.94539  0.72102  1.0000
  C   C2868     1.0  0.01827  0.84397  0.66502  1.0000
  C   C2869     1.0  0.37574  0.75753  0.75304  1.0000
  S   S964      1.0  0.25925  0.94826  0.75074  1.0000
  S   S965      1.0  0.44020  0.79939  0.75493  1.0000
  C   C2870     1.0  0.35999  0.84659  0.56872  1.0000
  C   C2871     1.0  0.98992  0.84844  0.67338  1.0000
  Fe  Fe487     1.0  0.41589  0.81230  0.75286  1.0000
  S   S966      1.0  0.40111  0.73392  0.72013  1.0000
  H   H2847     1.0  0.27963  0.93451  0.71119  1.0000
  H   H2848     1.0  0.13258  0.74884  0.56860  1.0000
  Fe  Fe488     1.0  0.25511  0.96185  0.64244  1.0000
  Fe  Fe489     1.0  0.23610  0.95577  0.67489  1.0000
  Fe  Fe490     1.0  0.14818  0.85698  0.75928  1.0000
  S   S967      1.0  0.23555  0.93803  0.69736  1.0000
  H   H2849     1.0  0.15598  0.74088  0.57946  1.0000
  S   S968      1.0  0.27687  0.95378  0.62553  1.0000
  S   S969      1.0  0.23918  0.94564  0.65453  1.0000
  Fe  Fe491     1.0  0.10594  0.81617  0.70457  1.0000
  S   S970      1.0  0.11634  0.81597  0.67959  1.0000
  S   S971      1.0  0.12208  0.81003  0.72089  1.0000
  Fe  Fe492     1.0  0.07315  0.82464  0.69985  1.0000
  S   S972      1.0  0.08061  0.82570  0.67451  1.0000
  S   S973      1.0  0.04794  0.82888  0.71131  1.0000
  Fe  Fe493     1.0  0.09786  0.80386  0.68105  1.0000
  S   S974      1.0  0.10274  0.78498  0.66820  1.0000
  Fe  Fe494     1.0  0.09829  0.83781  0.67519  1.0000
  S   S975      1.0  0.10243  0.85921  0.65722  1.0000
  S   S976      1.0  0.08913  0.80172  0.70653  1.0000
  S   S977      1.0  0.08909  0.83899  0.70000  1.0000
  Fe  Fe495     1.0  0.46928  0.97210  0.56872  1.0000
  S   S978      1.0  0.13902  0.93089  0.58890  1.0000
  C   C2872     1.0  0.13948  0.94749  0.57392  1.0000
  H   H2850     1.0  0.47015  0.78975  0.76231  1.0000
  H   H2851     1.0  0.09297  0.72876  0.58523  1.0000
  C   C2873     1.0  0.09360  0.74643  0.69819  1.0000
  C   C2874     1.0  0.00037  0.88332  0.71957  1.0000
  C   C2875     1.0  0.28848  0.74302  0.62562  1.0000
  S   S979      1.0  0.00772  0.88464  0.67191  1.0000
  H   H2852     1.0  0.18510  0.93177  0.61472  1.0000
  C   C2876     1.0  0.20496  0.93670  0.73425  1.0000
  N   N242      1.0  0.28381  0.90757  0.63725  1.0000
  H   H2853     1.0  0.29822  0.91021  0.76565  1.0000
  S   S980      1.0  0.03927  0.74163  0.64402  1.0000
  S   S981      1.0  0.33677  0.78141  0.57826  1.0000
  H   H2854     1.0  0.01701  0.85521  0.65711  1.0000
  S   S982      1.0  0.04192  0.76204  0.67544  1.0000
  C   C2877     1.0  0.45278  0.81014  0.75604  1.0000
  C   C2878     1.0  0.16024  0.95812  0.59448  1.0000
  H   H2855     1.0  0.12646  0.77199  0.73563  1.0000
  C   C2879     1.0  0.36617  0.79700  0.69754  1.0000
  C   C2880     1.0  0.36867  0.78237  0.69438  1.0000
  C   C2881     1.0  0.22530  0.85287  0.57242  1.0000
  N   N243      1.0  0.36043  0.79917  0.71229  1.0000
  H   H2856     1.0  0.36504  0.83438  0.59072  1.0000
  H   H2857     1.0  0.43987  0.91743  0.59408  1.0000
  S   S983      1.0  0.21343  0.91863  0.59475  1.0000
  H   H2858     1.0  0.09203  0.74542  0.71075  1.0000
  H   H2859     1.0  0.99110  0.89177  0.71486  1.0000
  S   S984      1.0  0.31989  0.74470  0.58498  1.0000
  S   S985      1.0  0.32066  0.80637  0.60815  1.0000
  H   H2860     1.0  0.13357  0.90244  0.57010  1.0000
  C   C2882     1.0  0.02183  0.81558  0.68567  1.0000
  H   H2861     1.0  0.09989  0.88405  0.76132  1.0000
  C   C2883     1.0  0.42040  0.76694  0.75823  1.0000
  Fe  Fe496     1.0  0.04535  0.74094  0.66599  1.0000
  H   H2862     1.0  0.17997  0.94991  0.63184  1.0000
  H   H2863     1.0  0.30124  0.89011  0.64719  1.0000
  C   C2884     1.0  0.01897  0.89793  0.70136  1.0000
  H   H2864     1.0  0.06438  0.72813  0.71475  1.0000
  H   H2865     1.0  0.00591  0.85012  0.74686  1.0000
  S   S986      1.0  0.18402  0.91417  0.57376  1.0000
  H   H2866     1.0  0.98642  0.73823  0.68243  1.0000
  C   C2885     1.0  0.12573  0.95867  0.57255  1.0000
  C   C2886     1.0  0.04453  0.72925  0.60275  1.0000
  C   C2887     1.0  0.20771  0.94333  0.75664  1.0000
  H   H2867     1.0  0.98961  0.90979  0.76300  1.0000
  H   H2868     1.0  0.19367  0.95834  0.58665  1.0000
  N   N244      1.0  0.01544  0.88456  0.71359  1.0000
  C   C2888     1.0  0.08566  0.77920  0.66964  1.0000
  C   C2889     1.0  0.08584  0.76891  0.66091  1.0000
  C   C2890     1.0  0.07237  0.76379  0.66241  1.0000
  C   C2891     1.0  0.05877  0.76875  0.67284  1.0000
  C   C2892     1.0  0.05859  0.77912  0.68149  1.0000
  C   C2893     1.0  0.07199  0.78437  0.67987  1.0000
  H   H2869     1.0  0.09636  0.76495  0.65292  1.0000
  H   H2870     1.0  0.07249  0.75614  0.65539  1.0000
  H   H2871     1.0  0.04814  0.78286  0.68966  1.0000
  H   H2872     1.0  0.07180  0.79218  0.68678  1.0000
  C   C2894     1.0  0.03701  0.84430  0.70019  1.0000
  C   C2895     1.0  0.02091  0.84624  0.70364  1.0000
  C   C2896     1.0  0.01191  0.85860  0.69502  1.0000
  C   C2897     1.0  0.01889  0.86918  0.68297  1.0000
  C   C2898     1.0  0.03505  0.86715  0.67941  1.0000
  C   C2899     1.0  0.04412  0.85473  0.68803  1.0000
  H   H2873     1.0  0.01541  0.83808  0.71292  1.0000
  H   H2874     1.0  0.99966  0.85955  0.69746  1.0000
  H   H2875     1.0  0.04057  0.87519  0.66999  1.0000
  H   H2876     1.0  0.05658  0.85332  0.68534  1.0000
  C   C2900     1.0  0.28855  0.93416  0.71734  1.0000
  C   C2901     1.0  0.25239  0.94549  0.73605  1.0000
  C   C2902     1.0  0.24858  0.93148  0.73720  1.0000
  C   C2903     1.0  0.24390  0.92916  0.72501  1.0000
  C   C2904     1.0  0.24273  0.94093  0.71174  1.0000
  C   C2905     1.0  0.24659  0.95493  0.71053  1.0000
  C   C2906     1.0  0.25146  0.95717  0.72267  1.0000
  H   H2877     1.0  0.08187  0.75101  0.69560  1.0000
  H   H2878     1.0  0.24085  0.91834  0.72600  1.0000
  H   H2879     1.0  0.29271  0.88567  0.76476  1.0000
  C   C2907     1.0  0.31932  0.74053  0.66198  1.0000
  H   H2880     1.0  0.36124  0.85758  0.56986  1.0000
  H   H2881     1.0  0.16338  0.94700  0.60210  1.0000
  C   C2908     1.0  0.15273  0.86361  0.63958  1.0000
  C   C2909     1.0  0.14899  0.85097  0.65121  1.0000
  C   C2910     1.0  0.13353  0.84972  0.65684  1.0000
  C   C2911     1.0  0.12174  0.86111  0.65093  1.0000
  C   C2912     1.0  0.12545  0.87389  0.63945  1.0000
  C   C2913     1.0  0.14096  0.87515  0.63376  1.0000
  H   H2882     1.0  0.15811  0.84205  0.65571  1.0000
  H   H2883     1.0  0.13079  0.83992  0.66571  1.0000
  H   H2884     1.0  0.11635  0.88277  0.63487  1.0000
  H   H2885     1.0  0.14378  0.88505  0.62491  1.0000
  H   H2886     1.0  0.28448  0.88402  0.74194  1.0000
  C   C2914     1.0  0.20390  0.95090  0.62773  1.0000
  C   C2915     1.0  0.21904  0.94564  0.61986  1.0000
  C   C2916     1.0  0.22187  0.93564  0.60986  1.0000
  H   H2887     1.0  0.22853  0.94949  0.62128  1.0000
  N   N245      1.0  0.10083  0.73133  0.69414  1.0000
  H   H2888     1.0  0.26894  0.92349  0.65076  1.0000
  H   H2889     1.0  0.30470  0.75250  0.64579  1.0000
  H   H2890     1.0  0.04644  0.81410  0.67767  1.0000
  S   S987      1.0  0.16285  0.88833  0.59240  1.0000
  H   H2891     1.0  0.26826  0.92447  0.62441  1.0000
  C   C2917     1.0  0.29490  0.90936  0.75560  1.0000
  H   H2892     1.0  0.15033  0.74919  0.76355  1.0000
  H   H2893     1.0  0.40657  0.76428  0.71504  1.0000
  H   H2894     1.0  0.28234  0.90679  0.72016  1.0000
  H   H2895     1.0  0.05933  0.73032  0.58006  1.0000
  C   C2918     1.0  0.38083  0.77145  0.74805  1.0000
  C   C2919     1.0  0.39194  0.77388  0.73433  1.0000
  C   C2920     1.0  0.25507  0.76010  0.57537  1.0000
  H   H2896     1.0  0.39569  0.78468  0.73023  1.0000
  C   C2921     1.0  0.33190  0.85343  0.60144  1.0000
  H   H2897     1.0  0.24275  0.76526  0.57744  1.0000
  H   H2898     1.0  0.37347  0.78066  0.68271  1.0000
  C   C2922     1.0  0.32425  0.82479  0.60569  1.0000
  C   C2923     1.0  0.33052  0.82751  0.61659  1.0000
  C   C2924     1.0  0.33451  0.84174  0.61440  1.0000
  H   H2899     1.0  0.01920  0.90738  0.70654  1.0000
  H   H2900     1.0  0.34905  0.81661  0.72534  1.0000
  H   H2901     1.0  0.33261  0.81847  0.62661  1.0000
  H   H2902     1.0  0.33974  0.84359  0.62265  1.0000
  C   C2925     1.0  0.31746  0.92078  0.64520  1.0000
  C   C2926     1.0  0.31768  0.92357  0.62953  1.0000
  C   C2927     1.0  0.30544  0.93420  0.62351  1.0000
  C   C2928     1.0  0.29275  0.94184  0.63317  1.0000
  C   C2929     1.0  0.29256  0.93916  0.64883  1.0000
  C   C2930     1.0  0.30496  0.92872  0.65481  1.0000
  H   H2903     1.0  0.32730  0.91761  0.62202  1.0000
  H   H2904     1.0  0.30565  0.93628  0.61137  1.0000
  H   H2905     1.0  0.28282  0.94503  0.65635  1.0000
  H   H2906     1.0  0.30477  0.92664  0.66693  1.0000
  C   C2931     1.0  0.38398  0.84629  0.69880  1.0000
  C   C2932     1.0  0.37281  0.85672  0.69117  1.0000
  C   C2933     1.0  0.36875  0.85296  0.67940  1.0000
  C   C2934     1.0  0.37599  0.83882  0.67508  1.0000
  C   C2935     1.0  0.38695  0.82820  0.68295  1.0000
  C   C2936     1.0  0.39089  0.83189  0.69488  1.0000
  H   H2907     1.0  0.36736  0.86782  0.69425  1.0000
  H   H2908     1.0  0.35999  0.86104  0.67365  1.0000
  H   H2909     1.0  0.39274  0.81733  0.67949  1.0000
  H   H2910     1.0  0.39972  0.82391  0.70058  1.0000
  C   C2937     1.0  0.40806  0.90256  0.60090  1.0000
  C   C2938     1.0  0.42362  0.90306  0.59864  1.0000
  C   C2939     1.0  0.42790  0.91728  0.59545  1.0000
  C   C2940     1.0  0.41672  0.93117  0.59417  1.0000
  C   C2941     1.0  0.40113  0.93068  0.59639  1.0000
  C   C2942     1.0  0.39678  0.91640  0.59976  1.0000
  H   H2911     1.0  0.36731  0.75845  0.70420  1.0000
  C   C2943     1.0  0.03318  0.83515  0.66606  1.0000
  H   H2912     1.0  0.39239  0.94139  0.59541  1.0000
  H   H2913     1.0  0.38475  0.91611  0.60139  1.0000
  C   C2944     1.0  0.32037  0.73004  0.67599  1.0000
  C   C2945     1.0  0.27876  0.91537  0.62403  1.0000
  H   H2914     1.0  0.18790  0.94236  0.58383  1.0000
  C   C2946     1.0  0.47210  0.82665  0.76050  1.0000
  C   C2947     1.0  0.19418  0.91446  0.73650  1.0000
  N   N246      1.0  0.00546  0.83888  0.67439  1.0000
  C   C2948     1.0  0.20059  0.93139  0.76597  1.0000
  C   C2949     1.0  0.99020  0.92534  0.72504  1.0000
  H   H2915     1.0  0.30787  0.89797  0.59822  1.0000
  C   C2950     1.0  0.41384  0.74376  0.75823  1.0000
  C   C2951     1.0  0.18329  0.85190  0.57564  1.0000
  H   H2916     1.0  0.22397  0.88537  0.75236  1.0000
  C   C2952     1.0  0.30099  0.90064  0.60916  1.0000
  H   H2917     1.0  0.24564  0.96408  0.70034  1.0000
  H   H2918     1.0  0.25763  0.77149  0.60219  1.0000
  C   C2953     1.0  0.30572  0.74427  0.65661  1.0000
  C   C2954     1.0  0.36202  0.80593  0.59201  1.0000
  H   H2919     1.0  0.23356  0.93182  0.60359  1.0000
  H   H2920     1.0  0.13639  0.85369  0.61669  1.0000
  H   H2921     1.0  0.41213  0.88442  0.63201  1.0000
  H   H2922     1.0  0.26535  0.90415  0.65666  1.0000
  C   C2955     1.0  0.12694  0.84900  0.73979  1.0000
  C   C2956     1.0  0.13666  0.83425  0.74245  1.0000
  C   C2957     1.0  0.13488  0.82228  0.73686  1.0000
  C   C2958     1.0  0.12332  0.82496  0.72870  1.0000
  C   C2959     1.0  0.11334  0.83958  0.72647  1.0000
  C   C2960     1.0  0.11517  0.85158  0.73195  1.0000
  H   H2923     1.0  0.14582  0.83217  0.74844  1.0000
  H   H2924     1.0  0.14276  0.81106  0.73852  1.0000
  H   H2925     1.0  0.10424  0.84172  0.72049  1.0000
  H   H2926     1.0  0.10755  0.86292  0.72996  1.0000
  H   H2927     1.0  0.04612  0.74006  0.60399  1.0000
  C   C2961     1.0  0.19168  0.94593  0.62572  1.0000
  Fe  Fe497     1.0  0.22017  0.96561  0.64784  1.0000
  H   H2928     1.0  0.32305  0.85994  0.58079  1.0000
  H   H2929     1.0  0.35974  0.80920  0.60326  1.0000
  C   C2962     1.0  0.29867  0.74826  0.61200  1.0000
  C   C2963     1.0  0.13631  0.73687  0.57431  1.0000
  C   C2964     1.0  0.39305  0.74838  0.73078  1.0000
  H   H2930     1.0  0.11503  0.95709  0.58077  1.0000
  H   H2931     1.0  0.29980  0.76009  0.60909  1.0000
  C   C2965     1.0  0.35687  0.78708  0.72412  1.0000
  C   C2966     1.0  0.35894  0.77237  0.72131  1.0000
  H   H2932     1.0  0.35270  0.78866  0.73589  1.0000
  H   H2933     1.0  0.35621  0.76277  0.73072  1.0000
  N   N247      1.0  0.13792  0.85616  0.69609  1.0000
  C   C2967     1.0  0.14387  0.86389  0.70293  1.0000
  C   C2968     1.0  0.14464  0.84103  0.69535  1.0000
  C   C2969     1.0  0.15663  0.85635  0.70962  1.0000
  C   C2970     1.0  0.15743  0.83314  0.70188  1.0000
  C   C2971     1.0  0.16341  0.84086  0.70911  1.0000
  C   C2972     1.0  0.12455  0.86434  0.68914  1.0000
  H   H2934     1.0  0.13848  0.87584  0.70367  1.0000
  H   H2935     1.0  0.13986  0.83481  0.69009  1.0000
  H   H2936     1.0  0.16091  0.86235  0.71557  1.0000
  C   C2973     1.0  0.47654  0.81050  0.76250  1.0000
  H   H2937     1.0  0.03332  0.85232  0.73563  1.0000
  H   H2938     1.0  0.11618  0.87233  0.69623  1.0000
  H   H2939     1.0  0.12851  0.87107  0.67736  1.0000
  H   H2940     1.0  0.11811  0.85613  0.68832  1.0000
  C   C2974     1.0  0.32147  0.83655  0.59283  1.0000
  N   N248      1.0  0.17109  0.96379  0.58234  1.0000
  H   H2941     1.0  0.03032  0.89471  0.69346  1.0000
  S   S988      1.0  0.19776  0.87347  0.75378  1.0000
  H   H2942     1.0  0.23283  0.85886  0.58961  1.0000
  C   C2975     1.0  0.18009  0.83716  0.57871  1.0000
  H   H2943     1.0  0.14913  0.84592  0.60081  1.0000
  H   H2944     1.0  0.11787  0.79119  0.75131  1.0000
  Fe  Fe498     1.0  0.31773  0.79994  0.58752  1.0000
  H   H2945     1.0  0.28276  0.74047  0.66121  1.0000
  H   H2946     1.0  0.18191  0.85732  0.58505  1.0000
  C   C2976     1.0  0.39801  0.76237  0.72568  1.0000
  C   C2977     1.0  0.20967  0.94620  0.74070  1.0000
  C   C2978     1.0  0.36512  0.76996  0.70638  1.0000
  C   C2979     1.0  0.28716  0.89464  0.74232  1.0000
  C   C2980     1.0  0.35903  0.81423  0.71564  1.0000
  H   H2947     1.0  0.28824  0.76266  0.58192  1.0000
  C   C2981     1.0  0.28592  0.90756  0.73008  1.0000
  N   N249      1.0  0.35970  0.81970  0.57959  1.0000
  H   H2948     1.0  0.20454  0.90510  0.73389  1.0000
  C   C2982     1.0  0.02393  0.86117  0.73143  1.0000
  S   S989      1.0  0.17164  0.90872  0.61163  1.0000
  H   H2949     1.0  0.24729  0.78415  0.58771  1.0000
  H   H2950     1.0  0.18477  0.90885  0.74439  1.0000
  H   H2951     1.0  0.10093  0.75490  0.69168  1.0000
  Fe  Fe499     1.0  0.31790  0.77064  0.57805  1.0000
  H   H2952     1.0  0.03913  0.87465  0.71463  1.0000
  H   H2953     1.0  0.29566  0.93286  0.74377  1.0000
  H   H2954     1.0  0.28347  0.91859  0.59931  1.0000
  H   H2955     1.0  0.16239  0.82101  0.70168  1.0000
  C   C2983     1.0  0.00708  0.82475  0.68440  1.0000
  H   H2956     1.0  0.08650  0.73451  0.67850  1.0000
  C   C2984     1.0  0.43155  0.76589  0.74454  1.0000
  C   C2985     1.0  0.43372  0.75354  0.73762  1.0000
  S   S990      1.0  0.19902  0.88213  0.59578  1.0000
  N   N250      1.0  0.28905  0.92105  0.73065  1.0000
  S   S991      1.0  0.46696  0.92898  0.58436  1.0000
  C   C2986     1.0  0.28733  0.91212  0.60978  1.0000
  N   N251      1.0  0.26491  0.76516  0.58056  1.0000
  H   H2957     1.0  0.19026  0.92073  0.72566  1.0000
  C   C2987     1.0  0.29347  0.92208  0.74319  1.0000
  C   C2988     1.0  0.29713  0.89623  0.63675  1.0000
  H   H2958     1.0  0.17308  0.83478  0.71459  1.0000
  Fe  Fe500     1.0  0.00694  0.93169  0.76495  1.0000
  H   H2959     1.0  0.20721  0.93855  0.72179  1.0000
  H   H2960     1.0  0.26661  0.78524  0.58656  1.0000
  C   C2989     1.0  0.12644  0.78435  0.75796  1.0000
  S   S992      1.0  0.19985  0.96406  0.63972  1.0000
  N   N252      1.0  0.39713  0.89594  0.64954  1.0000
  C   C2990     1.0  0.39118  0.89490  0.66499  1.0000
  C   C2991     1.0  0.40760  0.88369  0.64426  1.0000
  C   C2992     1.0  0.39602  0.88146  0.67561  1.0000
  C   C2993     1.0  0.41241  0.86995  0.65455  1.0000
  C   C2994     1.0  0.40664  0.86889  0.67033  1.0000
  C   C2995     1.0  0.39194  0.90999  0.63842  1.0000
  H   H2961     1.0  0.38258  0.90443  0.66920  1.0000
  H   H2962     1.0  0.39133  0.88062  0.68788  1.0000
  C   C2996     1.0  0.25877  0.77706  0.58977  1.0000
  H   H2963     1.0  0.41019  0.85829  0.67849  1.0000
  H   H2964     1.0  0.38490  0.91968  0.64407  1.0000
  H   H2965     1.0  0.40209  0.91401  0.63010  1.0000
  H   H2966     1.0  0.38473  0.90750  0.63197  1.0000
  N   N253      1.0  0.13886  0.82935  0.61906  1.0000
  C   C2997     1.0  0.14562  0.81701  0.61213  1.0000
  C   C2998     1.0  0.12668  0.82841  0.63154  1.0000
  C   C2999     1.0  0.14012  0.80332  0.61763  1.0000
  C   C3000     1.0  0.12090  0.81491  0.63733  1.0000
  C   C3001     1.0  0.12770  0.80228  0.63035  1.0000
  H   H2967     1.0  0.19317  0.95716  0.56761  1.0000
  H   H2968     1.0  0.15532  0.81766  0.60225  1.0000
  H   H2969     1.0  0.12131  0.83812  0.63709  1.0000
  H   H2970     1.0  0.14551  0.79359  0.61206  1.0000
  H   H2971     1.0  0.11123  0.81419  0.64722  1.0000
  H   H2972     1.0  0.12332  0.79172  0.63488  1.0000
  C   C3002     1.0  0.28047  0.75876  0.57769  1.0000
  S   S993      1.0  0.07759  0.72781  0.61654  1.0000
  Fe  Fe501     1.0  0.17824  0.86082  0.76369  1.0000
  S   S994      1.0  0.29897  0.78805  0.58923  1.0000
  C   C3003     1.0  0.38192  0.74596  0.74447  1.0000
  H   H2973     1.0  0.13614  0.96150  0.60625  1.0000
  H   H2974     1.0  0.43237  0.89238  0.59958  1.0000
  H   H2975     1.0  0.31648  0.88370  0.62231  1.0000
  S   S995      1.0  0.17769  0.81146  0.57089  1.0000
  C   C3004     1.0  0.30745  0.73815  0.60237  1.0000
  C   C3005     1.0  0.02716  0.87376  0.71944  1.0000
  Fe  Fe502     1.0  0.18625  0.88865  0.57682  1.0000
  H   H2976     1.0  0.25446  0.96802  0.72171  1.0000
  H   H2977     1.0  0.37406  0.79904  0.58941  1.0000
  C   C3006     1.0  0.19456  0.93565  0.61602  1.0000
  H   H2978     1.0  0.44214  0.75269  0.72687  1.0000
  C   C3007     1.0  0.03494  0.82091  0.67653  1.0000
  H   H2979     1.0  0.11547  0.92907  0.57330  1.0000
  S   S996      1.0  0.33801  0.87081  0.59771  1.0000
  H   H2980     1.0  0.01015  0.90232  0.69415  1.0000
  C   C3008     1.0  0.20965  0.93058  0.60793  1.0000
  H   H2981     1.0  0.37811  0.73513  0.74852  1.0000
  H   H2982     1.0  0.04331  0.83950  0.65909  1.0000
  H   H2983     1.0  0.15521  0.84178  0.61878  1.0000
  H   H2984     1.0  0.24930  0.92240  0.74742  1.0000
  H   H2985     1.0  0.28186  0.90828  0.66058  1.0000
  H   H2986     1.0  0.36891  0.80658  0.68810  1.0000
  Fe  Fe503     1.0  0.16148  0.91341  0.59096  1.0000
  H   H2987     1.0  0.21537  0.95534  0.73330  1.0000
  C   C3009     1.0  0.99668  0.87105  0.73172  1.0000
  H   H2988     1.0  0.26050  0.85494  0.57556  1.0000
  H   H2989     1.0  0.12044  0.75684  0.75180  1.0000
  C   C3010     1.0  0.99422  0.92195  0.73930  1.0000
  H   H2990     1.0  0.98643  0.94223  0.62738  1.0000
  S   S997      1.0  0.48309  0.83698  0.76494  1.0000
  N   N254      1.0  0.13397  0.76966  0.75615  1.0000
  H   H2991     1.0  0.99610  0.93274  0.71525  1.0000
  C   C3011     1.0  0.36205  0.83340  0.58055  1.0000
  S   S998      1.0  0.37286  0.78566  0.75904  1.0000
  H   H2992     1.0  0.43838  0.77467  0.73936  1.0000
  C   C3012     1.0  0.46688  0.80228  0.76030  1.0000
  C   C3013     1.0  0.28662  0.74725  0.56911  1.0000
  H   H2993     1.0  0.21321  0.85460  0.57839  1.0000
  N   N255      1.0  0.41152  0.75610  0.76474  1.0000
  C   C3014     1.0  0.42490  0.74233  0.74454  1.0000
  H   H2994     1.0  0.99005  0.86100  0.66997  1.0000
  H   H2995     1.0  0.99693  0.82058  0.69163  1.0000
  S   S999      1.0  0.21555  0.97452  0.66927  1.0000
  N   N256      1.0  0.19802  0.92497  0.74348  1.0000
  H   H2996     1.0  0.43796  0.83253  0.74992  1.0000
  C   C3015     1.0  0.13002  0.76290  0.74556  1.0000
  C   C3016     1.0  0.14480  0.96635  0.59697  1.0000
  H   H2997     1.0  0.14011  0.75427  0.74084  1.0000
  H   H2998     1.0  0.21193  0.95020  0.76173  1.0000
  H   H2999     1.0  0.36706  0.75564  0.76360  1.0000
  C   C3017     1.0  0.44866  0.82633  0.75344  1.0000
  C   C3018     1.0  0.29179  0.89555  0.75510  1.0000
  C   C3019     1.0  0.25179  0.85321  0.57076  1.0000
  C   C3020     1.0  0.23631  0.85531  0.57868  1.0000
  H   H3000     1.0  0.19025  0.91303  0.76649  1.0000
  C   C3021     1.0  0.21634  0.88565  0.76357  1.0000
  C   C3022     1.0  0.45829  0.83456  0.75569  1.0000
  H   H3001     1.0  0.40681  0.73515  0.76335  1.0000
  C   C3023     1.0  0.28757  0.72743  0.63005  1.0000
  C   C3024     1.0  0.98641  0.91257  0.75201  1.0000
  C   C3025     1.0  0.35583  0.81856  0.56679  1.0000
  H   H3002     1.0  0.14135  0.79387  0.82282  1.0000
  H   H3003     1.0  0.24617  0.95126  0.85374  1.0000
  S   S1000     1.0  0.41106  0.87918  0.94746  1.0000
  Fe  Fe504     1.0  0.09204  0.91198  0.88378  1.0000
  S   S1001     1.0  0.10965  0.92629  0.87125  1.0000
  S   S1002     1.0  0.09656  0.89114  0.90271  1.0000
  Fe  Fe505     1.0  0.06917  0.93025  0.86397  1.0000
  S   S1003     1.0  0.08443  0.94662  0.84984  1.0000
  S   S1004     1.0  0.04603  0.92976  0.86097  1.0000
  Fe  Fe506     1.0  0.10349  0.92519  0.84992  1.0000
  S   S1005     1.0  0.12140  0.92295  0.82804  1.0000
  Fe  Fe507     1.0  0.08918  0.94639  0.87235  1.0000
  C   C3026     1.0  0.20279  0.87995  0.76750  1.0000
  S   S1006     1.0  0.08781  0.90880  0.86230  1.0000
  S   S1007     1.0  0.07193  0.93215  0.88656  1.0000
  C   C3027     1.0  0.14062  0.78208  0.77708  1.0000
  S   S1008     1.0  0.01531  0.95096  0.76822  1.0000
  H   H3004     1.0  0.42142  0.91527  0.94486  1.0000
  S   S1009     1.0  0.04732  0.93220  0.79187  1.0000
  S   S1010     1.0  0.00177  0.93945  0.80535  1.0000
  C   C3028     1.0  0.34797  0.90955  0.90642  1.0000
  S   S1011     1.0  0.13050  0.95669  0.92651  1.0000
  C   C3029     1.0  0.15629  0.77263  0.81725  1.0000
  C   C3030     1.0  0.17567  0.77558  0.79334  1.0000
  C   C3031     1.0  0.05238  0.90019  0.89771  1.0000
  S   S1012     1.0  0.09029  0.96838  0.87762  1.0000
  H   H3005     1.0  0.09972  0.88870  0.82302  1.0000
  N   N257      1.0  0.31282  0.82708  0.83823  1.0000
  H   H3006     1.0  0.27246  0.94811  0.80799  1.0000
  S   S1013     1.0  0.25118  0.74915  0.91971  1.0000
  S   S1014     1.0  0.21897  0.74433  0.90287  1.0000
  H   H3007     1.0  0.11454  0.73557  0.85631  1.0000
  Fe  Fe508     1.0  0.39434  0.89831  0.95816  1.0000
  C   C3032     1.0  0.25619  0.95303  0.84455  1.0000
  S   S1015     1.0  0.38912  0.92187  0.94248  1.0000
  Fe  Fe509     1.0  0.11698  0.72946  0.96197  1.0000
  C   C3033     1.0  0.10908  0.87861  0.78162  1.0000
  H   H3008     1.0  0.15941  0.79383  0.84878  1.0000
  Fe  Fe510     1.0  0.39360  0.86481  0.96061  1.0000
  S   S1016     1.0  0.38810  0.84693  0.95165  1.0000
  C   C3034     1.0  0.01314  0.96645  0.82668  1.0000
  S   S1017     1.0  0.39647  0.80597  0.77261  1.0000
  Fe  Fe511     1.0  0.35009  0.83382  0.87131  1.0000
  S   S1018     1.0  0.32802  0.82666  0.87397  1.0000
  S   S1019     1.0  0.37124  0.82322  0.85539  1.0000
  Fe  Fe512     1.0  0.33673  0.85206  0.89644  1.0000
  S   S1020     1.0  0.31351  0.84620  0.90142  1.0000
  S   S1021     1.0  0.33869  0.86823  0.90998  1.0000
  Fe  Fe513     1.0  0.32660  0.82220  0.89924  1.0000
  S   S1022     1.0  0.31939  0.80091  0.91561  1.0000
  Fe  Fe514     1.0  0.31660  0.85119  0.87578  1.0000
  S   S1023     1.0  0.29467  0.86344  0.86747  1.0000
  S   S1024     1.0  0.34970  0.82742  0.89664  1.0000
  S   S1025     1.0  0.33884  0.85904  0.87074  1.0000
  C   C3035     1.0  0.30800  0.79344  0.90830  1.0000
  C   C3036     1.0  0.30023  0.80295  0.89690  1.0000
  C   C3037     1.0  0.29092  0.79712  0.89125  1.0000
  H   H3009     1.0  0.30109  0.81493  0.89266  1.0000
  H   H3010     1.0  0.28478  0.80459  0.88256  1.0000
  C   C3038     1.0  0.37522  0.85363  0.93912  1.0000
  C   C3039     1.0  0.36380  0.86727  0.93989  1.0000
  C   C3040     1.0  0.35274  0.87166  0.93078  1.0000
  C   C3041     1.0  0.35321  0.86263  0.92063  1.0000
  C   C3042     1.0  0.36480  0.84913  0.91966  1.0000
  C   C3043     1.0  0.37571  0.84459  0.92897  1.0000
  H   H3011     1.0  0.36322  0.87422  0.94780  1.0000
  H   H3012     1.0  0.34362  0.88194  0.93182  1.0000
  H   H3013     1.0  0.36528  0.84211  0.91185  1.0000
  H   H3014     1.0  0.38453  0.83402  0.92833  1.0000
  C   C3044     1.0  0.32828  0.82027  0.83665  1.0000
  H   H3015     1.0  0.22703  0.97684  0.93294  1.0000
  C   C3045     1.0  0.38718  0.93804  0.95003  1.0000
  C   C3046     1.0  0.38467  0.95292  0.94058  1.0000
  H   H3016     1.0  0.42876  0.80555  0.78906  1.0000
  H   H3017     1.0  0.33687  0.79145  0.94036  1.0000
  H   H3018     1.0  0.25703  0.79979  0.90788  1.0000
  H   H3019     1.0  0.35713  0.78823  0.94009  1.0000
  H   H3020     1.0  0.38386  0.95442  0.92884  1.0000
  H   H3021     1.0  0.27954  0.77217  0.96468  1.0000
  H   H3022     1.0  0.06272  0.86629  0.89758  1.0000
  C   C3047     1.0  0.33706  0.83918  0.95038  1.0000
  C   C3048     1.0  0.25803  0.94880  0.83063  1.0000
  C   C3049     1.0  0.27105  0.95110  0.81884  1.0000
  C   C3050     1.0  0.46514  0.91107  0.94103  1.0000
  H   H3023     1.0  0.10076  0.90817  0.81237  1.0000
  C   C3051     1.0  0.26712  0.95984  0.84657  1.0000
  H   H3024     1.0  0.18244  0.87607  0.78509  1.0000
  H   H3025     1.0  0.34989  0.79900  0.92318  1.0000
  H   H3026     1.0  0.47867  0.85880  0.96412  1.0000
  C   C3052     1.0  0.29351  0.87890  0.81652  1.0000
  C   C3053     1.0  0.28013  0.87676  0.82778  1.0000
  C   C3054     1.0  0.28079  0.87172  0.84332  1.0000
  C   C3055     1.0  0.29489  0.86848  0.84773  1.0000
  C   C3056     1.0  0.30848  0.86998  0.83649  1.0000
  C   C3057     1.0  0.30777  0.87529  0.82085  1.0000
  H   H3027     1.0  0.26927  0.87874  0.82452  1.0000
  H   H3028     1.0  0.27029  0.87033  0.85197  1.0000
  H   H3029     1.0  0.31943  0.86744  0.83985  1.0000
  H   H3030     1.0  0.31821  0.87678  0.81216  1.0000
  C   C3058     1.0  0.03522  0.90970  0.91968  1.0000
  N   N258      1.0  0.05698  0.88618  0.90708  1.0000
  C   C3059     1.0  0.34715  0.79679  0.93597  1.0000
  C   C3060     1.0  0.36257  0.84907  0.81435  1.0000
  C   C3061     1.0  0.36200  0.84392  0.83020  1.0000
  C   C3062     1.0  0.37130  0.82969  0.83573  1.0000
  C   C3063     1.0  0.38083  0.82046  0.82544  1.0000
  H   H3031     1.0  0.03496  0.89321  0.94143  1.0000
  H   H3032     1.0  0.35554  0.86022  0.81008  1.0000
  H   H3033     1.0  0.35462  0.85107  0.83810  1.0000
  H   H3034     1.0  0.38791  0.80937  0.82976  1.0000
  H   H3035     1.0  0.34508  0.90061  0.90284  1.0000
  H   H3036     1.0  0.12528  0.93555  0.95662  1.0000
  H   H3037     1.0  0.05397  0.87231  0.92994  1.0000
  C   C3064     1.0  0.08564  0.90273  0.79101  1.0000
  Fe  Fe515     1.0  0.16141  0.73667  0.84052  1.0000
  H   H3038     1.0  0.17112  0.82821  0.82090  1.0000
  Fe  Fe516     1.0  0.99481  0.92098  0.79907  1.0000
  H   H3039     1.0  0.12396  0.80261  0.76952  1.0000
  C   C3065     1.0  0.44495  0.83258  0.79338  1.0000
  S   S1026     1.0  0.01761  0.91374  0.78324  1.0000
  H   H3040     1.0  0.00997  0.97352  0.78889  1.0000
  C   C3066     1.0  0.11811  0.95999  0.91399  1.0000
  C   C3067     1.0  0.11489  0.94739  0.91072  1.0000
  C   C3068     1.0  0.10574  0.94989  0.90006  1.0000
  C   C3069     1.0  0.04155  0.78091  0.95927  1.0000
  C   C3070     1.0  0.38101  0.82539  0.80965  1.0000
  H   H3041     1.0  0.11959  0.93568  0.91632  1.0000
  H   H3042     1.0  0.10332  0.94012  0.89759  1.0000
  C   C3071     1.0  0.04704  0.92913  0.84196  1.0000
  C   C3072     1.0  0.05984  0.93244  0.83027  1.0000
  C   C3073     1.0  0.05993  0.93323  0.81491  1.0000
  C   C3074     1.0  0.04739  0.93034  0.81124  1.0000
  C   C3075     1.0  0.03500  0.92623  0.82303  1.0000
  C   C3076     1.0  0.03470  0.92587  0.83834  1.0000
  H   H3043     1.0  0.06947  0.93487  0.83298  1.0000
  H   H3044     1.0  0.06957  0.93640  0.80585  1.0000
  H   H3045     1.0  0.02567  0.92321  0.82041  1.0000
  H   H3046     1.0  0.02492  0.92301  0.84739  1.0000
  C   C3077     1.0  0.08496  0.89341  0.92088  1.0000
  C   C3078     1.0  0.07720  0.90810  0.92372  1.0000
  C   C3079     1.0  0.06672  0.90954  0.93781  1.0000
  C   C3080     1.0  0.06402  0.89628  0.94908  1.0000
  C   C3081     1.0  0.07219  0.88163  0.94640  1.0000
  C   C3082     1.0  0.08277  0.88021  0.93241  1.0000
  H   H3047     1.0  0.07933  0.91836  0.91515  1.0000
  H   H3048     1.0  0.06055  0.92091  0.93986  1.0000
  H   H3049     1.0  0.07011  0.87130  0.95490  1.0000
  H   H3050     1.0  0.08886  0.86881  0.93036  1.0000
  C   C3083     1.0  0.13723  0.87387  0.81963  1.0000
  C   C3084     1.0  0.12866  0.87642  0.83412  1.0000
  C   C3085     1.0  0.12417  0.89143  0.83695  1.0000
  C   C3086     1.0  0.12811  0.90393  0.82523  1.0000
  C   C3087     1.0  0.13712  0.90131  0.81090  1.0000
  C   C3088     1.0  0.14171  0.88629  0.80812  1.0000
  H   H3051     1.0  0.11760  0.89328  0.84816  1.0000
  H   H3052     1.0  0.14036  0.91093  0.80186  1.0000
  H   H3053     1.0  0.14863  0.88438  0.79704  1.0000
  C   C3089     1.0  0.17057  0.79172  0.79093  1.0000
  C   C3090     1.0  0.15809  0.79825  0.80151  1.0000
  C   C3091     1.0  0.15087  0.78873  0.81456  1.0000
  H   H3054     1.0  0.15420  0.81065  0.79986  1.0000
  C   C3092     1.0  0.20505  0.74161  0.88157  1.0000
  S   S1027     1.0  0.14805  0.76118  0.83449  1.0000
  N   N259      1.0  0.35534  0.93235  0.91572  1.0000
  C   C3093     1.0  0.36507  0.91800  0.91637  1.0000
  C   C3094     1.0  0.34190  0.93549  0.91075  1.0000
  C   C3095     1.0  0.33801  0.92416  0.90601  1.0000
  C   C3096     1.0  0.35933  0.94423  0.92071  1.0000
  H   H3055     1.0  0.37560  0.91544  0.92057  1.0000
  H   H3056     1.0  0.33410  0.94680  0.91039  1.0000
  H   H3057     1.0  0.32733  0.92676  0.90207  1.0000
  H   H3058     1.0  0.35826  0.94107  0.93339  1.0000
  N   N260      1.0  0.43882  0.92555  0.94652  1.0000
  S   S1028     1.0  0.98789  0.81357  0.95899  1.0000
  H   H3059     1.0  0.06269  0.76348  0.95589  1.0000
  S   S1029     1.0  0.13070  0.73859  0.93862  1.0000
  C   C3097     1.0  0.39994  0.75736  0.77913  1.0000
  H   H3060     1.0  0.45832  0.93259  0.94840  1.0000
  H   H3061     1.0  0.29930  0.83337  0.85909  1.0000
  H   H3062     1.0  0.15642  0.76005  0.78221  1.0000
  C   C3098     1.0  0.20417  0.73481  0.87014  1.0000
  H   H3063     1.0  0.36939  0.89508  0.91206  1.0000
  H   H3064     1.0  0.28808  0.73277  0.94206  1.0000
  H   H3065     1.0  0.25896  0.75989  0.96398  1.0000
  S   S1030     1.0  0.07727  0.82462  0.96487  1.0000
  Fe  Fe517     1.0  0.02382  0.93353  0.78808  1.0000
  C   C3099     1.0  0.19647  0.88669  0.79240  1.0000
  H   H3066     1.0  0.09533  0.79550  0.95821  1.0000
  C   C3100     1.0  0.44336  0.81807  0.79301  1.0000
  C   C3101     1.0  0.12976  0.79084  0.76833  1.0000
  H   H3067     1.0  0.14323  0.78694  0.78520  1.0000
  H   H3068     1.0  0.04724  0.79058  0.95420  1.0000
  C   C3102     1.0  0.33328  0.83434  0.81021  1.0000
  H   H3069     1.0  0.23882  0.80016  0.92192  1.0000
  Fe  Fe518     1.0  0.23495  0.91049  0.79573  1.0000
  C   C3103     1.0  0.30202  0.82371  0.85308  1.0000
  C   C3104     1.0  0.08439  0.79366  0.96581  1.0000
  H   H3070     1.0  0.32101  0.97367  0.92963  1.0000
  S   S1031     1.0  0.30854  0.97106  0.90567  1.0000
  H   H3071     1.0  0.13794  0.95350  0.95853  1.0000
  H   H3072     1.0  0.14392  0.91072  0.84952  1.0000
  Fe  Fe519     1.0  0.99266  0.95512  0.78512  1.0000
  H   H3073     1.0  0.27285  0.80372  0.92204  1.0000
  C   C3105     1.0  0.38513  0.96420  0.96114  1.0000
  H   H3074     1.0  0.12565  0.96893  0.86859  1.0000
  H   H3075     1.0  0.35091  0.81822  0.82141  1.0000
  H   H3076     1.0  0.29201  0.95979  0.81169  1.0000
  C   C3106     1.0  0.06855  0.87379  0.90049  1.0000
  H   H3077     1.0  0.05726  0.90227  0.88542  1.0000
  H   H3078     1.0  0.07596  0.86665  0.90872  1.0000
  H   H3079     1.0  0.07660  0.87866  0.88999  1.0000
  H   H3080     1.0  0.25477  0.73378  0.84732  1.0000
  C   C3107     1.0  0.15183  0.91891  0.84458  1.0000
  H   H3081     1.0  0.38801  0.81797  0.80189  1.0000
  N   N261      1.0  0.17366  0.80355  0.82784  1.0000
  C   C3108     1.0  0.18583  0.80063  0.81577  1.0000
  C   C3109     1.0  0.16948  0.79163  0.83957  1.0000
  C   C3110     1.0  0.19437  0.78548  0.81543  1.0000
  C   C3111     1.0  0.17780  0.77634  0.83962  1.0000
  C   C3112     1.0  0.19033  0.77328  0.82746  1.0000
  C   C3113     1.0  0.16427  0.81935  0.82761  1.0000
  H   H3082     1.0  0.18867  0.80994  0.80606  1.0000
  H   H3083     1.0  0.20368  0.78320  0.80559  1.0000
  H   H3084     1.0  0.17416  0.76688  0.84870  1.0000
  H   H3085     1.0  0.19656  0.76142  0.82714  1.0000
  H   H3086     1.0  0.15429  0.82116  0.82230  1.0000
  H   H3087     1.0  0.15972  0.82158  0.83942  1.0000
  C   C3114     1.0  0.36160  0.90643  0.91162  1.0000
  S   S1032     1.0  0.15340  0.87318  0.77037  1.0000
  C   C3115     1.0  0.03958  0.89521  0.92906  1.0000
  H   H3088     1.0  0.11566  0.87596  0.80280  1.0000
  C   C3116     1.0  0.05043  0.88346  0.92251  1.0000
  C   C3117     1.0  0.20893  0.97453  0.90594  1.0000
  H   H3089     1.0  0.46826  0.88920  0.93504  1.0000
  C   C3118     1.0  0.20990  0.89257  0.78844  1.0000
  H   H3090     1.0  0.45561  0.83381  0.79532  1.0000
  C   C3119     1.0  0.02557  0.78355  0.96538  1.0000
  C   C3120     1.0  0.31754  0.84135  0.81197  1.0000
  H   H3091     1.0  0.98696  0.96704  0.81981  1.0000
  C   C3121     1.0  0.27744  0.78884  0.94337  1.0000
  H   H3092     1.0  0.38993  0.75254  0.77970  1.0000
  H   H3093     1.0  0.37148  0.94516  0.91504  1.0000
  C   C3122     1.0  0.25467  0.77502  0.94243  1.0000
  H   H3094     1.0  0.28663  0.79409  0.94336  1.0000
  H   H3095     1.0  0.24586  0.76945  0.94213  1.0000
  N   N262      1.0  0.09580  0.89437  0.80021  1.0000
  S   S1033     1.0  0.28357  0.96401  0.88160  1.0000
  N   N263      1.0  0.27672  0.90769  0.84729  1.0000
  C   C3123     1.0  0.28112  0.91278  0.83171  1.0000
  C   C3124     1.0  0.28727  0.90369  0.85637  1.0000
  C   C3125     1.0  0.29649  0.91376  0.82479  1.0000
  C   C3126     1.0  0.30276  0.90446  0.84983  1.0000
  C   C3127     1.0  0.30736  0.90957  0.83394  1.0000
  C   C3128     1.0  0.26047  0.90717  0.85440  1.0000
  H   H3096     1.0  0.27273  0.91608  0.82454  1.0000
  H   H3097     1.0  0.28382  0.89952  0.86871  1.0000
  H   H3098     1.0  0.29991  0.91767  0.81241  1.0000
  H   H3099     1.0  0.31114  0.90095  0.85706  1.0000
  H   H3100     1.0  0.31934  0.91019  0.82871  1.0000
  H   H3101     1.0  0.25452  0.90575  0.84612  1.0000
  H   H3102     1.0  0.25960  0.89719  0.86441  1.0000
  H   H3103     1.0  0.25428  0.91816  0.85820  1.0000
  C   C3129     1.0  0.09993  0.96499  0.89251  1.0000
  H   H3104     1.0  0.36272  0.80450  0.95225  1.0000
  C   C3130     1.0  0.02724  0.96938  0.82667  1.0000
  S   S1034     1.0  0.24335  0.94161  0.82805  1.0000
  H   H3105     1.0  0.22269  0.97142  0.82893  1.0000
  C   C3131     1.0  0.28928  0.78176  0.89697  1.0000
  C   C3132     1.0  0.30622  0.77809  0.91421  1.0000
  H   H3106     1.0  0.31212  0.77071  0.92312  1.0000
  C   C3133     1.0  0.16855  0.76604  0.80650  1.0000
  C   C3134     1.0  0.32809  0.83704  0.94159  1.0000
  H   H3107     1.0  0.32453  0.82138  0.93023  1.0000
  S   S1035     1.0  0.24841  0.90509  0.81406  1.0000
  C   C3135     1.0  0.29685  0.77224  0.90855  1.0000
  H   H3108     1.0  0.18528  0.77046  0.78512  1.0000
  C   C3136     1.0  0.42991  0.81671  0.78984  1.0000
  C   C3137     1.0  0.04149  0.91217  0.90386  1.0000
  H   H3109     1.0  0.09987  0.73045  0.85055  1.0000
  H   H3110     1.0  0.07650  0.91224  0.79451  1.0000
  N   N264      1.0  0.34377  0.81138  0.94101  1.0000
  C   C3138     1.0  0.33156  0.82294  0.93708  1.0000
  C   C3139     1.0  0.33868  0.82366  0.82259  1.0000
  C   C3140     1.0  0.38342  0.96599  0.94619  1.0000
  H   H3111     1.0  0.03813  0.92335  0.89637  1.0000
  C   C3141     1.0  0.20538  0.97144  0.94697  1.0000
  H   H3112     1.0  0.29524  0.84332  0.82754  1.0000
  C   C3142     1.0  0.44426  0.90113  0.93924  1.0000
  S   S1036     1.0  0.14502  0.83876  0.78087  1.0000
  H   H3113     1.0  0.18213  0.96985  0.95980  1.0000
  S   S1037     1.0  0.28656  0.72880  0.90863  1.0000
  H   H3114     1.0  0.43295  0.94869  0.95027  1.0000
  H   H3115     1.0  0.29106  0.82222  0.85145  1.0000
  H   H3116     1.0  0.17256  0.75363  0.80830  1.0000
  C   C3143     1.0  0.43372  0.91426  0.94362  1.0000
  C   C3144     1.0  0.30741  0.83758  0.82616  1.0000
  C   C3145     1.0  0.25042  0.79289  0.91814  1.0000
  H   H3117     1.0  0.02709  0.91901  0.92468  1.0000
  H   H3118     1.0  0.20571  0.97060  0.85493  1.0000
  C   C3146     1.0  0.38856  0.93628  0.96511  1.0000
  H   H3119     1.0  0.12528  0.86682  0.84311  1.0000
  H   H3120     1.0  0.29552  0.76039  0.91309  1.0000
  Fe  Fe520     1.0  0.38543  0.83131  0.76768  1.0000
  S   S1038     1.0  0.18019  0.80352  0.77493  1.0000
  S   S1039     1.0  0.27712  0.77533  0.88967  1.0000
  C   C3147     1.0  0.13624  0.94555  0.84306  1.0000
  H   H3121     1.0  0.27450  0.73231  0.84786  1.0000
  H   H3122     1.0  0.18865  0.88722  0.80350  1.0000
  C   C3148     1.0  0.46006  0.89959  0.93790  1.0000
  S   S1040     1.0  0.37245  0.84673  0.78435  1.0000
  H   H3123     1.0  0.24903  0.78308  0.91422  1.0000
  H   H3124     1.0  0.34134  0.83733  0.79935  1.0000
  H   H3125     1.0  0.15358  0.92270  0.87147  1.0000
  H   H3126     1.0  0.16340  0.91309  0.84722  1.0000
  H   H3127     1.0  0.23023  0.89649  0.77085  1.0000
  H   H3128     1.0  0.44019  0.89197  0.93736  1.0000
  H   H3129     1.0  0.14145  0.94583  0.88288  1.0000
  C   C3149     1.0  0.08685  0.89912  0.77696  1.0000
  C   C3150     1.0  0.14702  0.93291  0.86502  1.0000
  C   C3151     1.0  0.43298  0.84558  0.79065  1.0000
  H   H3130     1.0  0.16638  0.73918  0.91288  1.0000
  S   S1041     1.0  0.21311  0.90165  0.80131  1.0000
  H   H3131     1.0  0.41099  0.86877  0.78227  1.0000
  C   C3152     1.0  0.14019  0.94591  0.87154  1.0000
  C   C3153     1.0  0.21823  0.73674  0.88784  1.0000
  S   S1042     1.0  0.29328  0.97178  0.83671  1.0000
  H   H3132     1.0  0.31324  0.84994  0.80253  1.0000
  S   S1043     1.0  0.04974  0.89796  0.96603  1.0000
  C   C3154     1.0  0.13126  0.95888  0.86357  1.0000
  N   N265      1.0  0.41987  0.84416  0.78743  1.0000
  N   N266      1.0  0.14517  0.93293  0.85085  1.0000
  C   C3155     1.0  0.17428  0.73172  0.92049  1.0000
  H   H3133     1.0  0.01299  0.95519  0.82526  1.0000
  C   C3156     1.0  0.12911  0.95867  0.84933  1.0000
  S   S1044     1.0  0.29233  0.88613  0.79711  1.0000
  H   H3134     1.0  0.40524  0.75105  0.78914  1.0000
  C   C3157     1.0  0.37206  0.83983  0.80407  1.0000
  C   C3158     1.0  0.09868  0.88698  0.77224  1.0000
  C   C3159     1.0  0.40716  0.85771  0.78495  1.0000
  Fe  Fe521     1.0  0.24832  0.93037  0.80791  1.0000
  C   C3160     1.0  0.41824  0.82997  0.78702  1.0000
  H   H3135     1.0  0.33270  0.81221  0.84628  1.0000
  C   C3161     1.0  0.09458  0.89870  0.81466  1.0000
  C   C3162     1.0  0.05020  0.76571  0.96014  1.0000
  H   H3136     1.0  0.19419  0.73889  0.86504  1.0000
  H   H3137     1.0  0.39758  0.85741  0.79541  1.0000
  Fe  Fe522     1.0  0.24362  0.73797  0.90540  1.0000
  Fe  Fe523     1.0  0.27155  0.75173  0.89992  1.0000
  H   H3138     1.0  0.01889  0.79538  0.96461  1.0000
  Fe  Fe524     1.0  0.15266  0.85377  0.79134  1.0000
  C   C3163     1.0  0.35281  0.81348  0.94942  1.0000
  C   C3164     1.0  0.26968  0.79416  0.93125  1.0000
  H   H3139     1.0  0.13431  0.94542  0.83208  1.0000
  Fe  Fe525     1.0  0.26952  0.90301  0.79490  1.0000
  H   H3140     1.0  0.39505  0.76970  0.77990  1.0000
  H   H3141     1.0  0.40794  0.82894  0.78429  1.0000
  H   H3142     1.0  0.08225  0.90272  0.82028  1.0000
  H   H3143     1.0  0.13685  0.74656  0.90581  1.0000
  H   H3144     1.0  0.14231  0.73091  0.88634  1.0000
  C   C3165     1.0  0.28371  0.73217  0.95429  1.0000
  H   H3145     1.0  0.26550  0.96321  0.85730  1.0000
  H   H3146     1.0  0.19557  0.75064  0.88553  1.0000
  S   S1045     1.0  0.17788  0.84255  0.78555  1.0000
  H   H3147     1.0  0.41849  0.94341  0.94456  1.0000
  C   C3166     1.0  0.19295  0.88035  0.78199  1.0000
  H   H3148     1.0  0.07863  0.90576  0.76981  1.0000
  C   C3167     1.0  0.21992  0.89190  0.77405  1.0000
  C   C3168     1.0  0.10750  0.88251  0.79562  1.0000
  C   C3169     1.0  0.42748  0.93893  0.95156  1.0000
  H   H3149     1.0  0.33471  0.85020  0.95363  1.0000
  C   C3170     1.0  0.14805  0.76701  0.77536  1.0000
  S   S1046     1.0  0.16917  0.72921  0.86286  1.0000
  H   H3150     1.0  0.31876  0.84639  0.93794  1.0000
  H   H3151     1.0  0.30006  0.74403  0.95608  1.0000
  H   H3152     1.0  0.15336  0.92164  0.83184  1.0000
  S   S1047     1.0  0.27034  0.92804  0.78991  1.0000
  S   S1048     1.0  0.14116  0.85535  0.81583  1.0000
  S   S1049     1.0  0.26275  0.74244  0.88485  1.0000
  H   H3153     1.0  0.35177  0.95589  0.91767  1.0000
  H   H3154     1.0  0.03783  0.96054  0.82521  1.0000
  C   C3171     1.0  0.27353  0.77650  0.95525  1.0000
  H   H3155     1.0  0.21015  0.96214  0.91024  1.0000
  H   H3156     1.0  0.42171  0.93549  0.96385  1.0000
  S   S1050     1.0  0.23293  0.93616  0.79119  1.0000
  C   C3172     1.0  0.45428  0.92399  0.94549  1.0000
  S   S1051     1.0  0.25613  0.90616  0.77691  1.0000
  H   H3157     1.0  0.12163  0.96847  0.84339  1.0000
  H   H3158     1.0  0.30697  0.81282  0.86067  1.0000
  C   C3173     1.0  0.29049  0.73850  0.96224  1.0000
  H   H3159     1.0  0.11833  0.86917  0.77802  1.0000
  H   H3160     1.0  0.18033  0.73947  0.92278  1.0000
  C   C3174     1.0  0.11175  0.97509  0.90690  1.0000
  S   S1052     1.0  0.24039  0.96852  0.90049  1.0000
  H   H3161     1.0  0.43436  0.85681  0.79090  1.0000
  C   C3175     1.0  0.34954  0.82737  0.95431  1.0000
  Fe  Fe526     1.0  0.25507  0.93153  0.77359  1.0000
  N   N267      1.0  0.25863  0.78709  0.93078  1.0000
  H   H3162     1.0  0.19921  0.92884  0.77839  1.0000
  H   H3163     1.0  0.45275  0.80797  0.79468  1.0000
  H   H3164     1.0  0.21031  0.95916  0.95039  1.0000
  Fe  Fe527     1.0  0.17039  0.82909  0.77326  1.0000
  C   C3176     1.0  0.28002  0.96236  0.83471  1.0000
  H   H3165     1.0  0.40246  0.85771  0.77511  1.0000
  H   H3166     1.0  0.14119  0.73325  0.79131  1.0000
  S   S1053     1.0  0.09215  0.72881  0.96523  1.0000
  C   C3177     1.0  0.26201  0.76959  0.95485  1.0000
  C   C3178     1.0  0.28207  0.95780  0.82091  1.0000
  H   H3167     1.0  0.01520  0.82412  0.95717  1.0000
  C   C3179     1.0  0.18961  0.97738  0.95214  1.0000
  C   C3180     1.0  0.13684  0.73432  0.90944  1.0000
  H   H3168     1.0  0.35697  0.82918  0.96060  1.0000
  H   H3169     1.0  0.47734  0.90967  0.94066  1.0000
  C   C3181     1.0  0.13355  0.72745  0.92514  1.0000
  Fe  Fe528     1.0  0.86949  0.08198  0.07427  1.0000
  S   S1054     1.0  0.88893  0.06110  0.07264  1.0000
  S   S1055     1.0  0.85577  0.08493  0.09778  1.0000
  Fe  Fe529     1.0  0.87594  0.09462  0.03982  1.0000
  S   S1056     1.0  0.89601  0.07479  0.03510  1.0000
  S   S1057     1.0  0.86830  0.11417  0.02082  1.0000
  Fe  Fe530     1.0  0.88056  0.06007  0.05253  1.0000
  S   S1058     1.0  0.87845  0.03684  0.05095  1.0000
  Fe  Fe531     1.0  0.90236  0.07775  0.05563  1.0000
  S   S1059     1.0  0.92625  0.07830  0.05646  1.0000
  S   S1060     1.0  0.85981  0.07966  0.05558  1.0000
  S   S1061     1.0  0.88362  0.09887  0.05888  1.0000
  H   H3170     1.0  0.87909  0.10607  0.98661  1.0000
  Fe  Fe532     1.0  0.80302  0.00234  0.01216  1.0000
  H   H3171     1.0  0.89071  0.00563  0.04665  1.0000
  C   C3182     1.0  0.49531  0.11345  0.00767  1.0000
  Fe  Fe533     1.0  0.81634  0.02309  0.02257  1.0000
  S   S1062     1.0  0.80625  0.01488  0.04763  1.0000
  S   S1063     1.0  0.82880  0.04262  0.01328  1.0000
  C   C3183     1.0  0.92545  0.99563  0.07753  1.0000
  Fe  Fe534     1.0  0.78489  0.01641  0.03962  1.0000
  S   S1064     1.0  0.76120  0.02781  0.05119  1.0000
  S   S1065     1.0  0.82608  0.99932  0.01752  1.0000
  S   S1066     1.0  0.79425  0.02679  0.01507  1.0000
  C   C3184     1.0  0.57967  0.20107  0.13187  1.0000
  C   C3185     1.0  0.66626  0.22593  0.04610  1.0000
  H   H3172     1.0  0.84638  0.98758  0.04084  1.0000
  H   H3173     1.0  0.97450  0.03462  0.09035  1.0000
  H   H3174     1.0  0.79665  0.13895  0.09857  1.0000
  Fe  Fe535     1.0  0.64560  0.17294  0.06252  1.0000
  S   S1067     1.0  0.62742  0.15918  0.06829  1.0000
  S   S1068     1.0  0.66986  0.16414  0.06637  1.0000
  S   S1069     1.0  0.62442  0.15567  0.02816  1.0000
  H   H3175     1.0  0.55341  0.19333  0.10549  1.0000
  C   C3186     1.0  0.56863  0.03719  0.99602  1.0000
  Fe  Fe536     1.0  0.56438  0.13555  0.99597  1.0000
  S   S1070     1.0  0.58586  0.12118  0.98427  1.0000
  S   S1071     1.0  0.56366  0.14849  0.01376  1.0000
  C   C3187     1.0  0.90127  0.10013  0.99248  1.0000
  Fe  Fe537     1.0  0.57138  0.10397  0.98806  1.0000
  S   S1072     1.0  0.58392  0.07973  0.99748  1.0000
  Fe  Fe538     1.0  0.72640  0.07811  0.11553  1.0000
  S   S1073     1.0  0.72926  0.06291  0.09914  1.0000
  S   S1074     1.0  0.68093  0.12073  0.13030  1.0000
  S   S1075     1.0  0.72238  0.10395  0.10779  1.0000
  Fe  Fe539     1.0  0.68369  0.01622  0.05782  1.0000
  S   S1076     1.0  0.68179  0.01911  0.08153  1.0000
  S   S1077     1.0  0.70601  0.00414  0.04469  1.0000
  Fe  Fe540     1.0  0.64971  0.02934  0.05830  1.0000
  S   S1078     1.0  0.64464  0.03338  0.08224  1.0000
  S   S1079     1.0  0.63066  0.03528  0.04515  1.0000
  Fe  Fe541     1.0  0.66658  0.04227  0.07429  1.0000
  S   S1080     1.0  0.66713  0.06328  0.08206  1.0000
  Fe  Fe542     1.0  0.66029  0.00996  0.08766  1.0000
  S   S1081     1.0  0.67037  0.04030  0.04976  1.0000
  S   S1082     1.0  0.66343  0.00503  0.06456  1.0000
  Fe  Fe543     1.0  0.96295  0.98127  0.12857  1.0000
  S   S1083     1.0  0.59160  0.98076  0.01099  1.0000
  Fe  Fe544     1.0  0.97436  0.07694  0.12634  1.0000
  H   H3176     1.0  0.65658  0.98873  0.02439  1.0000
  C   C3188     1.0  0.49172  0.10047  0.00570  1.0000
  C   C3189     1.0  0.90566  0.98284  0.04795  1.0000
  Fe  Fe545     1.0  0.61196  0.99042  0.96780  1.0000
  C   C3190     1.0  0.70574  0.00780  0.10940  1.0000
  C   C3191     1.0  0.77561  0.12888  0.14910  1.0000
  C   C3192     1.0  0.63141  0.21370  0.10146  1.0000
  H   H3177     1.0  0.80833  0.13187  0.12893  1.0000
  H   H3178     1.0  0.61655  0.05161  0.98826  1.0000
  S   S1084     1.0  0.92206  0.10362  0.11455  1.0000
  S   S1085     1.0  0.96847  0.09335  0.10488  1.0000
  H   H3179     1.0  0.91928  0.99167  0.08957  1.0000
  H   H3180     1.0  0.56836  0.17398  0.98302  1.0000
  Fe  Fe546     1.0  0.72522  0.07847  0.14828  1.0000
  H   H3181     1.0  0.67607  0.21712  0.04938  1.0000
  H   H3182     1.0  0.93796  0.98995  0.07655  1.0000
  S   S1086     1.0  0.63419  0.98144  0.01324  1.0000
  H   H3183     1.0  0.91436  0.03749  0.11357  1.0000
  C   C3193     1.0  0.63169  0.02070  0.03572  1.0000
  C   C3194     1.0  0.61878  0.02028  0.03073  1.0000
  C   C3195     1.0  0.61947  0.00841  0.02356  1.0000
  C   C3196     1.0  0.63303  0.99686  0.02150  1.0000
  C   C3197     1.0  0.64599  0.99749  0.02619  1.0000
  C   C3198     1.0  0.64538  0.00946  0.03310  1.0000
  H   H3184     1.0  0.60815  0.02893  0.03267  1.0000
  H   H3185     1.0  0.60943  0.00798  0.01995  1.0000
  H   H3186     1.0  0.94605  0.07235  0.11119  1.0000
  H   H3187     1.0  0.65559  0.01006  0.03623  1.0000
  C   C3199     1.0  0.71182  0.06263  0.09500  1.0000
  H   H3188     1.0  0.71464  0.15769  0.11833  1.0000
  N   N268      1.0  0.60393  0.17625  0.98457  1.0000
  C   C3200     1.0  0.68430  0.06221  0.08757  1.0000
  C   C3201     1.0  0.69855  0.05371  0.08088  1.0000
  C   C3202     1.0  0.71226  0.05404  0.08452  1.0000
  H   H3189     1.0  0.69902  0.04727  0.07257  1.0000
  H   H3190     1.0  0.72330  0.04775  0.07912  1.0000
  C   C3203     1.0  0.57745  0.06365  0.99712  1.0000
  C   C3204     1.0  0.56490  0.06530  0.99065  1.0000
  C   C3205     1.0  0.61145  0.18215  0.99308  1.0000
  Fe  Fe547     1.0  0.58477  0.00127  0.99245  1.0000
  C   C3206     1.0  0.58109  0.03562  0.00254  1.0000
  C   C3207     1.0  0.58536  0.04880  0.00326  1.0000
  H   H3191     1.0  0.58727  0.02420  0.00731  1.0000
  H   H3192     1.0  0.59481  0.04741  0.00862  1.0000
  C   C3208     1.0  0.67252  0.15176  0.08407  1.0000
  C   C3209     1.0  0.65999  0.14782  0.09578  1.0000
  C   C3210     1.0  0.66262  0.13826  0.10999  1.0000
  C   C3211     1.0  0.67777  0.13238  0.11236  1.0000
  C   C3212     1.0  0.69022  0.13630  0.10055  1.0000
  C   C3213     1.0  0.68760  0.14602  0.08650  1.0000
  H   H3193     1.0  0.64830  0.15222  0.09396  1.0000
  H   H3194     1.0  0.65293  0.13529  0.11910  1.0000
  H   H3195     1.0  0.70188  0.13222  0.10232  1.0000
  H   H3196     1.0  0.69731  0.14916  0.07750  1.0000
  H   H3197     1.0  0.85307  0.11380  0.07528  1.0000
  C   C3214     1.0  0.60740  0.15317  0.02491  1.0000
  C   C3215     1.0  0.60870  0.14452  0.01410  1.0000
  C   C3216     1.0  0.59540  0.14288  0.01066  1.0000
  C   C3217     1.0  0.58067  0.14981  0.01809  1.0000
  C   C3218     1.0  0.57938  0.15834  0.02898  1.0000
  C   C3219     1.0  0.59269  0.16006  0.03237  1.0000
  H   H3198     1.0  0.62007  0.13923  0.00823  1.0000
  H   H3199     1.0  0.59656  0.13638  0.00218  1.0000
  H   H3200     1.0  0.56801  0.16374  0.03477  1.0000
  H   H3201     1.0  0.59156  0.16676  0.04070  1.0000
  C   C3220     1.0  0.74608  0.02238  0.04734  1.0000
  C   C3221     1.0  0.74900  0.00948  0.04094  1.0000
  C   C3222     1.0  0.73665  0.00415  0.03969  1.0000
  C   C3223     1.0  0.72136  0.01178  0.04477  1.0000
  C   C3224     1.0  0.71843  0.02506  0.05054  1.0000
  C   C3225     1.0  0.73079  0.03039  0.05175  1.0000
  H   H3202     1.0  0.76070  0.00339  0.03722  1.0000
  H   H3203     1.0  0.73894  0.99397  0.03505  1.0000
  H   H3204     1.0  0.70662  0.03119  0.05411  1.0000
  H   H3205     1.0  0.72849  0.04067  0.05619  1.0000
  C   C3226     1.0  0.71725  0.01636  0.10342  1.0000
  H   H3206     1.0  0.81507  0.04336  0.98886  1.0000
  S   S1087     1.0  0.60850  0.00612  0.98361  1.0000
  H   H3207     1.0  0.95913  0.05098  0.14236  1.0000
  H   H3208     1.0  0.73746  0.99906  0.07371  1.0000
  H   H3209     1.0  0.64419  0.17453  0.11012  1.0000
  H   H3210     1.0  0.57437  0.19859  0.14398  1.0000
  H   H3211     1.0  0.82813  0.00487  0.98541  1.0000
  S   S1088     1.0  0.91385  0.15991  0.99105  1.0000
  H   H3212     1.0  0.66674  0.18170  0.08972  1.0000
  C   C3227     1.0  0.92534  0.08472  0.07288  1.0000
  S   S1089     1.0  0.65503  0.99245  0.10974  1.0000
  H   H3213     1.0  0.87876  0.13645  0.10180  1.0000
  C   C3228     1.0  0.92341  0.09646  0.09844  1.0000
  C   C3229     1.0  0.93654  0.09647  0.08637  1.0000
  C   C3230     1.0  0.93757  0.09048  0.07367  1.0000
  H   H3214     1.0  0.88281  0.11742  0.09803  1.0000
  H   H3215     1.0  0.94580  0.10135  0.08667  1.0000
  H   H3216     1.0  0.94769  0.09062  0.06429  1.0000
  C   C3231     1.0  0.88061  0.12726  0.01337  1.0000
  C   C3232     1.0  0.87652  0.14070  0.00239  1.0000
  C   C3233     1.0  0.88664  0.15083  0.99557  1.0000
  C   C3234     1.0  0.90088  0.14756  0.99972  1.0000
  C   C3235     1.0  0.90486  0.13424  0.01089  1.0000
  C   C3236     1.0  0.89475  0.12408  0.01770  1.0000
  H   H3217     1.0  0.86554  0.14325  0.99910  1.0000
  H   H3218     1.0  0.97039  0.18533  0.97074  1.0000
  H   H3219     1.0  0.91592  0.13164  0.01405  1.0000
  H   H3220     1.0  0.89807  0.11360  0.02601  1.0000
  C   C3237     1.0  0.86481  0.03844  0.04030  1.0000
  C   C3238     1.0  0.85830  0.02579  0.04223  1.0000
  C   C3239     1.0  0.84730  0.02697  0.03387  1.0000
  C   C3240     1.0  0.84304  0.04071  0.02333  1.0000
  C   C3241     1.0  0.84965  0.05331  0.02129  1.0000
  C   C3242     1.0  0.86042  0.05223  0.02988  1.0000
  H   H3221     1.0  0.86154  0.01514  0.05038  1.0000
  H   H3222     1.0  0.84215  0.01725  0.03556  1.0000
  H   H3223     1.0  0.84629  0.06399  0.01323  1.0000
  H   H3224     1.0  0.86543  0.06202  0.02833  1.0000
  C   C3243     1.0  0.84638  0.13482  0.10237  1.0000
  C   C3244     1.0  0.84861  0.13160  0.08791  1.0000
  C   C3245     1.0  0.85186  0.11622  0.08638  1.0000
  C   C3246     1.0  0.85290  0.10407  0.09931  1.0000
  H   H3225     1.0  0.84741  0.14099  0.07795  1.0000
  H   H3226     1.0  0.95313  0.02073  0.10086  1.0000
  H   H3227     1.0  0.92443  0.00836  0.07508  1.0000
  S   S1090     1.0  0.75429  0.11970  0.11427  1.0000
  H   H3228     1.0  0.79017  0.04483  0.08571  1.0000
  S   S1091     1.0  0.84160  0.15412  0.10420  1.0000
  C   C3247     1.0  0.58351  0.21543  0.12484  1.0000
  H   H3229     1.0  0.89851  0.12583  0.09762  1.0000
  H   H3230     1.0  0.75469  0.05371  0.07078  1.0000
  N   N269      1.0  0.67567  0.11454  0.07062  1.0000
  C   C3248     1.0  0.67560  0.12824  0.05995  1.0000
  C   C3249     1.0  0.66448  0.10649  0.07300  1.0000
  C   C3250     1.0  0.66389  0.13440  0.05162  1.0000
  C   C3251     1.0  0.65269  0.11222  0.06477  1.0000
  C   C3252     1.0  0.65238  0.12631  0.05405  1.0000
  C   C3253     1.0  0.68783  0.10823  0.07948  1.0000
  H   H3231     1.0  0.68446  0.13465  0.05798  1.0000
  H   H3232     1.0  0.66459  0.09556  0.08132  1.0000
  H   H3233     1.0  0.66365  0.14549  0.04349  1.0000
  H   H3234     1.0  0.64387  0.10574  0.06677  1.0000
  H   H3235     1.0  0.64319  0.13104  0.04771  1.0000
  H   H3236     1.0  0.69509  0.09717  0.07641  1.0000
  H   H3237     1.0  0.69555  0.11632  0.07726  1.0000
  H   H3238     1.0  0.68255  0.10604  0.09203  1.0000
  H   H3239     1.0  0.73769  0.01979  0.08566  1.0000
  H   H3240     1.0  0.69855  0.14875  0.12194  1.0000
  S   S1092     1.0  0.56359  0.02058  0.99486  1.0000
  C   C3254     1.0  0.89632  0.13099  0.15315  1.0000
  H   H3241     1.0  0.56636  0.21138  0.08404  1.0000
  C   C3255     1.0  0.72881  0.01305  0.09060  1.0000
  C   C3256     1.0  0.82662  0.00249  0.97524  1.0000
  C   C3257     1.0  0.72433  0.14091  0.14430  1.0000
  H   H3242     1.0  0.55872  0.07674  0.98593  1.0000
  S   S1093     1.0  0.79907  0.99531  0.99252  1.0000
  C   C3258     1.0  0.54749  0.98977  0.98928  1.0000
  N   N270      1.0  0.62248  0.03980  0.96988  1.0000
  Fe  Fe548     1.0  0.97583  0.11055  0.11275  1.0000
  H   H3243     1.0  0.59920  0.04330  0.96829  1.0000
  H   H3244     1.0  0.62138  0.22264  0.10468  1.0000
  N   N271      1.0  0.91895  0.99142  0.06691  1.0000
  C   C3259     1.0  0.81324  0.99797  0.97552  1.0000
  S   S1094     1.0  0.79244  0.20688  0.14120  1.0000
  H   H3245     1.0  0.87509  0.98013  0.03371  1.0000
  H   H3246     1.0  0.66617  0.20916  0.07695  1.0000
  H   H3247     1.0  0.57964  0.17873  0.12873  1.0000
  N   N272      1.0  0.77934  0.05055  0.06670  1.0000
  C   C3260     1.0  0.78117  0.05470  0.05103  1.0000
  C   C3261     1.0  0.79152  0.04852  0.07332  1.0000
  C   C3262     1.0  0.79537  0.05738  0.04158  1.0000
  C   C3263     1.0  0.80588  0.05114  0.06421  1.0000
  C   C3264     1.0  0.80772  0.05572  0.04826  1.0000
  C   C3265     1.0  0.76454  0.04740  0.07648  1.0000
  H   H3248     1.0  0.77166  0.05583  0.04575  1.0000
  H   H3249     1.0  0.79691  0.06049  0.02914  1.0000
  H   H3250     1.0  0.81556  0.04952  0.06943  1.0000
  H   H3251     1.0  0.81877  0.05781  0.04107  1.0000
  H   H3252     1.0  0.76489  0.03480  0.07902  1.0000
  H   H3253     1.0  0.76194  0.05124  0.08747  1.0000
  H   H3254     1.0  0.82048  0.08215  0.11291  1.0000
  S   S1095     1.0  0.78468  0.13183  0.16217  1.0000
  S   S1096     1.0  0.98353  0.09351  0.13320  1.0000
  H   H3255     1.0  0.92247  0.02850  0.13056  1.0000
  H   H3256     1.0  0.76928  0.10795  0.16398  1.0000
  C   C3266     1.0  0.58287  0.18974  0.12327  1.0000
  N   N273      1.0  0.59775  0.07844  0.03457  1.0000
  C   C3267     1.0  0.60933  0.07958  0.04050  1.0000
  H   H3257     1.0  0.81841  0.08220  0.14024  1.0000
  C   C3268     1.0  0.61012  0.09394  0.04226  1.0000
  C   C3269     1.0  0.58741  0.10591  0.03160  1.0000
  C   C3270     1.0  0.59905  0.10716  0.03783  1.0000
  H   H3258     1.0  0.61801  0.06931  0.04391  1.0000
  H   H3259     1.0  0.61929  0.09478  0.04703  1.0000
  H   H3260     1.0  0.57879  0.11613  0.02800  1.0000
  H   H3261     1.0  0.59948  0.11839  0.03915  1.0000
  H   H3262     1.0  0.59893  0.05428  0.04333  1.0000
  C   C3271     1.0  0.64589  0.02010  0.98411  1.0000
  H   H3263     1.0  0.81209  0.10739  0.14824  1.0000
  C   C3272     1.0  0.81833  0.22218  0.09925  1.0000
  C   C3273     1.0  0.96243  0.01573  0.13532  1.0000
  H   H3264     1.0  0.83141  0.21824  0.15358  1.0000
  C   C3274     1.0  0.59452  0.20679  0.10070  1.0000
  H   H3265     1.0  0.59988  0.20922  0.08856  1.0000
  C   C3275     1.0  0.72860  0.00131  0.08385  1.0000
  S   S1097     1.0  0.82643  0.13898  0.14927  1.0000
  H   H3266     1.0  0.50061  0.08995  0.00478  1.0000
  S   S1098     1.0  0.59268  0.17880  0.09686  1.0000
  C   C3276     1.0  0.63136  0.19821  0.10884  1.0000
  H   H3267     1.0  0.69669  0.98975  0.10682  1.0000
  C   C3277     1.0  0.59737  0.06327  0.03269  1.0000
  S   S1099     1.0  0.95045  0.08295  0.14083  1.0000
  C   C3278     1.0  0.71648  0.98148  0.08194  1.0000
  H   H3268     1.0  0.82614  0.21216  0.13915  1.0000
  H   H3269     1.0  0.52679  0.20473  0.14063  1.0000
  C   C3279     1.0  0.58814  0.17812  0.98815  1.0000
  C   C3280     1.0  0.53672  0.19862  0.13285  1.0000
  Fe  Fe549     1.0  0.80073  0.14870  0.15333  1.0000
  Fe  Fe550     1.0  0.80487  0.18187  0.14375  1.0000
  S   S1100     1.0  0.58750  0.98723  0.97526  1.0000
  N   N274      1.0  0.89273  0.12267  0.97377  1.0000
  S   S1101     1.0  0.79184  0.99209  0.03618  1.0000
  H   H3270     1.0  0.68024  0.98004  0.08672  1.0000
  H   H3271     1.0  0.72712  0.97893  0.07290  1.0000
  C   C3281     1.0  0.80747  0.03842  0.97108  1.0000
  H   H3272     1.0  0.88330  0.16127  0.98728  1.0000
  N   N275      1.0  0.88819  0.13480  0.07818  1.0000
  C   C3282     1.0  0.87840  0.14836  0.07307  1.0000
  C   C3283     1.0  0.89891  0.12686  0.06791  1.0000
  C   C3284     1.0  0.87907  0.15418  0.05730  1.0000
  C   C3285     1.0  0.89995  0.13237  0.05207  1.0000
  C   C3286     1.0  0.88991  0.14610  0.04675  1.0000
  C   C3287     1.0  0.88700  0.12836  0.09472  1.0000
  H   H3273     1.0  0.86985  0.15467  0.08119  1.0000
  H   H3274     1.0  0.90667  0.11614  0.07193  1.0000
  H   H3275     1.0  0.87115  0.16482  0.05331  1.0000
  H   H3276     1.0  0.90838  0.12588  0.04402  1.0000
  H   H3277     1.0  0.89049  0.15046  0.03449  1.0000
  C   C3288     1.0  0.58697  0.09138  0.02999  1.0000
  H   H3278     1.0  0.60687  0.05992  0.02297  1.0000
  C   C3289     1.0  0.93551  0.05332  0.11396  1.0000
  H   H3279     1.0  0.73635  0.13419  0.16287  1.0000
  H   H3280     1.0  0.62227  0.17374  0.99552  1.0000
  C   C3290     1.0  0.55950  0.21525  0.09445  1.0000
  H   H3281     1.0  0.54876  0.00149  0.98339  1.0000
  S   S1102     1.0  0.55022  0.11762  0.00153  1.0000
  Fe  Fe551     1.0  0.73882  0.10254  0.12229  1.0000
  Fe  Fe552     1.0  0.70431  0.10415  0.12967  1.0000
  C   C3291     1.0  0.79993  0.21867  0.12382  1.0000
  C   C3292     1.0  0.81740  0.09302  0.11662  1.0000
  C   C3293     1.0  0.81640  0.09306  0.13192  1.0000
  H   H3282     1.0  0.57794  0.09055  0.02503  1.0000
  C   C3294     1.0  0.59108  0.21821  0.10927  1.0000
  N   N276      1.0  0.81191  0.12087  0.11039  1.0000
  Fe  Fe553     1.0  0.94523  0.10078  0.11983  1.0000
  C   C3295     1.0  0.68383  0.07067  0.09822  1.0000
  C   C3296     1.0  0.69755  0.07090  0.10192  1.0000
  H   H3283     1.0  0.58618  0.06336  0.03025  1.0000
  C   C3297     1.0  0.55212  0.20507  0.10665  1.0000
  Fe  Fe554     1.0  0.62573  0.20220  0.04720  1.0000
  H   H3284     1.0  0.65469  0.01210  0.98995  1.0000
  H   H3285     1.0  0.76841  0.14397  0.11316  1.0000
  C   C3298     1.0  0.65682  0.19062  0.09325  1.0000
  H   H3286     1.0  0.65428  0.20939  0.04495  1.0000
  C   C3299     1.0  0.69827  0.13809  0.15094  1.0000
  H   H3287     1.0  0.69704  0.07760  0.10999  1.0000
  H   H3288     1.0  0.67283  0.07705  0.10368  1.0000
  S   S1103     1.0  0.95190  0.11966  0.12575  1.0000
  C   C3300     1.0  0.76234  0.12294  0.12793  1.0000
  C   C3301     1.0  0.85099  0.10728  0.11370  1.0000
  C   C3302     1.0  0.89010  0.10935  0.98420  1.0000
  N   N277      1.0  0.93754  0.03897  0.11116  1.0000
  H   H3289     1.0  0.50639  0.09288  0.96731  1.0000
  C   C3303     1.0  0.81300  0.10714  0.13637  1.0000
  C   C3304     1.0  0.84787  0.12264  0.11520  1.0000
  C   C3305     1.0  0.76866  0.13604  0.12423  1.0000
  C   C3306     1.0  0.91217  0.08477  0.08493  1.0000
  C   C3307     1.0  0.81497  0.10712  0.10597  1.0000
  H   H3290     1.0  0.81599  0.10697  0.09407  1.0000
  H   H3291     1.0  0.92375  0.09780  0.99672  1.0000
  S   S1104     1.0  0.83080  0.17507  0.13852  1.0000
  C   C3308     1.0  0.90689  0.00158  0.06106  1.0000
  C   C3309     1.0  0.91122  0.09060  0.09770  1.0000
  C   C3310     1.0  0.65642  0.20620  0.08603  1.0000
  H   H3292     1.0  0.90235  0.01294  0.06385  1.0000
  Fe  Fe555     1.0  0.61094  0.18071  0.07485  1.0000
  H   H3293     1.0  0.71809  0.13754  0.11771  1.0000
  H   H3294     1.0  0.85196  0.09786  0.12368  1.0000
  H   H3295     1.0  0.62133  0.19523  0.11752  1.0000
  S   S1105     1.0  0.60560  0.19108  0.05138  1.0000
  Fe  Fe556     1.0  0.54406  0.12888  0.97844  1.0000
  C   C3311     1.0  0.81083  0.12100  0.12538  1.0000
  C   C3312     1.0  0.97941  0.03866  0.12890  1.0000
  H   H3296     1.0  0.58111  0.18335  0.99772  1.0000
  C   C3313     1.0  0.94754  0.06126  0.10845  1.0000
  C   C3314     1.0  0.64419  0.01797  0.97038  1.0000
  H   H3297     1.0  0.82769  0.21727  0.09071  1.0000
  H   H3298     1.0  0.64025  0.98511  0.08311  1.0000
  H   H3299     1.0  0.84679  0.12499  0.12625  1.0000
  C   C3315     1.0  0.95130  0.03232  0.10266  1.0000
  C   C3316     1.0  0.96347  0.04009  0.09673  1.0000
  H   H3300     1.0  0.55073  0.05329  0.98519  1.0000
  C   C3317     1.0  0.95586  0.02919  0.14112  1.0000
  H   H3301     1.0  0.98040  0.11484  0.15170  1.0000
  C   C3318     1.0  0.76898  0.11591  0.15295  1.0000
  S   S1106     1.0  0.62957  0.19341  0.07121  1.0000
  S   S1107     1.0  0.70707  0.07828  0.13654  1.0000
  S   S1108     1.0  0.74498  0.07650  0.12769  1.0000
  H   H3302     1.0  0.90266  0.08037  0.08439  1.0000
  S   S1109     1.0  0.80189  0.16605  0.13080  1.0000
  H   H3303     1.0  0.55722  0.98943  0.00798  1.0000
  S   S1110     1.0  0.64331  0.18269  0.03808  1.0000
  C   C3319     1.0  0.90018  0.99750  0.05137  1.0000
  C   C3320     1.0  0.97768  0.01350  0.12665  1.0000
  H   H3304     1.0  0.54545  0.19126  0.13960  1.0000
  Fe  Fe557     1.0  0.61576  0.98433  0.00046  1.0000
  H   H3305     1.0  0.81630  0.19996  0.11439  1.0000
  S   S1111     1.0  0.72047  0.10437  0.14373  1.0000
  H   H3306     1.0  0.75736  0.10288  0.14539  1.0000
  C   C3321     1.0  0.76230  0.11298  0.14242  1.0000
  H   H3307     1.0  0.60392  0.18383  0.00447  1.0000
  Fe  Fe558     1.0  0.81406  0.99130  0.04198  1.0000
  H   H3308     1.0  0.92852  0.12186  0.97734  1.0000
  H   H3309     1.0  0.81130  0.22153  0.15266  1.0000
  H   H3310     1.0  0.90104  0.09052  0.10703  1.0000
  C   C3322     1.0  0.77513  0.13908  0.13481  1.0000
  H   H3311     1.0  0.77979  0.14931  0.13186  1.0000
  C   C3323     1.0  0.72551  0.13541  0.15970  1.0000
  Fe  Fe559     1.0  0.82767  0.15756  0.12766  1.0000
  H   H3312     1.0  0.79705  0.03510  0.97870  1.0000
  H   H3313     1.0  0.90545  0.12759  0.14314  1.0000
  H   H3314     1.0  0.81632  0.13447  0.08754  1.0000
  H   H3315     1.0  0.53209  0.19107  0.12858  1.0000
  Fe  Fe560     1.0  0.62365  0.17052  0.04439  1.0000
  Fe  Fe561     1.0  0.95901  0.10125  0.14563  1.0000
  N   N278      1.0  0.71721  0.99306  0.08970  1.0000
  C   C3324     1.0  0.80906  0.13554  0.09916  1.0000
  H   H3316     1.0  0.81210  0.14496  0.10232  1.0000
  C   C3325     1.0  0.56040  0.05205  0.99024  1.0000
  C   C3326     1.0  0.58976  0.16592  0.96767  1.0000
  C   C3327     1.0  0.64417  0.18661  0.10468  1.0000
  H   H3317     1.0  0.90045  0.97953  0.04055  1.0000
  H   H3318     1.0  0.63724  0.03409  0.00116  1.0000
  N   N279      1.0  0.54392  0.20965  0.12003  1.0000
  C   C3328     1.0  0.59021  0.19260  0.10766  1.0000
  S   S1112     1.0  0.55658  0.14802  0.97401  1.0000
  C   C3329     1.0  0.91789  0.11806  0.97917  1.0000
  C   C3330     1.0  0.81193  0.21237  0.11268  1.0000
  H   H3319     1.0  0.69650  0.01050  0.11915  1.0000
  H   H3320     1.0  0.71707  0.02572  0.10853  1.0000
  H   H3321     1.0  0.68770  0.13865  0.14759  1.0000
  H   H3322     1.0  0.48689  0.13747  0.00895  1.0000
  H   H3323     1.0  0.92814  0.01907  0.11480  1.0000
  S   S1113     1.0  0.51948  0.13832  0.97463  1.0000
  H   H3324     1.0  0.62525  0.16803  0.96975  1.0000
  H   H3325     1.0  0.48862  0.14835  0.96962  1.0000
  C   C3331     1.0  0.91521  0.10458  0.99000  1.0000
  C   C3332     1.0  0.96433  0.04063  0.13791  1.0000
  S   S1114     1.0  0.95089  0.00252  0.13813  1.0000
  C   C3333     1.0  0.63602  0.03239  0.99045  1.0000
  H   H3326     1.0  0.83919  0.05007  0.97151  1.0000
  N   N280      1.0  0.71087  0.14211  0.14009  1.0000
  H   H3327     1.0  0.73438  0.14384  0.13563  1.0000
  C   C3334     1.0  0.70594  0.99606  0.10239  1.0000
  H   H3328     1.0  0.92465  0.05859  0.12075  1.0000
  C   C3335     1.0  0.71046  0.14680  0.12372  1.0000
  C   C3336     1.0  0.69903  0.13255  0.16645  1.0000
  C   C3337     1.0  0.55231  0.98297  0.00309  1.0000
  H   H3329     1.0  0.94411  0.03090  0.14791  1.0000
  C   C3338     1.0  0.61276  0.16943  0.97264  1.0000
  C   C3339     1.0  0.96156  0.05464  0.09970  1.0000
  H   H3330     1.0  0.89885  0.08992  0.00115  1.0000
  C   C3340     1.0  0.92496  0.03063  0.11779  1.0000
  C   C3341     1.0  0.62431  0.04219  0.98315  1.0000
  C   C3342     1.0  0.97835  0.11640  0.16327  1.0000
  C   C3343     1.0  0.90651  0.12693  0.97101  1.0000
  H   H3331     1.0  0.98279  0.00313  0.12211  1.0000
  S   S1115     1.0  0.96692  0.98134  0.10361  1.0000
  Fe  Fe562     1.0  0.82747  0.15723  0.16052  1.0000
  C   C3344     1.0  0.49256  0.13625  0.96900  1.0000
  H   H3332     1.0  0.53767  0.98647  0.97217  1.0000
  H   H3333     1.0  0.89293  0.12037  0.16105  1.0000
  C   C3345     1.0  0.58084  0.17288  0.97984  1.0000
  C   C3346     1.0  0.81764  0.04290  0.97682  1.0000
  H   H3334     1.0  0.50701  0.11310  0.00829  1.0000
  C   C3347     1.0  0.49235  0.22056  0.15880  1.0000
  C   C3348     1.0  0.54124  0.98138  0.98303  1.0000
  C   C3349     1.0  0.51274  0.11281  0.96970  1.0000
  C   C3350     1.0  0.50253  0.10505  0.96767  1.0000
  H   H3335     1.0  0.88608  0.13850  0.14861  1.0000
  H   H3336     1.0  0.52436  0.10664  0.97092  1.0000
  N   N281      1.0  0.64387  0.21752  0.09026  1.0000
  C   C3351     1.0  0.82333  0.22141  0.14572  1.0000
  C   C3352     1.0  0.54326  0.22410  0.12185  1.0000
  H   H3337     1.0  0.61428  0.19341  0.98634  1.0000
  C   C3353     1.0  0.91703  0.13439  0.16289  1.0000
  C   C3354     1.0  0.65394  0.22154  0.04357  1.0000
  H   H3338     1.0  0.92492  0.12505  0.15773  1.0000
  S   S1116     1.0  0.54630  0.20905  0.16344  1.0000
  H   H3339     1.0  0.70655  0.98595  0.07615  1.0000
  N   N282      1.0  0.90194  0.13904  0.16139  1.0000
  C   C3355     1.0  0.50770  0.12840  0.97061  1.0000
  H   H3340     1.0  0.97107  0.06056  0.09564  1.0000
  H   H3341     1.0  0.86907  0.13172  0.97222  1.0000
  H   H3342     1.0  0.84026  0.22694  0.11696  1.0000
  S   S1117     1.0  0.62559  0.22738  0.03642  1.0000
  S   S1118     1.0  0.80160  0.16530  0.16676  1.0000
  C   C3356     1.0  0.83123  0.04668  0.96703  1.0000
  H   H3343     1.0  0.84306  0.07218  0.33325  1.0000
  C   C3357     1.0  0.79600  0.22007  0.32035  1.0000
  H   H3344     1.0  0.50568  0.12634  0.34793  1.0000
  Fe  Fe563     1.0  0.54596  0.20994  0.18753  1.0000
  Fe  Fe564     1.0  0.57448  0.15082  0.30999  1.0000
  S   S1119     1.0  0.57771  0.15180  0.28486  1.0000
  S   S1120     1.0  0.56501  0.13115  0.32729  1.0000
  Fe  Fe565     1.0  0.58995  0.17807  0.30386  1.0000
  S   S1121     1.0  0.59449  0.18076  0.27830  1.0000
  S   S1122     1.0  0.59679  0.19679  0.31021  1.0000
  Fe  Fe566     1.0  0.57034  0.17758  0.28261  1.0000
  S   S1123     1.0  0.55306  0.19481  0.26969  1.0000
  Fe  Fe567     1.0  0.60153  0.15482  0.28328  1.0000
  S   S1124     1.0  0.62252  0.14247  0.26842  1.0000
  S   S1125     1.0  0.56515  0.17647  0.30798  1.0000
  S   S1126     1.0  0.59885  0.15230  0.30856  1.0000
  N   N283      1.0  0.72028  0.16715  0.34944  1.0000
  C   C3358     1.0  0.71276  0.15104  0.33761  1.0000
  C   C3359     1.0  0.69722  0.15819  0.34217  1.0000
  C   C3360     1.0  0.75262  0.10302  0.20488  1.0000
  H   H3345     1.0  0.95797  0.07635  0.19656  1.0000
  Fe  Fe568     1.0  0.49461  0.09821  0.33325  1.0000
  S   S1127     1.0  0.50825  0.11410  0.31458  1.0000
  H   H3346     1.0  0.61508  0.10736  0.27596  1.0000
  H   H3347     1.0  0.97080  0.12311  0.20444  1.0000
  H   H3348     1.0  0.91656  0.15893  0.18457  1.0000
  H   H3349     1.0  0.70269  0.04488  0.21258  1.0000
  C   C3361     1.0  0.84335  0.15919  0.23608  1.0000
  S   S1128     1.0  0.55257  0.18752  0.20421  1.0000
  S   S1129     1.0  0.80291  0.14173  0.32129  1.0000
  Fe  Fe569     1.0  0.76737  0.13070  0.31602  1.0000
  S   S1130     1.0  0.79032  0.12760  0.29919  1.0000
  S   S1131     1.0  0.74504  0.12637  0.31445  1.0000
  Fe  Fe570     1.0  0.80033  0.11854  0.32030  1.0000
  Fe  Fe571     1.0  0.79086  0.15097  0.30163  1.0000
  S   S1132     1.0  0.79694  0.16916  0.28047  1.0000
  S   S1133     1.0  0.76702  0.15498  0.31657  1.0000
  Fe  Fe572     1.0  0.69418  0.08257  0.28265  1.0000
  S   S1134     1.0  0.70925  0.09732  0.26494  1.0000
  S   S1135     1.0  0.67432  0.09338  0.29964  1.0000
  Fe  Fe573     1.0  0.71236  0.05311  0.27167  1.0000
  S   S1136     1.0  0.72885  0.06549  0.25289  1.0000
  S   S1137     1.0  0.71755  0.02704  0.27599  1.0000
  Fe  Fe574     1.0  0.72894  0.07764  0.27068  1.0000
  S   S1138     1.0  0.75194  0.08021  0.27225  1.0000
  Fe  Fe575     1.0  0.70761  0.08388  0.24890  1.0000
  S   S1139     1.0  0.70280  0.09767  0.22597  1.0000
  S   S1140     1.0  0.71410  0.06390  0.28990  1.0000
  S   S1141     1.0  0.69090  0.07051  0.26620  1.0000
  C   C3362     1.0  0.50759  0.13913  0.36336  1.0000
  C   C3363     1.0  0.80152  0.06601  0.35287  1.0000
  C   C3364     1.0  0.72971  0.22066  0.35949  1.0000
  H   H3350     1.0  0.71600  0.14196  0.33118  1.0000
  C   C3365     1.0  0.84375  0.16826  0.18293  1.0000
  Fe  Fe576     1.0  0.97898  0.01839  0.32388  1.0000
  H   H3351     1.0  0.68123  0.17521  0.35424  1.0000
  H   H3352     1.0  0.74830  0.99117  0.23566  1.0000
  S   S1142     1.0  0.85833  0.22134  0.23094  1.0000
  H   H3353     1.0  0.97825  0.00042  0.28403  1.0000
  H   H3354     1.0  0.60005  0.12258  0.29543  1.0000
  C   C3366     1.0  0.74820  0.10090  0.23225  1.0000
  C   C3367     1.0  0.69331  0.16970  0.35056  1.0000
  H   H3355     1.0  0.80805  0.18656  0.33773  1.0000
  H   H3356     1.0  0.83923  0.04857  0.35353  1.0000
  H   H3357     1.0  0.68914  0.12900  0.17493  1.0000
  C   C3368     1.0  0.60090  0.11156  0.30425  1.0000
  H   H3358     1.0  0.71698  0.00504  0.20520  1.0000
  H   H3359     1.0  0.55008  0.14178  0.27699  1.0000
  Fe  Fe577     1.0  0.86221  0.20697  0.21355  1.0000
  H   H3360     1.0  0.68816  0.15480  0.33933  1.0000
  S   S1143     1.0  0.84436  0.21027  0.19980  1.0000
  Fe  Fe578     1.0  0.89416  0.18953  0.21882  1.0000
  S   S1144     1.0  0.89322  0.20202  0.23676  1.0000
  S   S1145     1.0  0.91479  0.17225  0.20955  1.0000
  Fe  Fe579     1.0  0.86872  0.19888  0.24534  1.0000
  S   S1146     1.0  0.85901  0.19063  0.27044  1.0000
  H   H3361     1.0  0.73798  0.21315  0.35241  1.0000
  S   S1147     1.0  0.87063  0.18433  0.22886  1.0000
  S   S1148     1.0  0.88600  0.21109  0.20211  1.0000
  S   S1149     1.0  0.84374  0.15203  0.17646  1.0000
  H   H3362     1.0  0.89373  0.00536  0.34232  1.0000
  C   C3369     1.0  0.69683  0.00613  0.24930  1.0000
  S   S1150     1.0  0.98156  0.11026  0.23132  1.0000
  H   H3363     1.0  0.53573  0.14459  0.22982  1.0000
  S   S1151     1.0  0.95869  0.14045  0.25636  1.0000
  C   C3370     1.0  0.97661  0.04940  0.29418  1.0000
  H   H3364     1.0  0.70618  0.09165  0.17441  1.0000
  C   C3371     1.0  0.91244  0.15338  0.17805  1.0000
  H   H3365     1.0  0.79376  0.08790  0.33812  1.0000
  H   H3366     1.0  0.87766  0.98550  0.35368  1.0000
  H   H3367     1.0  0.70187  0.18290  0.36083  1.0000
  H   H3368     1.0  0.80019  0.99424  0.29926  1.0000
  H   H3369     1.0  0.91880  0.02973  0.35157  1.0000
  C   C3372     1.0  0.92251  0.14152  0.17118  1.0000
  C   C3373     1.0  0.78908  0.99266  0.29804  1.0000
  C   C3374     1.0  0.53914  0.15554  0.22880  1.0000
  C   C3375     1.0  0.81863  0.08176  0.33451  1.0000
  H   H3370     1.0  0.85567  0.15076  0.25437  1.0000
  C   C3376     1.0  0.52788  0.17193  0.24790  1.0000
  H   H3371     1.0  0.50383  0.20349  0.17560  1.0000
  H   H3372     1.0  0.98428  0.05617  0.33718  1.0000
  H   H3373     1.0  0.73623  0.98480  0.21798  1.0000
  C   C3377     1.0  0.83145  0.07044  0.33866  1.0000
  C   C3378     1.0  0.78068  0.20647  0.31453  1.0000
  H   H3374     1.0  0.92217  0.99736  0.33944  1.0000
  C   C3379     1.0  0.66414  0.16411  0.30671  1.0000
  H   H3375     1.0  0.96180  0.07621  0.22221  1.0000
  H   H3376     1.0  0.94508  0.01353  0.35282  1.0000
  C   C3380     1.0  0.94268  0.18790  0.24550  1.0000
  C   C3381     1.0  0.96195  0.11637  0.18873  1.0000
  H   H3377     1.0  0.53207  0.16509  0.22160  1.0000
  H   H3378     1.0  0.82078  0.08174  0.36639  1.0000
  C   C3382     1.0  0.70704  0.99658  0.25853  1.0000
  H   H3379     1.0  0.95131  0.11459  0.19696  1.0000
  C   C3383     1.0  0.97850  0.99269  0.27695  1.0000
  H   H3380     1.0  0.51942  0.18582  0.26514  1.0000
  H   H3381     1.0  0.83087  0.12679  0.34696  1.0000
  C   C3384     1.0  0.83331  0.19511  0.18504  1.0000
  C   C3385     1.0  0.63592  0.17518  0.28118  1.0000
  H   H3382     1.0  0.96366  0.07292  0.29394  1.0000
  H   H3383     1.0  0.65467  0.07278  0.28785  1.0000
  N   N284      1.0  0.61553  0.10065  0.29984  1.0000
  H   H3384     1.0  0.58473  0.22239  0.28730  1.0000
  H   H3385     1.0  0.80685  0.15558  0.23928  1.0000
  S   S1152     1.0  0.77731  0.11982  0.33706  1.0000
  C   C3386     1.0  0.76984  0.21912  0.33637  1.0000
  H   H3386     1.0  0.74202  0.09672  0.24383  1.0000
  C   C3387     1.0  0.92643  0.16233  0.22289  1.0000
  C   C3388     1.0  0.92097  0.16284  0.23847  1.0000
  C   C3389     1.0  0.93080  0.15572  0.24882  1.0000
  C   C3390     1.0  0.94613  0.14820  0.24359  1.0000
  C   C3391     1.0  0.95151  0.14755  0.22803  1.0000
  C   C3392     1.0  0.94163  0.15449  0.21772  1.0000
  H   H3387     1.0  0.90918  0.16869  0.24258  1.0000
  H   H3388     1.0  0.92657  0.15619  0.26086  1.0000
  H   H3389     1.0  0.96337  0.14198  0.22384  1.0000
  H   H3390     1.0  0.94592  0.15406  0.20568  1.0000
  H   H3391     1.0  0.79602  0.16606  0.33685  1.0000
  C   C3393     1.0  0.80367  0.07942  0.34149  1.0000
  H   H3392     1.0  0.63993  0.08933  0.26812  1.0000
  H   H3393     1.0  0.65556  0.14865  0.27605  1.0000
  H   H3394     1.0  0.85263  0.16405  0.22789  1.0000
  H   H3395     1.0  0.82401  0.13853  0.28552  1.0000
  H   H3396     1.0  0.59088  0.10648  0.30552  1.0000
  C   C3394     1.0  0.70946  0.08752  0.21110  1.0000
  C   C3395     1.0  0.71986  0.07310  0.21274  1.0000
  C   C3396     1.0  0.72571  0.06562  0.20036  1.0000
  C   C3397     1.0  0.72097  0.07240  0.18643  1.0000
  H   H3397     1.0  0.56519  0.22289  0.24424  1.0000
  C   C3398     1.0  0.70465  0.09424  0.19722  1.0000
  H   H3398     1.0  0.72356  0.06782  0.22342  1.0000
  H   H3399     1.0  0.73406  0.05467  0.20145  1.0000
  H   H3400     1.0  0.64542  0.18343  0.30175  1.0000
  H   H3401     1.0  0.69633  0.10520  0.19608  1.0000
  C   C3399     1.0  0.70903  0.01912  0.26611  1.0000
  C   C3400     1.0  0.69868  0.02862  0.25702  1.0000
  C   C3401     1.0  0.69255  0.02212  0.24867  1.0000
  H   H3402     1.0  0.78319  0.98666  0.30941  1.0000
  N   N285      1.0  0.78255  0.21507  0.32352  1.0000
  C   C3402     1.0  0.71312  0.00308  0.26694  1.0000
  H   H3403     1.0  0.69549  0.04098  0.25632  1.0000
  H   H3404     1.0  0.68462  0.02950  0.24157  1.0000
  C   C3403     1.0  0.82306  0.98510  0.34416  1.0000
  C   C3404     1.0  0.93501  0.00925  0.35996  1.0000
  C   C3405     1.0  0.81421  0.17502  0.27788  1.0000
  C   C3406     1.0  0.82018  0.18384  0.26360  1.0000
  C   C3407     1.0  0.83408  0.18848  0.26119  1.0000
  C   C3408     1.0  0.84192  0.18450  0.27315  1.0000
  C   C3409     1.0  0.83588  0.17580  0.28748  1.0000
  C   C3410     1.0  0.82205  0.17105  0.28983  1.0000
  H   H3405     1.0  0.81411  0.18704  0.25434  1.0000
  H   H3406     1.0  0.83860  0.19535  0.25014  1.0000
  H   H3407     1.0  0.84188  0.17281  0.29677  1.0000
  H   H3408     1.0  0.81739  0.16456  0.30096  1.0000
  C   C3411     1.0  0.74713  0.11328  0.30292  1.0000
  C   C3412     1.0  0.73387  0.11048  0.30055  1.0000
  C   C3413     1.0  0.73527  0.10021  0.29127  1.0000
  C   C3414     1.0  0.74996  0.09273  0.28429  1.0000
  C   C3415     1.0  0.76322  0.09547  0.28669  1.0000
  C   C3416     1.0  0.76181  0.10567  0.29604  1.0000
  H   H3409     1.0  0.72249  0.11624  0.30593  1.0000
  H   H3410     1.0  0.72497  0.09805  0.28960  1.0000
  H   H3411     1.0  0.77460  0.08964  0.28140  1.0000
  H   H3412     1.0  0.77208  0.10753  0.29802  1.0000
  H   H3413     1.0  0.84013  0.12460  0.27732  1.0000
  H   H3414     1.0  0.84312  0.14186  0.28080  1.0000
  N   N286      1.0  0.83326  0.14542  0.26144  1.0000
  Fe  Fe580     1.0  0.77894  0.14390  0.33614  1.0000
  C   C3417     1.0  0.54373  0.15028  0.26890  1.0000
  C   C3418     1.0  0.61193  0.19275  0.31989  1.0000
  C   C3419     1.0  0.61877  0.17758  0.32640  1.0000
  C   C3420     1.0  0.63103  0.17493  0.33378  1.0000
  C   C3421     1.0  0.63657  0.18739  0.33454  1.0000
  C   C3422     1.0  0.62971  0.20250  0.32801  1.0000
  C   C3423     1.0  0.61740  0.20516  0.32078  1.0000
  H   H3415     1.0  0.61455  0.16794  0.32587  1.0000
  S   S1153     1.0  0.96944  0.99762  0.32700  1.0000
  H   H3416     1.0  0.63399  0.21217  0.32835  1.0000
  H   H3417     1.0  0.61218  0.21691  0.31577  1.0000
  C   C3424     1.0  0.63721  0.12943  0.27717  1.0000
  C   C3425     1.0  0.63598  0.12653  0.29305  1.0000
  C   C3426     1.0  0.64764  0.11574  0.29982  1.0000
  C   C3427     1.0  0.66059  0.10778  0.29075  1.0000
  C   C3428     1.0  0.66208  0.11097  0.27480  1.0000
  C   C3429     1.0  0.65039  0.12177  0.26803  1.0000
  H   H3418     1.0  0.62603  0.13238  0.30021  1.0000
  H   H3419     1.0  0.64651  0.11336  0.31216  1.0000
  H   H3420     1.0  0.67209  0.10490  0.26769  1.0000
  H   H3421     1.0  0.65149  0.12403  0.25571  1.0000
  C   C3430     1.0  0.55428  0.19331  0.25091  1.0000
  C   C3431     1.0  0.54449  0.20451  0.24210  1.0000
  C   C3432     1.0  0.54458  0.20322  0.22736  1.0000
  C   C3433     1.0  0.55412  0.19043  0.22158  1.0000
  C   C3434     1.0  0.56401  0.17925  0.23032  1.0000
  C   C3435     1.0  0.56423  0.18078  0.24492  1.0000
  H   H3422     1.0  0.53657  0.21408  0.24677  1.0000
  H   H3423     1.0  0.53686  0.21181  0.22070  1.0000
  H   H3424     1.0  0.57146  0.16938  0.22582  1.0000
  H   H3425     1.0  0.57181  0.17209  0.25167  1.0000
  C   C3436     1.0  0.52417  0.11850  0.31817  1.0000
  C   C3437     1.0  0.53194  0.10882  0.32954  1.0000
  C   C3438     1.0  0.54443  0.11281  0.33231  1.0000
  C   C3439     1.0  0.54932  0.12640  0.32362  1.0000
  C   C3440     1.0  0.54164  0.13601  0.31217  1.0000
  C   C3441     1.0  0.52912  0.13205  0.30945  1.0000
  H   H3426     1.0  0.52841  0.09818  0.33605  1.0000
  H   H3427     1.0  0.55040  0.10528  0.34111  1.0000
  H   H3428     1.0  0.54524  0.14659  0.30559  1.0000
  H   H3429     1.0  0.52307  0.13959  0.30072  1.0000
  C   C3442     1.0  0.96498  0.98842  0.27735  1.0000
  H   H3430     1.0  0.51622  0.10082  0.36330  1.0000
  C   C3443     1.0  0.63750  0.08105  0.30669  1.0000
  S   S1154     1.0  0.96732  0.04232  0.31312  1.0000
  C   C3444     1.0  0.97283  0.06528  0.28761  1.0000
  C   C3445     1.0  0.84438  0.19406  0.19325  1.0000
  C   C3446     1.0  0.85517  0.18009  0.19624  1.0000
  C   C3447     1.0  0.85466  0.16714  0.19135  1.0000
  H   H3431     1.0  0.86389  0.17928  0.20231  1.0000
  H   H3432     1.0  0.86278  0.15625  0.19403  1.0000
  C   C3448     1.0  0.75790  0.02174  0.28026  1.0000
  C   C3449     1.0  0.73244  0.17152  0.35362  1.0000
  N   N287      1.0  0.53716  0.15844  0.24409  1.0000
  S   S1155     1.0  0.69006  0.99853  0.23768  1.0000
  H   H3433     1.0  0.49515  0.00800  0.35191  1.0000
  H   H3434     1.0  0.97952  0.07900  0.17364  1.0000
  C   C3450     1.0  0.48868  0.01403  0.34305  1.0000
  C   C3451     1.0  0.97124  0.07702  0.21214  1.0000
  C   C3452     1.0  0.70715  0.03455  0.20732  1.0000
  H   H3435     1.0  0.53366  0.16647  0.28386  1.0000
  H   H3436     1.0  0.64411  0.07418  0.31527  1.0000
  H   H3437     1.0  0.73625  0.14989  0.33797  1.0000
  H   H3438     1.0  0.81048  0.14172  0.26546  1.0000
  S   S1156     1.0  0.82155  0.09921  0.32150  1.0000
  C   C3453     1.0  0.71381  0.22247  0.36073  1.0000
  S   S1157     1.0  0.63795  0.22633  0.35202  1.0000
  S   S1158     1.0  0.85327  0.01202  0.36311  1.0000
  C   C3454     1.0  0.89704  0.15797  0.17659  1.0000
  C   C3455     1.0  0.79124  0.17223  0.34604  1.0000
  H   H3439     1.0  0.74927  0.02192  0.27428  1.0000
  H   H3440     1.0  0.71045  0.98426  0.25896  1.0000
  H   H3441     1.0  0.66642  0.16866  0.31530  1.0000
  Fe  Fe581     1.0  0.88307  0.22333  0.22091  1.0000
  C   C3456     1.0  0.89918  0.99323  0.34589  1.0000
  H   H3442     1.0  0.72121  0.99574  0.27388  1.0000
  H   H3443     1.0  0.93260  0.19531  0.20451  1.0000
  S   S1159     1.0  0.49207  0.04034  0.34870  1.0000
  N   N288      1.0  0.64882  0.16653  0.28866  1.0000
  H   H3444     1.0  0.55244  0.13704  0.25131  1.0000
  S   S1160     1.0  0.65259  0.18387  0.34290  1.0000
  H   H3445     1.0  0.82485  0.20585  0.18282  1.0000
  C   C3457     1.0  0.74465  0.09783  0.21982  1.0000
  C   C3458     1.0  0.83527  0.13715  0.27700  1.0000
  H   H3446     1.0  0.82809  0.16687  0.22026  1.0000
  H   H3447     1.0  0.94467  0.97869  0.34330  1.0000
  C   C3459     1.0  0.83309  0.18229  0.17974  1.0000
  S   S1161     1.0  0.98147  0.01368  0.34826  1.0000
  C   C3460     1.0  0.70504  0.17401  0.35420  1.0000
  H   H3448     1.0  0.67652  0.13327  0.28951  1.0000
  H   H3449     1.0  0.75117  0.04631  0.27954  1.0000
  C   C3461     1.0  0.98127  0.07845  0.18491  1.0000
  C   C3462     1.0  0.97312  0.12093  0.19309  1.0000
  C   C3463     1.0  0.57216  0.22690  0.26944  1.0000
  H   H3450     1.0  0.95412  0.99290  0.28468  1.0000
  C   C3464     1.0  0.62115  0.09975  0.28471  1.0000
  H   H3451     1.0  0.94039  0.21247  0.19970  1.0000
  H   H3452     1.0  0.61896  0.09201  0.32281  1.0000
  H   H3453     1.0  0.73578  0.09144  0.22179  1.0000
  H   H3454     1.0  0.81532  0.20514  0.28879  1.0000
  H   H3455     1.0  0.74996  0.10066  0.19516  1.0000
  H   H3456     1.0  0.59998  0.11463  0.31532  1.0000
  S   S1162     1.0  0.50432  0.07736  0.34995  1.0000
  C   C3465     1.0  0.62337  0.09128  0.31083  1.0000
  C   C3466     1.0  0.79805  0.18388  0.34655  1.0000
  H   H3457     1.0  0.69700  0.02977  0.20829  1.0000
  H   H3458     1.0  0.81624  0.99631  0.33975  1.0000
  H   H3459     1.0  0.63626  0.16320  0.33886  1.0000
  C   C3467     1.0  0.64345  0.08026  0.29126  1.0000
  C   C3468     1.0  0.81771  0.15431  0.24241  1.0000
  C   C3469     1.0  0.89191  0.15055  0.16825  1.0000
  C   C3470     1.0  0.65218  0.17239  0.29909  1.0000
  N   N289      1.0  0.77894  0.00749  0.29267  1.0000
  C   C3471     1.0  0.76796  0.00779  0.28517  1.0000
  C   C3472     1.0  0.77997  0.02082  0.29580  1.0000
  S   S1163     1.0  0.77032  0.15336  0.35762  1.0000
  C   C3473     1.0  0.77006  0.03499  0.29104  1.0000
  C   C3474     1.0  0.75897  0.03541  0.28323  1.0000
  C   C3475     1.0  0.49384  0.20714  0.17043  1.0000
  C   C3476     1.0  0.65777  0.15295  0.28481  1.0000
  S   S1164     1.0  0.70769  0.21345  0.34970  1.0000
  C   C3477     1.0  0.72421  0.15563  0.34144  1.0000
  C   C3478     1.0  0.93495  0.19933  0.25392  1.0000
  C   C3479     1.0  0.71031  0.08664  0.18492  1.0000
  C   C3480     1.0  0.66978  0.14431  0.29225  1.0000
  C   C3481     1.0  0.80803  0.21646  0.30790  1.0000
  C   C3482     1.0  0.54500  0.14766  0.25439  1.0000
  N   N290      1.0  0.75932  0.10905  0.22985  1.0000
  C   C3483     1.0  0.76736  0.11402  0.21523  1.0000
  C   C3484     1.0  0.76408  0.11116  0.20254  1.0000
  C   C3485     1.0  0.92636  0.21329  0.24692  1.0000
  C   C3486     1.0  0.76314  0.11169  0.24312  1.0000
  H   H3460     1.0  0.77639  0.12025  0.21328  1.0000
  H   H3461     1.0  0.77043  0.11519  0.19097  1.0000
  H   H3462     1.0  0.52206  0.18072  0.23958  1.0000
  H   H3463     1.0  0.75255  0.11385  0.25234  1.0000
  H   H3464     1.0  0.77129  0.10125  0.24803  1.0000
  H   H3465     1.0  0.77009  0.20235  0.31715  1.0000
  Fe  Fe582     1.0  0.68189  0.21836  0.35140  1.0000
  H   H3466     1.0  0.94938  0.17695  0.25082  1.0000
  H   H3467     1.0  0.83412  0.99438  0.35616  1.0000
  Fe  Fe583     1.0  0.65648  0.20516  0.34774  1.0000
  C   C3487     1.0  0.84501  0.15154  0.25106  1.0000
  H   H3468     1.0  0.76844  0.12191  0.23994  1.0000
  H   H3469     1.0  0.92029  0.22231  0.25331  1.0000
  H   H3470     1.0  0.63974  0.18433  0.27127  1.0000
  C   C3488     1.0  0.81984  0.14648  0.25721  1.0000
  C   C3489     1.0  0.53439  0.16404  0.27284  1.0000
  C   C3490     1.0  0.82957  0.16070  0.23179  1.0000
  C   C3491     1.0  0.80613  0.20788  0.29856  1.0000
  H   H3471     1.0  0.77090  0.04562  0.29340  1.0000
  C   C3492     1.0  0.63519  0.08957  0.28019  1.0000
  N   N291      1.0  0.93263  0.20401  0.22361  1.0000
  H   H3472     1.0  0.81879  0.22020  0.30557  1.0000
  C   C3493     1.0  0.94147  0.19050  0.23023  1.0000
  H   H3473     1.0  0.93448  0.13777  0.17237  1.0000
  C   C3494     1.0  0.93132  0.20650  0.20765  1.0000
  H   H3474     1.0  0.91873  0.22633  0.22624  1.0000
  C   C3495     1.0  0.98130  0.07139  0.27310  1.0000
  H   H3475     1.0  0.94740  0.18148  0.22383  1.0000
  H   H3476     1.0  0.74290  0.17163  0.34407  1.0000
  H   H3477     1.0  0.88914  0.16715  0.18197  1.0000
  C   C3496     1.0  0.96913  0.07698  0.19782  1.0000
  H   H3478     1.0  0.76590  0.20854  0.34371  1.0000
  C   C3497     1.0  0.67289  0.14990  0.30336  1.0000
  C   C3498     1.0  0.82930  0.05709  0.35015  1.0000
  H   H3479     1.0  0.68208  0.14324  0.30930  1.0000
  N   N292      1.0  0.71860  0.02275  0.21504  1.0000
  C   C3499     1.0  0.72256  0.00804  0.21251  1.0000
  C   C3500     1.0  0.72542  0.02646  0.22449  1.0000
  C   C3501     1.0  0.73338  0.99651  0.21979  1.0000
  C   C3502     1.0  0.73622  0.01519  0.23202  1.0000
  C   C3503     1.0  0.74018  0.00011  0.22966  1.0000
  H   H3480     1.0  0.78848  0.02054  0.30200  1.0000
  H   H3481     1.0  0.79208  0.98498  0.28976  1.0000
  H   H3482     1.0  0.74111  0.01806  0.23998  1.0000
  C   C3504     1.0  0.52632  0.17489  0.26234  1.0000
  H   H3483     1.0  0.71249  0.03845  0.19495  1.0000
  H   H3484     1.0  0.79086  0.19599  0.29479  1.0000
  H   H3485     1.0  0.72213  0.03804  0.22670  1.0000
  C   C3505     1.0  0.50911  0.12566  0.35844  1.0000
  H   H3486     1.0  0.71360  0.12653  0.18277  1.0000
  C   C3506     1.0  0.79240  0.20279  0.30191  1.0000
  C   C3507     1.0  0.77849  0.16850  0.35755  1.0000
  H   H3487     1.0  0.63146  0.16741  0.27699  1.0000
  H   H3488     1.0  0.62601  0.18069  0.28944  1.0000
  C   C3508     1.0  0.96471  0.11378  0.17392  1.0000
  H   H3489     1.0  0.91970  0.21362  0.20601  1.0000
  H   H3490     1.0  0.93560  0.19734  0.26585  1.0000
  Fe  Fe584     1.0  0.97382  0.99178  0.35079  1.0000
  H   H3491     1.0  0.98273  0.07664  0.31327  1.0000
  H   H3492     1.0  0.76694  0.99718  0.28294  1.0000
  H   H3493     1.0  0.55144  0.15479  0.22250  1.0000
  C   C3509     1.0  0.92546  0.21550  0.23160  1.0000
  C   C3510     1.0  0.80748  0.12624  0.35974  1.0000
  C   C3511     1.0  0.83316  0.98403  0.35349  1.0000
  S   S1165     1.0  0.67337  0.21854  0.33090  1.0000
  C   C3512     1.0  0.82280  0.11952  0.35372  1.0000
  C   C3513     1.0  0.81430  0.05494  0.35737  1.0000
  H   H3494     1.0  0.97862  0.08371  0.26825  1.0000
  S   S1166     1.0  0.80008  0.20737  0.35796  1.0000
  C   C3514     1.0  0.92011  0.01843  0.35929  1.0000
  S   S1167     1.0  0.95154  0.10608  0.16938  1.0000
  H   H3495     1.0  0.78991  0.06429  0.35830  1.0000
  H   H3496     1.0  0.57040  0.21515  0.27239  1.0000
  H   H3497     1.0  0.78250  0.99439  0.36270  1.0000
  C   C3515     1.0  0.79187  0.19217  0.35829  1.0000
  H   H3498     1.0  0.72855  0.18334  0.35609  1.0000
  H   H3499     1.0  0.73578  0.16314  0.36400  1.0000
  H   H3500     1.0  0.83938  0.09805  0.35122  1.0000
  H   H3501     1.0  0.80359  0.13876  0.35787  1.0000
  H   H3502     1.0  0.82456  0.18321  0.17334  1.0000
  Fe  Fe585     1.0  0.98136  0.12686  0.24514  1.0000
  C   C3516     1.0  0.82761  0.10342  0.35620  1.0000
  C   C3517     1.0  0.89015  0.98216  0.35244  1.0000
  C   C3518     1.0  0.91528  0.98862  0.34434  1.0000
  H   H3503     1.0  0.74719  0.22727  0.36628  1.0000
  S   S1168     1.0  0.52305  0.22714  0.19036  1.0000
  H   H3504     1.0  0.77352  0.22424  0.34395  1.0000
  H   H3505     1.0  0.49535  0.99208  0.27027  1.0000
  Fe  Fe586     1.0  0.48673  0.06635  0.34679  1.0000
  C   C3519     1.0  0.81697  0.09424  0.36467  1.0000
  C   C3520     1.0  0.71277  0.13114  0.17082  1.0000
  H   H3506     1.0  0.50299  0.15036  0.35667  1.0000
  S   S1169     1.0  0.72844  0.06283  0.17115  1.0000
  C   C3521     1.0  0.98556  0.07847  0.21334  1.0000
  C   C3522     1.0  0.96570  0.97781  0.26876  1.0000
  H   H3507     1.0  0.79762  0.22666  0.32763  1.0000
  S   S1170     1.0  0.88852  0.02460  0.36660  1.0000
  H   H3508     1.0  0.87985  0.15403  0.16735  1.0000
  H   H3509     1.0  0.80835  0.00753  0.36950  1.0000
  S   S1171     1.0  0.82948  0.00043  0.39547  1.0000
  S   S1172     1.0  0.76760  0.21933  0.39483  1.0000
  H   H3510     1.0  0.86403  0.04969  0.55911  1.0000
  C   C3523     1.0  0.84361  0.00348  0.45990  1.0000
  H   H3511     1.0  0.51747  0.14078  0.53068  1.0000
  Fe  Fe587     1.0  0.88757  0.00344  0.52494  1.0000
  S   S1173     1.0  0.87682  0.02064  0.50626  1.0000
  S   S1174     1.0  0.91073  0.00500  0.52749  1.0000
  H   H3512     1.0  0.81779  0.22500  0.41342  1.0000
  S   S1175     1.0  0.85045  0.99962  0.51504  1.0000
  C   C3524     1.0  0.79092  0.22199  0.45490  1.0000
  Fe  Fe588     1.0  0.87408  1.00000  0.49969  1.0000
  S   S1176     1.0  0.88267  0.99603  0.47540  1.0000
  Fe  Fe589     1.0  0.85431  0.01879  0.52330  1.0000
  S   S1177     1.0  0.83536  0.03991  0.52687  1.0000
  H   H3513     1.0  0.86576  0.04731  0.44319  1.0000
  S   S1178     1.0  0.86522  0.00314  0.54259  1.0000
  S   S1179     1.0  0.66660  0.20302  0.36793  1.0000
  S   S1180     1.0  0.84694  0.02791  0.39274  1.0000
  S   S1181     1.0  0.48944  0.08583  0.39111  1.0000
  C   C3525     1.0  0.52252  0.13120  0.49652  1.0000
  H   H3514     1.0  0.58630  0.21877  0.39451  1.0000
  Fe  Fe590     1.0  0.58166  0.21913  0.47658  1.0000
  Fe  Fe591     1.0  0.84522  0.00445  0.40786  1.0000
  C   C3526     1.0  0.63964  0.17954  0.46713  1.0000
  Fe  Fe592     1.0  0.64361  0.21341  0.55948  1.0000
  H   H3515     1.0  0.86405  0.03281  0.41859  1.0000
  H   H3516     1.0  0.82431  0.16583  0.56538  1.0000
  H   H3517     1.0  0.79215  0.20954  0.45837  1.0000
  C   C3527     1.0  0.51604  0.11816  0.50193  1.0000
  Fe  Fe593     1.0  0.50516  0.14796  0.45468  1.0000
  S   S1182     1.0  0.52923  0.15176  0.45002  1.0000
  S   S1183     1.0  0.50149  0.12680  0.44984  1.0000
  H   H3518     1.0  0.63865  0.17502  0.45789  1.0000
  S   S1184     1.0  0.60403  0.20204  0.47852  1.0000
  H   H3519     1.0  0.88264  0.07004  0.56502  1.0000
  Fe  Fe594     1.0  0.56312  0.19430  0.48679  1.0000
  S   S1185     1.0  0.58405  0.17492  0.48920  1.0000
  S   S1186     1.0  0.53890  0.19061  0.49187  1.0000
  Fe  Fe595     1.0  0.59057  0.19013  0.50044  1.0000
  S   S1187     1.0  0.60118  0.17940  0.52112  1.0000
  Fe  Fe596     1.0  0.59566  0.18859  0.46704  1.0000
  S   S1188     1.0  0.61185  0.17842  0.44745  1.0000
  S   S1189     1.0  0.56875  0.20863  0.49979  1.0000
  S   S1190     1.0  0.57412  0.20654  0.46349  1.0000
  C   C3528     1.0  0.92369  0.98926  0.37916  1.0000
  C   C3529     1.0  0.79782  0.00409  0.37758  1.0000
  C   C3530     1.0  0.89996  0.01400  0.55535  1.0000
  C   C3531     1.0  0.62322  0.21085  0.53469  1.0000
  C   C3532     1.0  0.86671  0.03459  0.44592  1.0000
  N   N293      1.0  0.51103  0.12132  0.52792  1.0000
  H   H3520     1.0  0.50426  0.10395  0.54770  1.0000
  S   S1191     1.0  0.66093  0.22565  0.56106  1.0000
  H   H3521     1.0  0.83126  0.00770  0.46371  1.0000
  C   C3533     1.0  0.89356  0.02127  0.43679  1.0000
  C   C3534     1.0  0.89939  0.05152  0.53669  1.0000
  H   H3522     1.0  0.88081  0.05687  0.50805  1.0000
  C   C3535     1.0  0.88384  0.05904  0.51765  1.0000
  H   H3523     1.0  0.60672  0.21846  0.39108  1.0000
  H   H3524     1.0  0.82961  0.01886  0.56249  1.0000
  H   H3525     1.0  0.61778  0.17393  0.54479  1.0000
  S   S1192     1.0  0.81274  0.18901  0.52264  1.0000
  H   H3526     1.0  0.77106  0.17298  0.56518  1.0000
  H   H3527     1.0  0.52214  0.08571  0.38732  1.0000
  C   C3536     1.0  0.74542  0.21249  0.49348  1.0000
  C   C3537     1.0  0.85400  0.05384  0.55399  1.0000
  C   C3538     1.0  0.90541  0.01498  0.42552  1.0000
  H   H3528     1.0  0.61869  0.15899  0.49684  1.0000
  H   H3529     1.0  0.64308  0.19590  0.49984  1.0000
  C   C3539     1.0  0.87546  0.07189  0.52390  1.0000
  H   H3530     1.0  0.88463  0.02202  0.39830  1.0000
  H   H3531     1.0  0.79441  0.07181  0.56362  1.0000
  S   S1193     1.0  0.49031  0.14519  0.47843  1.0000
  Fe  Fe597     1.0  0.79838  0.21330  0.52043  1.0000
  C   C3540     1.0  0.61573  0.21656  0.52235  1.0000
  H   H3532     1.0  0.81481  0.97845  0.39181  1.0000
  C   C3541     1.0  0.64682  0.19883  0.47520  1.0000
  H   H3533     1.0  0.52131  0.12275  0.39591  1.0000
  S   S1194     1.0  0.83661  0.00227  0.43357  1.0000
  N   N294      1.0  0.80187  0.10093  0.37024  1.0000
  H   H3534     1.0  0.51523  0.11192  0.49390  1.0000
  H   H3535     1.0  0.53911  0.09293  0.38536  1.0000
  C   C3542     1.0  0.72830  0.20147  0.54768  1.0000
  H   H3536     1.0  0.91696  0.00981  0.42763  1.0000
  S   S1195     1.0  0.81117  0.03891  0.37246  1.0000
  H   H3537     1.0  0.89871  0.99404  0.38533  1.0000
  H   H3538     1.0  0.73380  0.18925  0.54976  1.0000
  H   H3539     1.0  0.79738  0.22350  0.47492  1.0000
  C   C3543     1.0  0.74868  0.21039  0.47846  1.0000
  H   H3540     1.0  0.65122  0.20927  0.47249  1.0000
  H   H3541     1.0  0.62980  0.19096  0.55225  1.0000
  C   C3544     1.0  0.51797  0.12348  0.38535  1.0000
  C   C3545     1.0  0.79054  0.09125  0.37808  1.0000
  H   H3542     1.0  0.49313  0.08990  0.41922  1.0000
  H   H3543     1.0  0.88776  0.98840  0.44626  1.0000
  C   C3546     1.0  0.73746  0.21260  0.54141  1.0000
  H   H3544     1.0  0.90266  0.03887  0.51914  1.0000
  H   H3545     1.0  0.91132  0.01055  0.40266  1.0000
  C   C3547     1.0  0.89601  0.04888  0.52395  1.0000
  S   S1196     1.0  0.48620  0.16437  0.44378  1.0000
  Fe  Fe598     1.0  0.86320  0.98405  0.53304  1.0000
  H   H3546     1.0  0.78322  0.09508  0.38870  1.0000
  C   C3548     1.0  0.87542  0.99265  0.45008  1.0000
  C   C3549     1.0  0.61939  0.19279  0.43264  1.0000
  C   C3550     1.0  0.62799  0.18931  0.41846  1.0000
  C   C3551     1.0  0.63356  0.20094  0.40641  1.0000
  H   H3547     1.0  0.81856  0.19175  0.55007  1.0000
  S   S1197     1.0  0.65874  0.18950  0.56406  1.0000
  C   C3552     1.0  0.61671  0.20781  0.43486  1.0000
  H   H3548     1.0  0.63007  0.17770  0.41667  1.0000
  H   H3549     1.0  0.63978  0.19831  0.39535  1.0000
  H   H3550     1.0  0.87001  0.99137  0.42929  1.0000
  H   H3551     1.0  0.90889  0.04359  0.54149  1.0000
  C   C3553     1.0  0.53171  0.16312  0.46123  1.0000
  C   C3554     1.0  0.54663  0.16471  0.46041  1.0000
  C   C3555     1.0  0.54892  0.17329  0.46966  1.0000
  C   C3556     1.0  0.53627  0.18025  0.47982  1.0000
  C   C3557     1.0  0.52133  0.17874  0.48059  1.0000
  C   C3558     1.0  0.51904  0.17025  0.47127  1.0000
  H   H3552     1.0  0.55646  0.15922  0.45266  1.0000
  H   H3553     1.0  0.56048  0.17440  0.46900  1.0000
  H   H3554     1.0  0.51152  0.18420  0.48836  1.0000
  H   H3555     1.0  0.50747  0.16931  0.47180  1.0000
  H   H3556     1.0  0.50531  0.10323  0.52183  1.0000
  S   S1198     1.0  0.78312  0.21942  0.42969  1.0000
  H   H3557     1.0  0.74997  0.20896  0.53863  1.0000
  H   H3558     1.0  0.51124  0.11839  0.55160  1.0000
  C   C3559     1.0  0.62253  0.21931  0.42298  1.0000
  C   C3560     1.0  0.60960  0.19160  0.52623  1.0000
  C   C3561     1.0  0.61724  0.18582  0.53847  1.0000
  C   C3562     1.0  0.62407  0.19543  0.54269  1.0000
  C   C3563     1.0  0.52309  0.13934  0.50694  1.0000
  C   C3564     1.0  0.63632  0.17810  0.49381  1.0000
  C   C3565     1.0  0.60891  0.20696  0.51811  1.0000
  H   H3559     1.0  0.60308  0.21146  0.50863  1.0000
  H   H3560     1.0  0.87223  0.08388  0.54181  1.0000
  N   N295      1.0  0.89062  0.06371  0.54322  1.0000
  H   H3561     1.0  0.52696  0.13508  0.48426  1.0000
  H   H3562     1.0  0.78505  0.12207  0.37210  1.0000
  C   C3566     1.0  0.90222  0.01531  0.41155  1.0000
  H   H3563     1.0  0.79627  0.07881  0.38148  1.0000
  C   C3567     1.0  0.89370  0.06584  0.55711  1.0000
  H   H3564     1.0  0.86581  0.07976  0.51927  1.0000
  C   C3568     1.0  0.81279  0.16048  0.54183  1.0000
  H   H3565     1.0  0.82199  0.08322  0.55252  1.0000
  Fe  Fe599     1.0  0.78671  0.22341  0.37402  1.0000
  C   C3569     1.0  0.63073  0.21600  0.40865  1.0000
  S   S1199     1.0  0.70087  0.19218  0.56072  1.0000
  H   H3566     1.0  0.82444  0.15699  0.53531  1.0000
  H   H3567     1.0  0.49222  0.12315  0.54727  1.0000
  H   H3568     1.0  0.78752  0.01237  0.37382  1.0000
  C   C3570     1.0  0.83020  0.07262  0.55047  1.0000
  C   C3571     1.0  0.87568  0.02793  0.42059  1.0000
  H   H3569     1.0  0.69263  0.22562  0.55202  1.0000
  H   H3570     1.0  0.84908  0.00538  0.48042  1.0000
  C   C3572     1.0  0.51197  0.13806  0.37693  1.0000
  C   C3573     1.0  0.51036  0.11334  0.51775  1.0000
  C   C3574     1.0  0.91278  0.00980  0.54379  1.0000
  C   C3575     1.0  0.92760  0.01013  0.54478  1.0000
  C   C3576     1.0  0.58699  0.20482  0.56473  1.0000
  H   H3571     1.0  0.94111  0.01511  0.55771  1.0000
  C   C3577     1.0  0.64562  0.19284  0.46340  1.0000
  H   H3572     1.0  0.88848  0.01390  0.55459  1.0000
  H   H3573     1.0  0.93753  0.00698  0.53579  1.0000
  H   H3574     1.0  0.56904  0.19387  0.56502  1.0000
  S   S1200     1.0  0.95541  0.98278  0.37036  1.0000
  C   C3578     1.0  0.90696  0.01297  0.36833  1.0000
  C   C3579     1.0  0.86960  0.99676  0.46445  1.0000
  C   C3580     1.0  0.85366  0.00209  0.46940  1.0000
  C   C3581     1.0  0.90876  0.99836  0.37830  1.0000
  C   C3582     1.0  0.84949  0.99986  0.44532  1.0000
  C   C3583     1.0  0.86542  0.99436  0.44044  1.0000
  H   H3575     1.0  0.80545  0.03790  0.55844  1.0000
  H   H3576     1.0  0.92507  0.97795  0.38684  1.0000
  H   H3577     1.0  0.63680  0.14832  0.48713  1.0000
  C   C3584     1.0  0.51715  0.13427  0.52269  1.0000
  Fe  Fe600     1.0  0.85105  0.98976  0.38029  1.0000
  S   S1201     1.0  0.86677  0.99151  0.39422  1.0000
  C   C3585     1.0  0.52628  0.09520  0.38911  1.0000
  H   H3578     1.0  0.52801  0.14957  0.50280  1.0000
  C   C3586     1.0  0.81709  0.21199  0.55804  1.0000
  N   N296      1.0  0.87890  0.02757  0.43425  1.0000
  H   H3579     1.0  0.77404  0.19502  0.37869  1.0000
  C   C3587     1.0  0.71208  0.20613  0.55161  1.0000
  C   C3588     1.0  0.80639  0.14988  0.55447  1.0000
  H   H3580     1.0  0.74270  0.20317  0.50324  1.0000
  H   H3581     1.0  0.79757  0.00548  0.38919  1.0000
  S   S1202     1.0  0.78051  0.22321  0.50597  1.0000
  C   C3589     1.0  0.88726  0.02177  0.40908  1.0000
  S   S1203     1.0  0.78376  0.22371  0.54047  1.0000
  N   N297      1.0  0.63463  0.17266  0.48219  1.0000
  Fe  Fe601     1.0  0.86733  0.01472  0.37808  1.0000
  H   H3582     1.0  0.52287  0.09480  0.40169  1.0000
  C   C3590     1.0  0.79706  0.11672  0.36787  1.0000
  H   H3583     1.0  0.86917  0.02964  0.45763  1.0000
  C   C3591     1.0  0.84321  0.06739  0.55699  1.0000
  H   H3584     1.0  0.90113  0.07436  0.55394  1.0000
  H   H3585     1.0  0.76243  0.17396  0.37824  1.0000
  C   C3592     1.0  0.87912  0.07414  0.53670  1.0000
  H   H3586     1.0  0.81722  0.21969  0.54677  1.0000
  H   H3587     1.0  0.74855  0.19939  0.47638  1.0000
  H   H3588     1.0  0.51066  0.14844  0.38099  1.0000
  H   H3589     1.0  0.64902  0.19858  0.45143  1.0000
  C   C3593     1.0  0.80420  0.17560  0.53774  1.0000
  C   C3594     1.0  0.78914  0.18008  0.54614  1.0000
  H   H3590     1.0  0.62179  0.15955  0.47681  1.0000
  H   H3591     1.0  0.78238  0.19165  0.54290  1.0000
  C   C3595     1.0  0.77891  0.18868  0.36961  1.0000
  C   C3596     1.0  0.50437  0.11651  0.54439  1.0000
  C   C3597     1.0  0.70506  0.22191  0.54899  1.0000
  C   C3598     1.0  0.85192  0.04565  0.54431  1.0000
  C   C3599     1.0  0.83884  0.05078  0.53788  1.0000
  C   C3600     1.0  0.82803  0.06432  0.54091  1.0000
  H   H3592     1.0  0.59807  0.20603  0.40777  1.0000
  H   H3593     1.0  0.86039  0.03533  0.54193  1.0000
  H   H3594     1.0  0.81795  0.06836  0.53586  1.0000
  C   C3601     1.0  0.78947  0.98499  0.36955  1.0000
  H   H3595     1.0  0.89607  0.02075  0.44772  1.0000
  Fe  Fe602     1.0  0.83279  0.02294  0.37930  1.0000
  H   H3596     1.0  0.85535  0.03225  0.44641  1.0000
  H   H3597     1.0  0.48767  0.11317  0.43006  1.0000
  H   H3598     1.0  0.60998  0.21069  0.44566  1.0000
  H   H3599     1.0  0.59015  0.20811  0.55227  1.0000
  C   C3602     1.0  0.92966  0.01470  0.55719  1.0000
  S   S1204     1.0  0.88661  0.98288  0.51709  1.0000
  H   H3600     1.0  0.78302  0.09208  0.37023  1.0000
  C   C3603     1.0  0.93683  0.99465  0.36991  1.0000
  H   H3601     1.0  0.63272  0.17240  0.50574  1.0000
  H   H3602     1.0  0.75504  0.22089  0.45434  1.0000
  C   C3604     1.0  0.62771  0.15917  0.48592  1.0000
  H   H3603     1.0  0.81305  0.13823  0.55766  1.0000
  C   C3605     1.0  0.64227  0.19136  0.49052  1.0000
  N   N298      1.0  0.51942  0.11032  0.38044  1.0000
  C   C3606     1.0  0.77232  0.17676  0.36931  1.0000
  C   C3607     1.0  0.48848  0.10121  0.41274  1.0000
  N   N299      1.0  0.79800  0.98801  0.37789  1.0000
  C   C3608     1.0  0.75227  0.22247  0.46608  1.0000
  C   C3609     1.0  0.81786  0.19618  0.55999  1.0000
  C   C3610     1.0  0.59587  0.21772  0.40008  1.0000
  C   C3611     1.0  0.78273  0.16949  0.55870  1.0000
  S   S1205     1.0  0.63081  0.22346  0.54018  1.0000
  H   H3604     1.0  0.57829  0.21731  0.42835  1.0000
  H   H3605     1.0  0.89960  0.05472  0.56371  1.0000
  C   C3612     1.0  0.74589  0.22668  0.49588  1.0000
  C   C3613     1.0  0.79136  0.15443  0.56292  1.0000
  Fe  Fe603     1.0  0.64945  0.22532  0.37080  1.0000
  C   C3614     1.0  0.51515  0.11126  0.36714  1.0000
  C   C3615     1.0  0.96218  0.11128  0.75032  1.0000
  S   S1206     1.0  0.95931  0.09129  0.69935  1.0000
  H   H3606     1.0  0.63826  0.11419  0.68558  1.0000
  S   S1207     1.0  0.63081  0.21229  0.58408  1.0000
  H   H3607     1.0  0.66614  0.00542  0.63761  1.0000
  H   H3608     1.0  0.52436  0.18563  0.70661  1.0000
  S   S1208     1.0  0.65867  0.98941  0.67266  1.0000
  C   C3616     1.0  0.81255  0.05108  0.58560  1.0000
  H   H3609     1.0  0.98323  0.12373  0.75347  1.0000
  Fe  Fe604     1.0  0.81631  0.10249  0.61166  1.0000
  S   S1209     1.0  0.79113  0.10897  0.61158  1.0000
  S   S1210     1.0  0.82451  0.10519  0.63117  1.0000
  Fe  Fe605     1.0  0.67511  0.20155  0.56770  1.0000
  H   H3610     1.0  0.83256  0.04191  0.59577  1.0000
  H   H3611     1.0  0.81635  0.18447  0.59801  1.0000
  Fe  Fe606     1.0  0.79881  0.11880  0.58644  1.0000
  Fe  Fe607     1.0  0.79506  0.08672  0.60430  1.0000
  S   S1211     1.0  0.77911  0.07016  0.61422  1.0000
  H   H3612     1.0  0.71131  0.13287  0.61441  1.0000
  S   S1212     1.0  0.81966  0.07912  0.60688  1.0000
  Fe  Fe608     1.0  0.69565  0.09211  0.65602  1.0000
  S   S1213     1.0  0.69661  0.07592  0.67903  1.0000
  S   S1214     1.0  0.71279  0.10663  0.64198  1.0000
  Fe  Fe609     1.0  0.66476  0.08701  0.65553  1.0000
  S   S1215     1.0  0.66278  0.07036  0.67845  1.0000
  S   S1216     1.0  0.64803  0.09438  0.63999  1.0000
  Fe  Fe610     1.0  0.67142  0.08728  0.68556  1.0000
  S   S1217     1.0  0.65973  0.09441  0.70810  1.0000
  Fe  Fe611     1.0  0.68797  0.06042  0.66988  1.0000
  S   S1218     1.0  0.69912  0.03493  0.67208  1.0000
  S   S1219     1.0  0.67115  0.10481  0.66332  1.0000
  S   S1220     1.0  0.68927  0.07575  0.64623  1.0000
  C   C3617     1.0  0.68779  0.11797  0.72458  1.0000
  H   H3613     1.0  0.97435  0.03353  0.76543  1.0000
  Fe  Fe612     1.0  0.56492  0.14886  0.62513  1.0000
  S   S1221     1.0  0.56058  0.12509  0.63637  1.0000
  S   S1222     1.0  0.57984  0.15439  0.60142  1.0000
  Fe  Fe613     1.0  0.54517  0.16280  0.65225  1.0000
  S   S1223     1.0  0.53908  0.14028  0.66592  1.0000
  S   S1224     1.0  0.53817  0.18483  0.66093  1.0000
  Fe  Fe614     1.0  0.56409  0.12988  0.65745  1.0000
  S   S1225     1.0  0.57790  0.11261  0.67375  1.0000
  Fe  Fe615     1.0  0.53592  0.13750  0.64368  1.0000
  S   S1226     1.0  0.51517  0.12818  0.64516  1.0000
  S   S1227     1.0  0.57049  0.15265  0.64565  1.0000
  S   S1228     1.0  0.53988  0.16111  0.63060  1.0000
  S   S1229     1.0  0.84673  0.07797  0.56826  1.0000
  C   C3618     1.0  0.86137  0.21010  0.64466  1.0000
  C   C3619     1.0  0.97893  0.07043  0.61325  1.0000
  H   H3614     1.0  0.91452  0.99774  0.61011  1.0000
  N   N300      1.0  0.85628  0.21305  0.66010  1.0000
  H   H3615     1.0  0.92084  0.09493  0.63698  1.0000
  Fe  Fe616     1.0  0.49390  0.08693  0.59586  1.0000
  S   S1230     1.0  0.51615  0.09359  0.59438  1.0000
  H   H3616     1.0  0.90327  0.98319  0.61493  1.0000
  C   C3620     1.0  0.61779  0.13016  0.67891  1.0000
  S   S1231     1.0  0.56807  0.17947  0.71647  1.0000
  H   H3617     1.0  0.97243  0.05348  0.60564  1.0000
  S   S1232     1.0  0.66499  0.19952  0.59294  1.0000
  S   S1233     1.0  0.49133  0.07736  0.57704  1.0000
  C   C3621     1.0  0.82470  0.02762  0.56937  1.0000
  C   C3622     1.0  0.98341  0.07726  0.73303  1.0000
  C   C3623     1.0  0.67212  0.01434  0.63680  1.0000
  Fe  Fe617     1.0  0.64742  0.18948  0.58885  1.0000
  S   S1234     1.0  0.64085  0.16883  0.60655  1.0000
  C   C3624     1.0  0.91685  0.01905  0.56865  1.0000
  H   H3618     1.0  0.55402  0.08468  0.62689  1.0000
  C   C3625     1.0  0.81660  0.19212  0.58672  1.0000
  S   S1235     1.0  0.95161  0.03931  0.63193  1.0000
  Fe  Fe618     1.0  0.81836  0.18434  0.68127  1.0000
  S   S1236     1.0  0.79841  0.18442  0.70195  1.0000
  Fe  Fe619     1.0  0.85106  0.16788  0.66942  1.0000
  S   S1237     1.0  0.86989  0.14936  0.67890  1.0000
  Fe  Fe620     1.0  0.82805  0.17853  0.64903  1.0000
  S   S1238     1.0  0.81958  0.17543  0.62978  1.0000
  S   S1239     1.0  0.82797  0.16263  0.67226  1.0000
  H   H3619     1.0  0.48863  0.18363  0.74538  1.0000
  S   S1240     1.0  0.96784  0.13015  0.67288  1.0000
  H   H3620     1.0  0.71513  0.07530  0.75441  1.0000
  H   H3621     1.0  0.86459  0.16147  0.70748  1.0000
  Fe  Fe621     1.0  0.95730  0.13417  0.65262  1.0000
  S   S1241     1.0  0.93870  0.15499  0.64599  1.0000
  S   S1242     1.0  0.95465  0.10977  0.65675  1.0000
  C   C3626     1.0  0.88895  0.15159  0.67038  1.0000
  C   C3627     1.0  0.90135  0.14032  0.67545  1.0000
  C   C3628     1.0  0.91670  0.14146  0.66826  1.0000
  C   C3629     1.0  0.91967  0.15398  0.65611  1.0000
  C   C3630     1.0  0.90726  0.16541  0.65126  1.0000
  C   C3631     1.0  0.89191  0.16422  0.65836  1.0000
  H   H3622     1.0  0.89910  0.13055  0.68479  1.0000
  H   H3623     1.0  0.92624  0.13261  0.67207  1.0000
  H   H3624     1.0  0.90955  0.17507  0.64179  1.0000
  H   H3625     1.0  0.88242  0.17293  0.65440  1.0000
  C   C3632     1.0  0.62630  0.12888  0.70170  1.0000
  C   C3633     1.0  0.75911  0.20175  0.72228  1.0000
  H   H3626     1.0  0.70363  0.07694  0.72077  1.0000
  S   S1243     1.0  0.54678  0.22311  0.72116  1.0000
  H   H3627     1.0  0.86088  0.17191  0.73074  1.0000
  S   S1244     1.0  0.84147  0.18839  0.68016  1.0000
  C   C3634     1.0  0.84051  0.22097  0.66611  1.0000
  C   C3635     1.0  0.81593  0.20088  0.72810  1.0000
  C   C3636     1.0  0.75670  0.19007  0.71683  1.0000
  S   S1245     1.0  0.57352  0.20525  0.74120  1.0000
  H   H3628     1.0  0.58427  0.14169  0.67760  1.0000
  C   C3637     1.0  0.70169  0.13722  0.60865  1.0000
  C   C3638     1.0  0.59795  0.15668  0.60200  1.0000
  C   C3639     1.0  0.60618  0.16583  0.58941  1.0000
  C   C3640     1.0  0.61946  0.16961  0.59067  1.0000
  C   C3641     1.0  0.62479  0.16374  0.60434  1.0000
  C   C3642     1.0  0.61713  0.15379  0.61655  1.0000
  C   C3643     1.0  0.60368  0.15036  0.61540  1.0000
  H   H3629     1.0  0.60203  0.17041  0.57885  1.0000
  H   H3630     1.0  0.67203  0.98054  0.70515  1.0000
  H   H3631     1.0  0.62140  0.14899  0.62703  1.0000
  H   H3632     1.0  0.59779  0.14275  0.62486  1.0000
  C   C3644     1.0  0.54685  0.18335  0.67607  1.0000
  C   C3645     1.0  0.54685  0.19679  0.68037  1.0000
  C   C3646     1.0  0.55328  0.19572  0.69282  1.0000
  C   C3647     1.0  0.55975  0.18120  0.70098  1.0000
  C   C3648     1.0  0.55986  0.16777  0.69657  1.0000
  C   C3649     1.0  0.55344  0.16883  0.68414  1.0000
  H   H3633     1.0  0.54196  0.20803  0.67399  1.0000
  H   H3634     1.0  0.55350  0.20613  0.69591  1.0000
  H   H3635     1.0  0.56468  0.15649  0.70294  1.0000
  H   H3636     1.0  0.55339  0.15840  0.68095  1.0000
  C   C3650     1.0  0.51531  0.11947  0.63041  1.0000
  C   C3651     1.0  0.50262  0.11332  0.63152  1.0000
  C   C3652     1.0  0.50271  0.10551  0.62043  1.0000
  C   C3653     1.0  0.51559  0.10368  0.60823  1.0000
  C   C3654     1.0  0.52832  0.10977  0.60715  1.0000
  C   C3655     1.0  0.52816  0.11771  0.61817  1.0000
  S   S1246     1.0  0.82396  0.11415  0.58705  1.0000
  H   H3637     1.0  0.69156  0.98463  0.67151  1.0000
  H   H3638     1.0  0.53828  0.10842  0.59770  1.0000
  H   H3639     1.0  0.53801  0.12240  0.61722  1.0000
  C   C3656     1.0  0.66986  0.00140  0.67410  1.0000
  C   C3657     1.0  0.68587  0.99630  0.67287  1.0000
  C   C3658     1.0  0.69467  0.00654  0.67287  1.0000
  C   C3659     1.0  0.68754  0.02194  0.67393  1.0000
  C   C3660     1.0  0.67147  0.02688  0.67561  1.0000
  C   C3661     1.0  0.66265  0.01661  0.67574  1.0000
  C   C3662     1.0  0.75354  0.21706  0.74179  1.0000
  H   H3640     1.0  0.70711  0.00266  0.67159  1.0000
  H   H3641     1.0  0.66584  0.03863  0.67665  1.0000
  H   H3642     1.0  0.65024  0.02057  0.67682  1.0000
  C   C3663     1.0  0.62858  0.09930  0.64954  1.0000
  C   C3664     1.0  0.62410  0.09476  0.66556  1.0000
  C   C3665     1.0  0.60845  0.09868  0.67298  1.0000
  C   C3666     1.0  0.59735  0.10739  0.66441  1.0000
  C   C3667     1.0  0.60183  0.11196  0.64842  1.0000
  C   C3668     1.0  0.61742  0.10785  0.64098  1.0000
  H   H3643     1.0  0.63262  0.08814  0.67225  1.0000
  H   H3644     1.0  0.60499  0.09511  0.68537  1.0000
  H   H3645     1.0  0.59329  0.11857  0.64174  1.0000
  H   H3646     1.0  0.62084  0.11143  0.62858  1.0000
  C   C3669     1.0  0.68405  0.10785  0.70452  1.0000
  C   C3670     1.0  0.67036  0.10395  0.71407  1.0000
  C   C3671     1.0  0.96162  0.05379  0.62941  1.0000
  Fe  Fe622     1.0  0.95689  0.02955  0.61090  1.0000
  H   H3647     1.0  0.68797  0.10549  0.69309  1.0000
  H   H3648     1.0  0.78347  0.05697  0.56814  1.0000
  N   N301      1.0  0.82888  0.15515  0.72590  1.0000
  C   C3672     1.0  0.82361  0.12470  0.63031  1.0000
  C   C3673     1.0  0.83038  0.12845  0.64017  1.0000
  C   C3674     1.0  0.82933  0.14402  0.63993  1.0000
  C   C3675     1.0  0.82122  0.15587  0.63005  1.0000
  C   C3676     1.0  0.81432  0.15210  0.62028  1.0000
  C   C3677     1.0  0.81566  0.13654  0.62028  1.0000
  H   H3649     1.0  0.83656  0.11931  0.64792  1.0000
  H   H3650     1.0  0.83488  0.14680  0.64733  1.0000
  H   H3651     1.0  0.80775  0.16118  0.61286  1.0000
  H   H3652     1.0  0.81030  0.13372  0.61271  1.0000
  H   H3653     1.0  0.95020  0.13635  0.61428  1.0000
  H   H3654     1.0  0.72126  0.21645  0.57316  1.0000
  C   C3678     1.0  0.75996  0.08008  0.62029  1.0000
  C   C3679     1.0  0.75599  0.09627  0.61632  1.0000
  C   C3680     1.0  0.74130  0.10430  0.62270  1.0000
  C   C3681     1.0  0.73041  0.09618  0.63291  1.0000
  C   C3682     1.0  0.73405  0.07995  0.63634  1.0000
  C   C3683     1.0  0.74884  0.07190  0.62998  1.0000
  H   H3655     1.0  0.76426  0.10266  0.60838  1.0000
  H   H3656     1.0  0.73852  0.11685  0.61991  1.0000
  H   H3657     1.0  0.72566  0.07362  0.64421  1.0000
  H   H3658     1.0  0.75183  0.05936  0.63302  1.0000
  C   C3684     1.0  0.70877  0.08286  0.74547  1.0000
  H   H3659     1.0  0.49292  0.10074  0.62140  1.0000
  C   C3685     1.0  0.59503  0.20819  0.57367  1.0000
  H   H3660     1.0  0.59309  0.15620  0.69867  1.0000
  H   H3661     1.0  0.82027  0.20062  0.70414  1.0000
  S   S1247     1.0  0.80088  0.09688  0.57902  1.0000
  H   H3662     1.0  0.58104  0.08625  0.65736  1.0000
  C   C3686     1.0  0.51247  0.19071  0.70550  1.0000
  Fe  Fe623     1.0  0.94281  0.02253  0.58811  1.0000
  C   C3687     1.0  0.80149  0.18966  0.71747  1.0000
  C   C3688     1.0  0.79209  0.18596  0.73214  1.0000
  C   C3689     1.0  0.79446  0.18991  0.74473  1.0000
  H   H3663     1.0  0.78316  0.17974  0.73388  1.0000
  H   H3664     1.0  0.65478  0.13708  0.62431  1.0000
  C   C3690     1.0  0.52791  0.09800  0.67337  1.0000
  H   H3665     1.0  0.61952  0.12591  0.66861  1.0000
  C   C3691     1.0  0.96762  0.07245  0.63976  1.0000
  C   C3692     1.0  0.96611  0.99738  0.64518  1.0000
  C   C3693     1.0  0.55617  0.09136  0.66548  1.0000
  H   H3666     1.0  0.84396  0.15087  0.70466  1.0000
  C   C3694     1.0  0.49113  0.21235  0.70455  1.0000
  C   C3695     1.0  0.97118  0.05866  0.61519  1.0000
  H   H3667     1.0  0.80799  0.06035  0.59184  1.0000
  C   C3696     1.0  0.94983  0.11276  0.61524  1.0000
  C   C3697     1.0  0.67202  0.06431  0.74406  1.0000
  N   N302      1.0  0.57947  0.19560  0.59665  1.0000
  S   S1248     1.0  0.81076  0.20060  0.75860  1.0000
  H   H3668     1.0  0.50688  0.19825  0.74695  1.0000
  H   H3669     1.0  0.56835  0.18192  0.61736  1.0000
  H   H3670     1.0  0.93792  0.99261  0.58491  1.0000
  H   H3671     1.0  0.69466  0.99889  0.63523  1.0000
  H   H3672     1.0  0.59479  0.17363  0.76567  1.0000
  C   C3698     1.0  0.81575  0.20788  0.58520  1.0000
  Fe  Fe624     1.0  0.64937  0.22254  0.58612  1.0000
  H   H3673     1.0  0.74908  0.21561  0.75447  1.0000
  Fe  Fe625     1.0  0.82540  0.09112  0.58207  1.0000
  H   H3674     1.0  0.56224  0.18612  0.59341  1.0000
  H   H3675     1.0  0.94421  0.01089  0.65492  1.0000
  C   C3699     1.0  0.67314  0.06676  0.75788  1.0000
  C   C3700     1.0  0.94702  0.11180  0.73268  1.0000
  N   N303      1.0  0.60532  0.14180  0.68257  1.0000
  H   H3676     1.0  0.97917  0.00425  0.75102  1.0000
  S   S1249     1.0  0.98025  0.13040  0.63599  1.0000
  C   C3701     1.0  0.85004  0.21543  0.63409  1.0000
  H   H3677     1.0  0.71720  0.08455  0.73426  1.0000
  H   H3678     1.0  0.78400  0.06552  0.58307  1.0000
  C   C3702     1.0  0.56921  0.08463  0.64095  1.0000
  H   H3679     1.0  0.96955  0.00719  0.63649  1.0000
  C   C3703     1.0  0.84228  0.15535  0.71481  1.0000
  H   H3680     1.0  0.81486  0.21228  0.59520  1.0000
  H   H3681     1.0  0.94705  0.98047  0.62569  1.0000
  H   H3682     1.0  0.82407  0.16262  0.58536  1.0000
  H   H3683     1.0  0.58888  0.16059  0.67258  1.0000
  C   C3704     1.0  0.69034  0.22131  0.60289  1.0000
  H   H3684     1.0  0.80598  0.16826  0.57904  1.0000
  C   C3705     1.0  0.49556  0.20437  0.74475  1.0000
  H   H3685     1.0  0.96411  0.10777  0.76193  1.0000
  C   C3706     1.0  0.57581  0.19053  0.61348  1.0000
  H   H3686     1.0  0.86263  0.20880  0.68164  1.0000
  C   C3707     1.0  0.85196  0.16709  0.72942  1.0000
  H   H3687     1.0  0.81591  0.15172  0.71184  1.0000
  C   C3708     1.0  0.95184  0.99944  0.65556  1.0000
  Fe  Fe626     1.0  0.55405  0.20351  0.76204  1.0000
  N   N304      1.0  0.54210  0.09298  0.66228  1.0000
  C   C3709     1.0  0.83838  0.16657  0.74081  1.0000
  C   C3710     1.0  0.69270  0.11492  0.70975  1.0000
  H   H3688     1.0  0.68740  0.12290  0.62567  1.0000
  C   C3711     1.0  0.97939  0.03257  0.75325  1.0000
  C   C3712     1.0  0.94753  0.98668  0.66669  1.0000
  S   S1250     1.0  0.85197  0.18202  0.64543  1.0000
  C   C3713     1.0  0.73867  0.19782  0.74419  1.0000
  H   H3689     1.0  0.94626  0.08970  0.61905  1.0000
  H   H3690     1.0  0.59906  0.14675  0.66085  1.0000
  H   H3691     1.0  0.66992  0.11682  0.74533  1.0000
  H   H3692     1.0  0.57978  0.08177  0.63247  1.0000
  H   H3693     1.0  0.52706  0.11008  0.67409  1.0000
  H   H3694     1.0  0.72689  0.17994  0.74591  1.0000
  H   H3695     1.0  0.63452  0.12378  0.70915  1.0000
  C   C3714     1.0  0.67681  0.14800  0.59435  1.0000
  C   C3715     1.0  0.93916  0.98091  0.59190  1.0000
  C   C3716     1.0  0.57131  0.19254  0.58797  1.0000
  C   C3717     1.0  0.50376  0.18143  0.70358  1.0000
  H   H3696     1.0  0.53015  0.09177  0.64610  1.0000
  S   S1251     1.0  0.69916  0.12630  0.73104  1.0000
  H   H3697     1.0  0.60447  0.21414  0.56816  1.0000
  C   C3718     1.0  0.82696  0.16038  0.73892  1.0000
  C   C3719     1.0  0.69533  0.07377  0.73133  1.0000
  S   S1252     1.0  0.81641  0.19986  0.65832  1.0000
  H   H3698     1.0  0.87470  0.21873  0.66513  1.0000
  H   H3699     1.0  0.69068  0.16297  0.57729  1.0000
  H   H3700     1.0  0.68228  0.06617  0.71985  1.0000
  C   C3720     1.0  0.95988  0.06067  0.64169  1.0000
  Fe  Fe627     1.0  0.84092  0.20429  0.65565  1.0000
  H   H3701     1.0  0.89203  0.02211  0.57655  1.0000
  C   C3721     1.0  0.67403  0.11414  0.73406  1.0000
  C   C3722     1.0  0.55480  0.08627  0.63781  1.0000
  H   H3702     1.0  0.55682  0.09369  0.67611  1.0000
  C   C3723     1.0  0.66171  0.13111  0.61485  1.0000
  N   N305      1.0  0.50610  0.20593  0.70604  1.0000
  C   C3724     1.0  0.62844  0.12352  0.68841  1.0000
  H   H3703     1.0  0.83737  0.22379  0.67734  1.0000
  S   S1253     1.0  0.96555  0.00863  0.57728  1.0000
  C   C3725     1.0  0.97366  0.08793  0.70961  1.0000
  N   N306      1.0  0.75045  0.20515  0.73604  1.0000
  C   C3726     1.0  0.97710  0.07738  0.62551  1.0000
  C   C3727     1.0  0.61354  0.14074  0.70536  1.0000
  H   H3704     1.0  0.59762  0.20578  0.59661  1.0000
  C   C3728     1.0  0.81690  0.14858  0.72408  1.0000
  Fe  Fe628     1.0  0.96860  0.99848  0.60155  1.0000
  C   C3729     1.0  0.92704  0.10418  0.63171  1.0000
  S   S1254     1.0  0.53991  0.19476  0.75139  1.0000
  N   N307      1.0  0.67113  0.04045  0.63772  1.0000
  C   C3730     1.0  0.68679  0.03688  0.63670  1.0000
  C   C3731     1.0  0.66373  0.02937  0.63798  1.0000
  C   C3732     1.0  0.69553  0.02197  0.63550  1.0000
  C   C3733     1.0  0.97588  0.98267  0.64598  1.0000
  N   N308      1.0  0.80498  0.04987  0.57536  1.0000
  C   C3734     1.0  0.66217  0.05599  0.63952  1.0000
  H   H3705     1.0  0.69255  0.04541  0.63731  1.0000
  H   H3706     1.0  0.65123  0.03196  0.63952  1.0000
  H   H3707     1.0  0.95510  0.12289  0.70912  1.0000
  H   H3708     1.0  0.90828  0.99340  0.59530  1.0000
  C   C3735     1.0  0.71309  0.22171  0.58221  1.0000
  H   H3709     1.0  0.66839  0.06501  0.63180  1.0000
  H   H3710     1.0  0.65068  0.05870  0.63654  1.0000
  H   H3711     1.0  0.66026  0.05702  0.65160  1.0000
  C   C3736     1.0  0.59384  0.14802  0.67293  1.0000
  C   C3737     1.0  0.68813  0.13155  0.61494  1.0000
  N   N309      1.0  0.92091  0.11860  0.63493  1.0000
  H   H3712     1.0  0.52284  0.20891  0.71615  1.0000
  C   C3738     1.0  0.96933  0.12335  0.72394  1.0000
  H   H3713     1.0  0.48601  0.22439  0.70509  1.0000
  H   H3714     1.0  0.56968  0.20059  0.61888  1.0000
  H   H3715     1.0  0.87611  0.19813  0.66799  1.0000
  H   H3716     1.0  0.65471  0.10424  0.73622  1.0000
  H   H3717     1.0  0.71304  0.15314  0.59001  1.0000
  Fe  Fe629     1.0  0.97565  0.02762  0.57878  1.0000
  C   C3739     1.0  0.94364  0.12732  0.61883  1.0000
  H   H3718     1.0  0.95252  0.05690  0.65272  1.0000
  H   H3719     1.0  0.93641  0.98836  0.67473  1.0000
  H   H3720     1.0  0.96194  0.07439  0.73020  1.0000
  H   H3721     1.0  0.66709  0.15242  0.58872  1.0000
  H   H3722     1.0  0.49275  0.11451  0.64106  1.0000
  C   C3740     1.0  0.81096  0.03843  0.56716  1.0000
  H   H3723     1.0  0.65434  0.13335  0.60645  1.0000
  C   C3741     1.0  0.86801  0.20945  0.66922  1.0000
  H   H3724     1.0  0.94233  0.10092  0.75689  1.0000
  C   C3742     1.0  0.81328  0.19731  0.71544  1.0000
  C   C3743     1.0  0.56994  0.08710  0.65491  1.0000
  C   C3744     1.0  0.90200  0.01867  0.56773  1.0000
  Fe  Fe630     1.0  0.96712  0.10531  0.67572  1.0000
  H   H3725     1.0  0.74324  0.17287  0.72142  1.0000
  Fe  Fe631     1.0  0.55848  0.19851  0.72989  1.0000
  H   H3726     1.0  0.52796  0.09025  0.68493  1.0000
  C   C3745     1.0  0.85400  0.16134  0.71637  1.0000
  H   H3727     1.0  0.76623  0.21621  0.73963  1.0000
  H   H3728     1.0  0.90065  0.13401  0.64468  1.0000
  H   H3729     1.0  0.87338  0.20493  0.64031  1.0000
  C   C3746     1.0  0.94146  0.10112  0.62163  1.0000
  H   H3730     1.0  0.98204  0.07079  0.74475  1.0000
  H   H3731     1.0  0.50892  0.16940  0.70304  1.0000
  H   H3732     1.0  0.83654  0.17119  0.75094  1.0000
  C   C3747     1.0  0.95681  0.11991  0.72081  1.0000
  C   C3748     1.0  0.74512  0.18209  0.72540  1.0000
  Fe  Fe632     1.0  0.97861  0.10552  0.64180  1.0000
  S   S1255     1.0  0.94516  0.01085  0.61230  1.0000
  H   H3733     1.0  0.90768  0.11661  0.65782  1.0000
  C   C3749     1.0  0.83368  0.22370  0.63987  1.0000
  C   C3750     1.0  0.90598  0.12141  0.64585  1.0000
  H   H3734     1.0  0.89760  0.11590  0.64390  1.0000
  S   S1256     1.0  0.95260  0.04252  0.58760  1.0000
  N   N310      1.0  0.67596  0.13686  0.60772  1.0000
  H   H3735     1.0  0.84342  0.02077  0.58121  1.0000
  H   H3736     1.0  0.93768  0.10852  0.73021  1.0000
  C   C3751     1.0  0.60305  0.14705  0.69565  1.0000
  H   H3737     1.0  0.76831  0.20772  0.71565  1.0000
  H   H3738     1.0  0.52331  0.21918  0.69633  1.0000
  H   H3739     1.0  0.85385  0.21390  0.62232  1.0000
  H   H3740     1.0  0.96121  0.11041  0.60772  1.0000
  C   C3752     1.0  0.66531  0.10720  0.72880  1.0000
  C   C3753     1.0  0.97204  0.07930  0.72479  1.0000
  H   H3741     1.0  0.70327  0.11797  0.70231  1.0000
  Fe  Fe633     1.0  0.69597  0.12226  0.75681  1.0000
  N   N311      1.0  0.77675  0.10906  0.65125  1.0000
  C   C3754     1.0  0.78536  0.09455  0.64982  1.0000
  C   C3755     1.0  0.76092  0.11216  0.65378  1.0000
  C   C3756     1.0  0.77809  0.08260  0.65128  1.0000
  C   C3757     1.0  0.75327  0.10040  0.65557  1.0000
  C   C3758     1.0  0.76195  0.08553  0.65440  1.0000
  C   C3759     1.0  0.78458  0.12161  0.64901  1.0000
  H   H3742     1.0  0.79793  0.09224  0.64720  1.0000
  H   H3743     1.0  0.75411  0.12378  0.65432  1.0000
  H   H3744     1.0  0.78493  0.07123  0.64966  1.0000
  H   H3745     1.0  0.74071  0.10289  0.65747  1.0000
  H   H3746     1.0  0.75618  0.07637  0.65550  1.0000
  H   H3747     1.0  0.77740  0.13044  0.65571  1.0000
  H   H3748     1.0  0.79575  0.11710  0.65283  1.0000
  H   H3749     1.0  0.78710  0.12731  0.63660  1.0000
  C   C3760     1.0  0.68326  0.06768  0.73073  1.0000
  C   C3761     1.0  0.92901  0.13009  0.62862  1.0000
  C   C3762     1.0  0.54129  0.09038  0.64871  1.0000
  N   N312      1.0  0.97180  0.11915  0.73858  1.0000
  C   C3763     1.0  0.48839  0.18780  0.70235  1.0000
  C   C3764     1.0  0.81803  0.17000  0.57611  1.0000
  H   H3750     1.0  0.70785  0.01909  0.63523  1.0000
  H   H3751     1.0  0.61169  0.14499  0.71569  1.0000
  H   H3752     1.0  0.70372  0.09442  0.74834  1.0000
  H   H3753     1.0  0.92427  0.14148  0.63122  1.0000
  N   N313      1.0  0.81775  0.18644  0.57417  1.0000
  C   C3765     1.0  0.73596  0.18604  0.73913  1.0000
  H   H3754     1.0  0.81643  0.16009  0.74783  1.0000
  H   H3755     1.0  0.51732  0.09804  0.66981  1.0000
  H   H3756     1.0  0.78725  0.18691  0.75604  1.0000
  H   H3757     1.0  0.66438  0.11840  0.61959  1.0000
  H   H3758     1.0  0.69964  0.20416  0.58890  1.0000
  N   N314      1.0  0.69633  0.07615  0.74493  1.0000
  C   C3766     1.0  0.94969  0.10745  0.74755  1.0000
  C   C3767     1.0  0.80656  0.19714  0.74275  1.0000
  C   C3768     1.0  0.83248  0.02877  0.57980  1.0000
  H   H3759     1.0  0.96623  0.07772  0.64927  1.0000
  C   C3769     1.0  0.70095  0.21461  0.59121  1.0000
  H   H3760     1.0  0.97015  0.03160  0.74824  1.0000
  S   S1257     1.0  0.78321  0.14172  0.57907  1.0000
  S   S1258     1.0  0.91894  0.02525  0.58411  1.0000
  H   H3761     1.0  0.62552  0.17709  0.58111  1.0000
  C   C3770     1.0  0.51564  0.21551  0.70761  1.0000
  C   C3771     1.0  0.59108  0.20347  0.58973  1.0000
  H   H3762     1.0  0.82523  0.20659  0.72656  1.0000
  H   H3763     1.0  0.76398  0.18708  0.70615  1.0000
  H   H3764     1.0  0.58662  0.18469  0.61775  1.0000
  H   H3765     1.0  0.81979  0.13575  0.72789  1.0000
  H   H3766     1.0  0.80530  0.15324  0.73084  1.0000
  C   C3772     1.0  0.68812  0.01066  0.63553  1.0000
  C   C3773     1.0  0.70265  0.14854  0.59500  1.0000
  C   C3774     1.0  0.82880  0.22652  0.65605  1.0000
  C   C3775     1.0  0.69013  0.15402  0.58781  1.0000
  C   C3776     1.0  0.68547  0.07269  0.75811  1.0000
  H   H3767     1.0  0.73135  0.20098  0.75474  1.0000
  C   C3777     1.0  0.82641  0.04059  0.58795  1.0000
  H   H3768     1.0  0.50841  0.22605  0.71177  1.0000
  S   S1259     1.0  0.98067  0.01628  0.60212  1.0000
  C   C3778     1.0  0.79103  0.06161  0.57236  1.0000
  C   C3779     1.0  0.49124  0.22052  0.74276  1.0000
  C   C3780     1.0  0.81599  0.21786  0.57074  1.0000
  H   H3769     1.0  0.66235  0.06005  0.74359  1.0000
  H   H3770     1.0  0.68058  0.21621  0.60969  1.0000
  Fe  Fe634     1.0  0.52918  0.21985  0.74345  1.0000
  H   H3771     1.0  0.98320  0.04342  0.74659  1.0000
  C   C3781     1.0  0.91254  0.98824  0.60613  1.0000
  H   H3772     1.0  0.59706  0.20059  0.76255  1.0000
  C   C3782     1.0  0.57507  0.19693  0.57189  1.0000
  H   H3773     1.0  0.97720  0.12916  0.71452  1.0000
  H   H3774     1.0  0.51007  0.99226  0.57691  1.0000
  S   S1260     1.0  0.71650  0.10772  0.76636  1.0000
  C   C3783     1.0  0.51231  0.97960  0.57756  1.0000
  C   C3784     1.0  0.98538  0.12227  0.74149  1.0000
  Fe  Fe635     1.0  0.77825  0.18736  0.81209  1.0000
  S   S1261     1.0  0.79208  0.20559  0.80073  1.0000
  S   S1262     1.0  0.78286  0.16894  0.83291  1.0000
  H   H3775     1.0  0.70233  0.05644  0.85663  1.0000
  S   S1263     1.0  0.73527  0.19701  0.78434  1.0000
  H   H3776     1.0  0.73960  0.02086  0.83033  1.0000
  Fe  Fe636     1.0  0.86354  0.12973  0.84557  1.0000
  S   S1264     1.0  0.87768  0.10536  0.85065  1.0000
  S   S1265     1.0  0.85454  0.13944  0.82389  1.0000
  Fe  Fe637     1.0  0.86858  0.13842  0.87281  1.0000
  S   S1266     1.0  0.88301  0.11483  0.88010  1.0000
  S   S1267     1.0  0.86440  0.15872  0.88377  1.0000
  Fe  Fe638     1.0  0.89418  0.11652  0.85520  1.0000
  S   S1268     1.0  0.92015  0.10984  0.85026  1.0000
  Fe  Fe639     1.0  0.86513  0.10595  0.87508  1.0000
  S   S1269     1.0  0.85827  0.08520  0.89239  1.0000
  S   S1270     1.0  0.88120  0.14085  0.84811  1.0000
  S   S1271     1.0  0.84957  0.12948  0.86975  1.0000
  Fe  Fe640     1.0  0.85147  0.98595  0.88426  1.0000
  S   S1272     1.0  0.83017  0.99950  0.87550  1.0000
  Fe  Fe641     1.0  0.84243  0.00106  0.91156  1.0000
  S   S1273     1.0  0.81999  0.01553  0.90561  1.0000
  Fe  Fe642     1.0  0.81785  0.99402  0.90022  1.0000
  H   H3777     1.0  0.82229  0.03279  0.92775  1.0000
  Fe  Fe643     1.0  0.83435  0.01971  0.88155  1.0000
  S   S1274     1.0  0.83210  0.04360  0.86645  1.0000
  H   H3778     1.0  0.92094  0.16667  0.89307  1.0000
  S   S1275     1.0  0.85699  0.00673  0.88783  1.0000
  H   H3779     1.0  0.70910  0.15877  0.78126  1.0000
  S   S1276     1.0  0.95073  0.08117  0.79145  1.0000
  H   H3780     1.0  0.71988  0.00549  0.91187  1.0000
  H   H3781     1.0  0.74731  0.03194  0.81204  1.0000
  Fe  Fe644     1.0  0.91088  0.16399  0.93726  1.0000
  S   S1277     1.0  0.90739  0.14385  0.93050  1.0000
  S   S1278     1.0  0.60449  0.19145  0.84602  1.0000
  H   H3782     1.0  0.89778  0.16503  0.85935  1.0000
  Fe  Fe645     1.0  0.62723  0.19420  0.84826  1.0000
  S   S1279     1.0  0.65090  0.17851  0.84395  1.0000
  S   S1280     1.0  0.79632  0.98450  0.90727  1.0000
  Fe  Fe646     1.0  0.79037  0.20124  0.77870  1.0000
  H   H3783     1.0  0.72275  0.03362  0.85063  1.0000
  Fe  Fe647     1.0  0.76896  0.22182  0.79999  1.0000
  S   S1281     1.0  0.88381  0.21992  0.93693  1.0000
  S   S1282     1.0  0.70728  0.06940  0.78857  1.0000
  H   H3784     1.0  0.90471  0.18029  0.87379  1.0000
  C   C3785     1.0  0.74747  0.16612  0.78441  1.0000
  H   H3785     1.0  0.62245  0.22249  0.88558  1.0000
  C   C3786     1.0  0.82426  0.20723  0.84427  1.0000
  S   S1283     1.0  0.65266  0.13519  0.80106  1.0000
  C   C3787     1.0  0.90909  0.16784  0.87558  1.0000
  S   S1284     1.0  0.85043  0.00328  0.93143  1.0000
  S   S1285     1.0  0.69525  0.11074  0.80072  1.0000
  H   H3786     1.0  0.71093  0.18537  0.78071  1.0000
  Fe  Fe648     1.0  0.72868  0.00284  0.86960  1.0000
  S   S1286     1.0  0.71781  0.00081  0.85161  1.0000
  S   S1287     1.0  0.75021  0.01243  0.86235  1.0000
  Fe  Fe649     1.0  0.70205  0.99427  0.89585  1.0000
  S   S1288     1.0  0.68867  0.99173  0.88022  1.0000
  S   S1289     1.0  0.69483  0.98909  0.92167  1.0000
  C   C3788     1.0  0.61634  0.16774  0.79204  1.0000
  Fe  Fe650     1.0  0.69581  0.01337  0.86490  1.0000
  S   S1290     1.0  0.67919  0.03439  0.85506  1.0000
  S   S1291     1.0  0.76827  0.21904  0.77687  1.0000
  S   S1292     1.0  0.70713  0.01699  0.88171  1.0000
  H   H3787     1.0  0.64172  0.01019  0.91445  1.0000
  Fe  Fe651     1.0  0.60173  0.21622  0.83283  1.0000
  S   S1293     1.0  0.55952  0.19174  0.78534  1.0000
  C   C3789     1.0  0.60266  0.19125  0.77066  1.0000
  H   H3788     1.0  0.70073  0.08145  0.83726  1.0000
  H   H3789     1.0  0.73924  0.05979  0.80616  1.0000
  H   H3790     1.0  0.97668  0.98519  0.82445  1.0000
  C   C3790     1.0  0.98111  0.00590  0.79119  1.0000
  H   H3791     1.0  0.75336  0.98791  0.94714  1.0000
  C   C3791     1.0  0.66514  0.00150  0.91770  1.0000
  C   C3792     1.0  0.67460  0.99269  0.92793  1.0000
  C   C3793     1.0  0.98105  0.19706  0.92619  1.0000
  C   C3794     1.0  0.92316  0.14405  0.88906  1.0000
  H   H3792     1.0  0.67023  0.00682  0.90610  1.0000
  H   H3793     1.0  0.90748  0.13662  0.86397  1.0000
  C   C3795     1.0  0.62451  0.18620  0.80095  1.0000
  H   H3794     1.0  0.75439  0.03078  0.82887  1.0000
  H   H3795     1.0  0.71952  0.08303  0.81195  1.0000
  C   C3796     1.0  0.69825  0.05950  0.80641  1.0000
  C   C3797     1.0  0.68582  0.06736  0.81605  1.0000
  C   C3798     1.0  0.67959  0.05940  0.83079  1.0000
  C   C3799     1.0  0.68594  0.04366  0.83597  1.0000
  C   C3800     1.0  0.69806  0.03574  0.82612  1.0000
  C   C3801     1.0  0.70416  0.04363  0.81133  1.0000
  H   H3796     1.0  0.68113  0.07960  0.81225  1.0000
  H   H3797     1.0  0.67012  0.06554  0.83835  1.0000
  H   H3798     1.0  0.70266  0.02352  0.82982  1.0000
  H   H3799     1.0  0.71366  0.03748  0.80382  1.0000
  H   H3800     1.0  0.83129  0.21516  0.86056  1.0000
  C   C3802     1.0  0.58086  0.20289  0.81228  1.0000
  C   C3803     1.0  0.57297  0.19529  0.80672  1.0000
  C   C3804     1.0  0.56841  0.20191  0.79265  1.0000
  C   C3805     1.0  0.81133  0.99505  0.96222  1.0000
  S   S1294     1.0  0.77878  0.18130  0.79016  1.0000
  H   H3801     1.0  0.58438  0.19767  0.82309  1.0000
  H   H3802     1.0  0.57050  0.18420  0.81326  1.0000
  C   C3806     1.0  0.97339  0.18860  0.95830  1.0000
  C   C3807     1.0  0.65273  0.14629  0.81364  1.0000
  C   C3808     1.0  0.63904  0.15082  0.82418  1.0000
  C   C3809     1.0  0.63852  0.16056  0.83362  1.0000
  C   C3810     1.0  0.65173  0.16569  0.83268  1.0000
  C   C3811     1.0  0.66560  0.16077  0.82250  1.0000
  C   C3812     1.0  0.66609  0.15111  0.81292  1.0000
  H   H3803     1.0  0.62881  0.14676  0.82508  1.0000
  H   H3804     1.0  0.62796  0.16388  0.84182  1.0000
  H   H3805     1.0  0.67582  0.16473  0.82175  1.0000
  H   H3806     1.0  0.67670  0.14761  0.80481  1.0000
  C   C3813     1.0  0.58175  0.18006  0.90275  1.0000
  C   C3814     1.0  0.57089  0.17721  0.91668  1.0000
  C   C3815     1.0  0.57495  0.16501  0.92889  1.0000
  C   C3816     1.0  0.58990  0.15561  0.92717  1.0000
  C   C3817     1.0  0.60090  0.15881  0.91346  1.0000
  C   C3818     1.0  0.59685  0.17100  0.90126  1.0000
  H   H3807     1.0  0.55921  0.18424  0.91786  1.0000
  H   H3808     1.0  0.56642  0.16268  0.93944  1.0000
  H   H3809     1.0  0.61249  0.15155  0.91209  1.0000
  H   H3810     1.0  0.60525  0.17304  0.89053  1.0000
  C   C3819     1.0  0.57963  0.22377  0.78970  1.0000
  H   H3811     1.0  0.81923  0.21891  0.83881  1.0000
  H   H3812     1.0  0.91634  0.22139  0.92945  1.0000
  C   C3820     1.0  0.96836  0.19022  0.93349  1.0000
  S   S1295     1.0  0.73108  0.12915  0.78701  1.0000
  H   H3813     1.0  0.80516  0.19223  0.83164  1.0000
  C   C3821     1.0  0.73645  0.02008  0.90208  1.0000
  C   C3822     1.0  0.78472  0.99128  0.89361  1.0000
  C   C3823     1.0  0.78674  0.00431  0.88178  1.0000
  C   C3824     1.0  0.77641  0.01041  0.87184  1.0000
  C   C3825     1.0  0.76398  0.00358  0.87379  1.0000
  C   C3826     1.0  0.76225  0.99030  0.88538  1.0000
  H   H3814     1.0  0.61089  0.20634  0.77892  1.0000
  H   H3815     1.0  0.79592  0.01003  0.88057  1.0000
  H   H3816     1.0  0.77780  0.02070  0.86291  1.0000
  H   H3817     1.0  0.73051  0.02722  0.89307  1.0000
  S   S1296     1.0  0.75512  0.20395  0.81318  1.0000
  C   C3827     1.0  0.87437  0.15472  0.89857  1.0000
  C   C3828     1.0  0.87712  0.16689  0.90303  1.0000
  C   C3829     1.0  0.88669  0.16371  0.91349  1.0000
  C   C3830     1.0  0.89353  0.14834  0.91939  1.0000
  C   C3831     1.0  0.89008  0.13621  0.91558  1.0000
  C   C3832     1.0  0.88039  0.13941  0.90533  1.0000
  H   H3818     1.0  0.87229  0.17878  0.89800  1.0000
  H   H3819     1.0  0.88922  0.17313  0.91653  1.0000
  H   H3820     1.0  0.89509  0.12431  0.92036  1.0000
  H   H3821     1.0  0.87754  0.13001  0.90275  1.0000
  C   C3833     1.0  0.92860  0.10330  0.83308  1.0000
  C   C3834     1.0  0.91947  0.10299  0.82342  1.0000
  C   C3835     1.0  0.92637  0.09646  0.81042  1.0000
  C   C3836     1.0  0.94238  0.09034  0.80704  1.0000
  C   C3837     1.0  0.95153  0.09108  0.81646  1.0000
  C   C3838     1.0  0.94464  0.09749  0.82949  1.0000
  H   H3822     1.0  0.90710  0.10758  0.82605  1.0000
  H   H3823     1.0  0.91926  0.09601  0.80310  1.0000
  H   H3824     1.0  0.96390  0.08660  0.81383  1.0000
  H   H3825     1.0  0.95176  0.09778  0.83689  1.0000
  C   C3839     1.0  0.85001  0.07431  0.88540  1.0000
  C   C3840     1.0  0.84503  0.08015  0.87154  1.0000
  C   C3841     1.0  0.83915  0.07082  0.86589  1.0000
  C   C3842     1.0  0.83844  0.05562  0.87400  1.0000
  C   C3843     1.0  0.84339  0.04986  0.88788  1.0000
  C   C3844     1.0  0.84917  0.05920  0.89354  1.0000
  H   H3826     1.0  0.84569  0.09184  0.86519  1.0000
  H   H3827     1.0  0.83531  0.07531  0.85515  1.0000
  H   H3828     1.0  0.84293  0.03815  0.89418  1.0000
  H   H3829     1.0  0.85334  0.05461  0.90408  1.0000
  C   C3845     1.0  0.80260  0.15994  0.83020  1.0000
  C   C3846     1.0  0.80846  0.14937  0.84245  1.0000
  C   C3847     1.0  0.82438  0.14266  0.84051  1.0000
  C   C3848     1.0  0.83445  0.14659  0.82634  1.0000
  C   C3849     1.0  0.82851  0.15691  0.81401  1.0000
  C   C3850     1.0  0.81261  0.16359  0.81594  1.0000
  H   H3830     1.0  0.80071  0.14643  0.85346  1.0000
  H   H3831     1.0  0.82883  0.13443  0.84995  1.0000
  H   H3832     1.0  0.83626  0.15991  0.80302  1.0000
  H   H3833     1.0  0.80814  0.17161  0.80638  1.0000
  H   H3834     1.0  0.76691  0.97940  0.93169  1.0000
  H   H3835     1.0  0.77600  0.22082  0.82950  1.0000
  C   C3851     1.0  0.83028  0.18002  0.84615  1.0000
  S   S1297     1.0  0.91939  0.19411  0.95403  1.0000
  S   S1298     1.0  0.89337  0.17500  0.95555  1.0000
  C   C3852     1.0  0.81589  0.19684  0.82691  1.0000
  H   H3836     1.0  0.61192  0.05068  0.95062  1.0000
  H   H3837     1.0  0.65041  0.20734  0.85187  1.0000
  C   C3853     1.0  0.65168  0.98802  0.94777  1.0000
  H   H3838     1.0  0.63981  0.98064  0.91144  1.0000
  N   N315      1.0  0.89219  0.06138  0.85349  1.0000
  C   C3854     1.0  0.89161  0.06499  0.86702  1.0000
  C   C3855     1.0  0.90478  0.06266  0.84151  1.0000
  C   C3856     1.0  0.90386  0.06998  0.86887  1.0000
  C   C3857     1.0  0.91742  0.06722  0.84311  1.0000
  C   C3858     1.0  0.91688  0.07100  0.85684  1.0000
  C   C3859     1.0  0.87883  0.05707  0.85149  1.0000
  H   H3839     1.0  0.88158  0.06420  0.87643  1.0000
  H   H3840     1.0  0.90508  0.06027  0.83060  1.0000
  H   H3841     1.0  0.90312  0.07326  0.87948  1.0000
  H   H3842     1.0  0.92742  0.06821  0.83361  1.0000
  H   H3843     1.0  0.92640  0.07504  0.85803  1.0000
  H   H3844     1.0  0.87256  0.05095  0.86261  1.0000
  H   H3845     1.0  0.87061  0.06766  0.84695  1.0000
  H   H3846     1.0  0.88242  0.04911  0.84342  1.0000
  N   N316      1.0  0.55146  0.14540  0.92199  1.0000
  C   C3860     1.0  0.54730  0.15766  0.91048  1.0000
  C   C3861     1.0  0.56615  0.13632  0.92008  1.0000
  C   C3862     1.0  0.55788  0.16087  0.89648  1.0000
  C   C3863     1.0  0.57700  0.13919  0.90622  1.0000
  C   C3864     1.0  0.57281  0.15155  0.89437  1.0000
  C   C3865     1.0  0.54052  0.14269  0.93687  1.0000
  H   H3847     1.0  0.53589  0.16527  0.91219  1.0000
  H   H3848     1.0  0.56973  0.12709  0.92945  1.0000
  H   H3849     1.0  0.55480  0.17096  0.88757  1.0000
  H   H3850     1.0  0.58879  0.13229  0.90496  1.0000
  H   H3851     1.0  0.58129  0.15436  0.88381  1.0000
  H   H3852     1.0  0.52827  0.14684  0.93563  1.0000
  H   H3853     1.0  0.54206  0.13013  0.94233  1.0000
  H   H3854     1.0  0.54227  0.14885  0.94479  1.0000
  N   N317      1.0  0.75236  0.00105  0.92440  1.0000
  N   N318      1.0  0.61699  0.18274  0.79068  1.0000
  C   C3866     1.0  0.75818  0.01309  0.91423  1.0000
  C   C3867     1.0  0.77262  0.98413  0.89523  1.0000
  C   C3868     1.0  0.75031  0.02280  0.90295  1.0000
  H   H3855     1.0  0.81256  0.20926  0.82121  1.0000
  S   S1299     1.0  0.56423  0.11375  0.96529  1.0000
  H   H3856     1.0  0.84850  0.00742  0.96145  1.0000
  H   H3857     1.0  0.76930  0.01487  0.91437  1.0000
  H   H3858     1.0  0.65534  0.18474  0.87193  1.0000
  Fe  Fe652     1.0  0.97665  0.07342  0.78803  1.0000
  H   H3859     1.0  0.94086  0.20988  0.96085  1.0000
  H   H3860     1.0  0.68624  0.07465  0.76887  1.0000
  S   S1300     1.0  0.83892  0.97901  0.90869  1.0000
  C   C3869     1.0  0.83814  0.00394  0.96167  1.0000
  N   N319      1.0  0.72739  0.15333  0.82150  1.0000
  C   C3870     1.0  0.73275  0.16509  0.82315  1.0000
  C   C3871     1.0  0.73689  0.13892  0.82140  1.0000
  C   C3872     1.0  0.74801  0.16257  0.82469  1.0000
  C   C3873     1.0  0.75227  0.13608  0.82271  1.0000
  C   C3874     1.0  0.75782  0.14800  0.82440  1.0000
  C   C3875     1.0  0.71116  0.15599  0.82064  1.0000
  H   H3861     1.0  0.72531  0.17657  0.82308  1.0000
  H   H3862     1.0  0.73272  0.12965  0.81985  1.0000
  H   H3863     1.0  0.75226  0.17184  0.82608  1.0000
  H   H3864     1.0  0.75986  0.12474  0.82230  1.0000
  H   H3865     1.0  0.76972  0.14603  0.82547  1.0000
  H   H3866     1.0  0.70708  0.16795  0.81422  1.0000
  H   H3867     1.0  0.70967  0.14795  0.81440  1.0000
  H   H3868     1.0  0.70368  0.15425  0.83240  1.0000
  C   C3876     1.0  0.66786  0.98612  0.94304  1.0000
  C   C3877     1.0  0.73462  0.17843  0.78330  1.0000
  C   C3878     1.0  0.83783  0.19021  0.86362  1.0000
  C   C3879     1.0  0.91822  0.16021  0.88637  1.0000
  N   N320      1.0  0.82452  0.04140  0.94602  1.0000
  C   C3880     1.0  0.57167  0.21622  0.78421  1.0000
  H   H3869     1.0  0.91373  0.22471  0.96637  1.0000
  C   C3881     1.0  0.88093  0.13214  0.96513  1.0000
  S   S1301     1.0  0.67936  0.10864  0.77374  1.0000
  H   H3870     1.0  0.88263  0.12797  0.95449  1.0000
  H   H3871     1.0  0.96895  0.01013  0.79092  1.0000
  H   H3872     1.0  0.64653  0.98268  0.95935  1.0000
  S   S1302     1.0  0.59500  0.13921  0.94148  1.0000
  N   N321      1.0  0.66140  0.20615  0.86972  1.0000
  C   C3882     1.0  0.73876  0.99831  0.92363  1.0000
  S   S1303     1.0  0.72462  0.98029  0.88526  1.0000
  N   N322      1.0  0.91917  0.13576  0.88115  1.0000
  C   C3883     1.0  0.65663  0.19192  0.87919  1.0000
  C   C3884     1.0  0.91051  0.14319  0.87032  1.0000
  H   H3873     1.0  0.84065  0.03679  0.92544  1.0000
  C   C3885     1.0  0.83446  0.04596  0.95152  1.0000
  Fe  Fe653     1.0  0.67653  0.12548  0.78836  1.0000
  C   C3886     1.0  0.92458  0.11886  0.88383  1.0000
  H   H3874     1.0  0.92981  0.13820  0.89784  1.0000
  H   H3875     1.0  0.61867  0.18232  0.81313  1.0000
  Fe  Fe654     1.0  0.59461  0.20176  0.86707  1.0000
  H   H3876     1.0  0.84503  0.04895  0.94393  1.0000
  H   H3877     1.0  0.82126  0.99434  0.93836  1.0000
  H   H3878     1.0  0.93443  0.11570  0.87427  1.0000
  H   H3879     1.0  0.92829  0.11397  0.89495  1.0000
  H   H3880     1.0  0.91514  0.11335  0.88422  1.0000
  H   H3881     1.0  0.67516  0.97927  0.95097  1.0000
  C   C3887     1.0  0.96450  0.18598  0.94957  1.0000
  H   H3882     1.0  0.90860  0.13745  0.96273  1.0000
  S   S1304     1.0  0.97820  0.97901  0.78646  1.0000
  S   S1305     1.0  0.62209  0.99860  0.94270  1.0000
  H   H3883     1.0  0.63693  0.18007  0.79922  1.0000
  H   H3884     1.0  0.75525  0.03196  0.89454  1.0000
  H   H3885     1.0  0.95478  0.18055  0.95526  1.0000
  H   H3886     1.0  0.75282  0.98488  0.88689  1.0000
  S   S1306     1.0  0.61764  0.20233  0.87041  1.0000
  C   C3888     1.0  0.64900  0.00345  0.92245  1.0000
  C   C3889     1.0  0.60845  0.16419  0.78302  1.0000
  C   C3890     1.0  0.71988  0.16083  0.78188  1.0000
  H   H3887     1.0  0.84256  0.16587  0.86378  1.0000
  S   S1307     1.0  0.93076  0.15851  0.94873  1.0000
  Fe  Fe655     1.0  0.90067  0.19704  0.94164  1.0000
  C   C3891     1.0  0.83742  0.17754  0.85837  1.0000
  C   C3892     1.0  0.93823  0.22243  0.95735  1.0000
  H   H3888     1.0  0.98378  0.20072  0.91378  1.0000
  C   C3893     1.0  0.83620  0.00104  0.94837  1.0000
  H   H3889     1.0  0.79011  0.22095  0.84866  1.0000
  H   H3890     1.0  0.77036  0.99530  0.93686  1.0000
  C   C3894     1.0  0.82276  0.99666  0.94861  1.0000
  C   C3895     1.0  0.73257  0.14841  0.78380  1.0000
  N   N323      1.0  0.82379  0.19471  0.83929  1.0000
  H   H3891     1.0  0.62182  0.15842  0.80024  1.0000
  H   H3892     1.0  0.73425  0.98860  0.93148  1.0000
  H   H3893     1.0  0.82995  0.17013  0.84219  1.0000
  C   C3896     1.0  0.58428  0.21711  0.80373  1.0000
  C   C3897     1.0  0.90520  0.15929  0.86749  1.0000
  H   H3894     1.0  0.84328  0.18837  0.87317  1.0000
  Fe  Fe656     1.0  0.75661  0.19942  0.79017  1.0000
  Fe  Fe657     1.0  0.69958  0.09536  0.78430  1.0000
  H   H3895     1.0  0.98350  0.02715  0.79488  1.0000
  Fe  Fe658     1.0  0.91361  0.17100  0.96617  1.0000
  N   N324      1.0  0.73215  0.04535  0.82808  1.0000
  C   C3898     1.0  0.72218  0.04449  0.84219  1.0000
  C   C3899     1.0  0.73148  0.05909  0.81743  1.0000
  C   C3900     1.0  0.71077  0.05745  0.84575  1.0000
  C   C3901     1.0  0.72036  0.07234  0.82067  1.0000
  C   C3902     1.0  0.70986  0.07145  0.83488  1.0000
  C   C3903     1.0  0.74398  0.03160  0.82460  1.0000
  C   C3904     1.0  0.60581  0.16411  0.96404  1.0000
  C   C3905     1.0  0.72092  0.17585  0.78165  1.0000
  S   S1308     1.0  0.95784  0.18667  0.92224  1.0000
  S   S1309     1.0  0.57572  0.19382  0.88690  1.0000
  C   C3906     1.0  0.82801  0.04100  0.92968  1.0000
  S   S1310     1.0  0.91626  0.18634  0.92217  1.0000
  H   H3896     1.0  0.82418  0.05275  0.92274  1.0000
  S   S1311     1.0  0.62525  0.21810  0.83346  1.0000
  C   C3907     1.0  0.61047  0.19442  0.77999  1.0000
  H   H3897     1.0  0.60767  0.15232  0.78440  1.0000
  H   H3898     1.0  0.75633  0.14159  0.78603  1.0000
  H   H3899     1.0  0.69077  0.97867  0.85044  1.0000
  C   C3908     1.0  0.73057  0.00782  0.91253  1.0000
  Fe  Fe659     1.0  0.93460  0.18192  0.93545  1.0000
  Fe  Fe660     1.0  0.71067  0.12433  0.78178  1.0000
  C   C3909     1.0  0.60913  0.04914  0.96335  1.0000
  H   H3900     1.0  0.63065  0.02575  0.95310  1.0000
  C   C3910     1.0  0.74646  0.15116  0.78466  1.0000
  C   C3911     1.0  0.66927  0.21333  0.87517  1.0000
  H   H3901     1.0  0.80102  0.99146  0.96245  1.0000
  H   H3902     1.0  0.62380  0.19883  0.79905  1.0000
  H   H3903     1.0  0.82355  0.19054  0.81793  1.0000
  Fe  Fe661     1.0  0.71172  0.97942  0.86839  1.0000
  S   S1312     1.0  0.69164  0.14036  0.77053  1.0000
  H   H3904     1.0  0.67205  0.20854  0.88642  1.0000
  H   H3905     1.0  0.66534  0.18468  0.88598  1.0000
  H   H3906     1.0  0.61276  0.15859  0.95462  1.0000
  C   C3912     1.0  0.60141  0.17608  0.77240  1.0000
  Fe  Fe662     1.0  0.57707  0.13214  0.96266  1.0000
  C   C3913     1.0  0.83119  0.20517  0.85655  1.0000
  C   C3914     1.0  0.64225  0.99659  0.93742  1.0000
  H   H3907     1.0  0.75812  0.16796  0.78542  1.0000
  H   H3908     1.0  0.96200  0.22375  0.94688  1.0000
  H   H3909     1.0  0.63703  0.21724  0.90592  1.0000
  H   H3910     1.0  0.64530  0.19495  0.88720  1.0000
  C   C3915     1.0  0.65698  0.21280  0.85601  1.0000
  H   H3911     1.0  0.80329  0.03399  0.95122  1.0000
  H   H3912     1.0  0.56837  0.22126  0.77327  1.0000
  C   C3916     1.0  0.81110  0.03778  0.95553  1.0000
  C   C3917     1.0  0.76113  0.99041  0.93562  1.0000
  H   H3913     1.0  0.88173  0.14451  0.96170  1.0000
  Fe  Fe663     1.0  0.61386  0.22622  0.85540  1.0000
  H   H3914     1.0  0.66446  0.06422  0.76833  1.0000
  H   H3915     1.0  0.58428  0.16188  0.96104  1.0000
  H   H3916     1.0  0.98113  0.15716  0.92129  1.0000
  C   C3918     1.0  0.66052  0.22692  0.84730  1.0000
  S   S1313     1.0  0.59511  0.22645  0.80972  1.0000
  C   C3919     1.0  0.63233  0.02796  0.96339  1.0000
  H   H3917     1.0  0.65173  0.00836  0.96544  1.0000
  S   S1314     1.0  0.59000  0.22646  0.85364  1.0000
  C   C3920     1.0  0.48723  0.11276  0.96656  1.0000
  C   C3921     1.0  0.67314  0.22738  0.86668  1.0000
  H   H3918     1.0  0.60538  0.06088  0.96602  1.0000
  H   H3919     1.0  0.63972  0.25979  0.98865  1.0000
  H   H3920     1.0  0.72034  0.43282  0.13872  1.0000
  H   H3921     1.0  0.55095  0.31186  0.16636  1.0000
  C   C3922     1.0  0.66096  0.25055  0.97385  1.0000
  C   C3923     1.0  0.94474  0.40926  0.06554  1.0000
  Fe  Fe664     1.0  0.96953  0.45885  0.07519  1.0000
  H   H3922     1.0  0.87193  0.33596  0.97571  1.0000
  H   H3923     1.0  0.95377  0.41570  0.06000  1.0000
  S   S1315     1.0  0.63020  0.43126  0.09011  1.0000
  H   H3924     1.0  0.72398  0.41613  0.12049  1.0000
  Fe  Fe665     1.0  0.78459  0.30246  0.07654  1.0000
  S   S1316     1.0  0.80182  0.29047  0.05870  1.0000
  S   S1317     1.0  0.75859  0.30674  0.07987  1.0000
  Fe  Fe666     1.0  0.80991  0.30406  0.09114  1.0000
  S   S1318     1.0  0.82909  0.29222  0.07440  1.0000
  S   S1319     1.0  0.81400  0.30955  0.11169  1.0000
  Fe  Fe667     1.0  0.81574  0.30762  0.05675  1.0000
  S   S1320     1.0  0.82547  0.32186  0.03389  1.0000
  Fe  Fe668     1.0  0.81321  0.27629  0.07811  1.0000
  S   S1321     1.0  0.82161  0.25039  0.08045  1.0000
  S   S1322     1.0  0.79763  0.32077  0.07332  1.0000
  S   S1323     1.0  0.79501  0.28706  0.09612  1.0000
  Fe  Fe669     1.0  0.94589  0.40323  0.98041  1.0000
  S   S1324     1.0  0.50610  0.23215  0.15262  1.0000
  C   C3924     1.0  0.81764  0.26442  0.13101  1.0000
  H   H3925     1.0  0.75993  0.25526  0.10407  1.0000
  S   S1325     1.0  0.87088  0.28609  0.98343  1.0000
  C   C3925     1.0  0.74288  0.33381  0.03891  1.0000
  Fe  Fe670     1.0  0.68583  0.27029  0.03951  1.0000
  S   S1326     1.0  0.70696  0.27173  0.02055  1.0000
  S   S1327     1.0  0.68087  0.24637  0.04937  1.0000
  Fe  Fe671     1.0  0.67930  0.30445  0.03939  1.0000
  S   S1328     1.0  0.69964  0.30884  0.01994  1.0000
  S   S1329     1.0  0.66315  0.32182  0.05308  1.0000
  Fe  Fe672     1.0  0.69253  0.29349  0.00927  1.0000
  S   S1330     1.0  0.69747  0.29574  0.98355  1.0000
  Fe  Fe673     1.0  0.71250  0.28672  0.03262  1.0000
  S   S1331     1.0  0.73770  0.28375  0.03230  1.0000
  S   S1332     1.0  0.67076  0.29115  0.02747  1.0000
  S   S1333     1.0  0.69278  0.28324  0.05288  1.0000
  H   H3926     1.0  0.79628  0.25674  0.10655  1.0000
  H   H3927     1.0  0.66825  0.43608  0.02721  1.0000
  C   C3926     1.0  0.75724  0.25951  0.07149  1.0000
  C   C3927     1.0  0.80825  0.40244  0.15213  1.0000
  H   H3928     1.0  0.88364  0.31219  0.99266  1.0000
  H   H3929     1.0  0.65516  0.23613  0.07778  1.0000
  C   C3928     1.0  0.64397  0.43761  0.03800  1.0000
  H   H3930     1.0  0.90553  0.41433  0.05117  1.0000
  Fe  Fe674     1.0  0.52490  0.22797  0.16546  1.0000
  S   S1334     1.0  0.93691  0.41734  0.99889  1.0000
  H   H3931     1.0  0.91195  0.38733  0.08603  1.0000
  C   C3929     1.0  0.76386  0.25544  0.05720  1.0000
  C   C3930     1.0  0.65839  0.29402  0.97281  1.0000
  H   H3932     1.0  0.89817  0.36189  0.98574  1.0000
  C   C3931     1.0  0.95453  0.43129  0.02702  1.0000
  H   H3933     1.0  0.89771  0.42258  0.06817  1.0000
  H   H3934     1.0  0.61518  0.45083  0.04706  1.0000
  H   H3935     1.0  0.61710  0.35747  0.13411  1.0000
  C   C3932     1.0  0.62348  0.35445  0.15567  1.0000
  H   H3936     1.0  0.61159  0.43584  0.06378  1.0000
  H   H3937     1.0  0.67609  0.26517  0.01205  1.0000
  H   H3938     1.0  0.72966  0.31956  0.02701  1.0000
  S   S1335     1.0  0.94871  0.41137  0.10942  1.0000
  H   H3939     1.0  0.63794  0.23622  0.07205  1.0000
  Fe  Fe675     1.0  0.87186  0.39317  0.11581  1.0000
  S   S1336     1.0  0.86713  0.38595  0.14157  1.0000
  S   S1337     1.0  0.88182  0.41384  0.10211  1.0000
  Fe  Fe676     1.0  0.86043  0.36670  0.11223  1.0000
  S   S1338     1.0  0.85500  0.35694  0.13765  1.0000
  S   S1339     1.0  0.85665  0.35770  0.09360  1.0000
  Fe  Fe677     1.0  0.84492  0.38170  0.13968  1.0000
  C   C3933     1.0  0.83551  0.25181  0.11131  1.0000
  Fe  Fe678     1.0  0.87751  0.36194  0.13736  1.0000
  S   S1340     1.0  0.89463  0.34514  0.15062  1.0000
  S   S1341     1.0  0.84866  0.39118  0.11415  1.0000
  S   S1342     1.0  0.88404  0.36950  0.11168  1.0000
  H   H3940     1.0  0.74702  0.27231  0.09544  1.0000
  Fe  Fe679     1.0  0.68276  0.40265  0.10266  1.0000
  S   S1343     1.0  0.65835  0.40573  0.11630  1.0000
  S   S1344     1.0  0.70273  0.40754  0.10876  1.0000
  Fe  Fe680     1.0  0.67627  0.38753  0.08064  1.0000
  S   S1345     1.0  0.65139  0.38944  0.09259  1.0000
  S   S1346     1.0  0.68719  0.37736  0.05954  1.0000
  Fe  Fe681     1.0  0.65199  0.41328  0.09334  1.0000
  C   C3934     1.0  0.90395  0.41184  0.06390  1.0000
  Fe  Fe682     1.0  0.65882  0.38025  0.11626  1.0000
  S   S1347     1.0  0.64347  0.35352  0.14784  1.0000
  S   S1348     1.0  0.67639  0.41216  0.07959  1.0000
  S   S1349     1.0  0.68460  0.37792  0.10251  1.0000
  Fe  Fe683     1.0  0.94707  0.37375  0.97074  1.0000
  S   S1350     1.0  0.98283  0.42407  0.03511  1.0000
  C   C3935     1.0  0.66399  0.41447  0.04229  1.0000
  C   C3936     1.0  0.66849  0.29548  0.98097  1.0000
  S   S1351     1.0  0.77115  0.44526  0.13864  1.0000
  S   S1352     1.0  0.57864  0.23021  0.13510  1.0000
  H   H3941     1.0  0.96997  0.44902  0.98866  1.0000
  C   C3937     1.0  0.69957  0.41944  0.12184  1.0000
  C   C3938     1.0  0.71240  0.42168  0.12563  1.0000
  N   N325      1.0  0.67571  0.25457  0.99440  1.0000
  H   H3942     1.0  0.71791  0.34513  0.07681  1.0000
  C   C3939     1.0  0.78218  0.41830  0.15824  1.0000
  C   C3940     1.0  0.68462  0.42668  0.12851  1.0000
  C   C3941     1.0  0.63178  0.44854  0.07627  1.0000
  C   C3942     1.0  0.98505  0.34285  0.96774  1.0000
  C   C3943     1.0  0.68257  0.43613  0.13886  1.0000
  H   H3943     1.0  0.67468  0.42513  0.12558  1.0000
  Fe  Fe684     1.0  0.96251  0.42725  0.09101  1.0000
  H   H3944     1.0  0.67607  0.40834  0.04015  1.0000
  H   H3945     1.0  0.68677  0.24538  0.01329  1.0000
  S   S1353     1.0  0.96222  0.37984  0.98241  1.0000
  H   H3946     1.0  0.76175  0.33926  0.04449  1.0000
  H   H3947     1.0  0.65653  0.44219  0.06829  1.0000
  H   H3948     1.0  0.65606  0.39472  0.05797  1.0000
  H   H3949     1.0  0.74571  0.34651  0.06893  1.0000
  C   C3944     1.0  0.77984  0.25357  0.05150  1.0000
  C   C3945     1.0  0.78512  0.42859  0.14402  1.0000
  C   C3946     1.0  0.79964  0.42588  0.13398  1.0000
  C   C3947     1.0  0.81120  0.41288  0.13804  1.0000
  S   S1354     1.0  0.69248  0.45032  0.15555  1.0000
  C   C3948     1.0  0.67709  0.24643  0.97147  1.0000
  C   C3949     1.0  0.55876  0.23005  0.09615  1.0000
  H   H3950     1.0  0.80199  0.43389  0.12302  1.0000
  H   H3951     1.0  0.82240  0.41099  0.13027  1.0000
  C   C3950     1.0  0.64333  0.23371  0.08207  1.0000
  C   C3951     1.0  0.88689  0.32307  0.99120  1.0000
  H   H3952     1.0  0.69420  0.26103  0.99891  1.0000
  C   C3952     1.0  0.92959  0.41288  0.10824  1.0000
  C   C3953     1.0  0.92185  0.40110  0.11709  1.0000
  C   C3954     1.0  0.90697  0.40149  0.11558  1.0000
  C   C3955     1.0  0.89975  0.41378  0.10532  1.0000
  C   C3956     1.0  0.90732  0.42575  0.09680  1.0000
  C   C3957     1.0  0.92224  0.42527  0.09820  1.0000
  H   H3953     1.0  0.92757  0.39146  0.12478  1.0000
  H   H3954     1.0  0.90122  0.39218  0.12211  1.0000
  H   H3955     1.0  0.90171  0.43533  0.08896  1.0000
  H   H3956     1.0  0.92801  0.43451  0.09154  1.0000
  C   C3958     1.0  0.79134  0.45852  0.15714  1.0000
  C   C3959     1.0  0.74057  0.34291  0.06166  1.0000
  H   H3957     1.0  0.59384  0.22941  0.10371  1.0000
  H   H3958     1.0  0.62869  0.40896  0.06357  1.0000
  C   C3960     1.0  0.87705  0.36425  0.96986  1.0000
  H   H3959     1.0  0.74479  0.26118  0.07571  1.0000
  C   C3961     1.0  0.82728  0.26537  0.11635  1.0000
  H   H3960     1.0  0.93697  0.37836  0.09418  1.0000
  H   H3961     1.0  0.65302  0.26311  0.00688  1.0000
  H   H3962     1.0  0.56490  0.23785  0.08698  1.0000
  H   H3963     1.0  0.86547  0.36928  0.97637  1.0000
  S   S1355     1.0  0.92945  0.39616  0.97102  1.0000
  S   S1356     1.0  0.72975  0.46834  0.14556  1.0000
  C   C3962     1.0  0.96895  0.42103  0.02708  1.0000
  S   S1357     1.0  0.95499  0.44501  0.07072  1.0000
  H   H3964     1.0  0.62221  0.38746  0.15250  1.0000
  H   H3965     1.0  0.71535  0.33764  0.02603  1.0000
  H   H3966     1.0  0.71192  0.32084  0.04114  1.0000
  H   H3967     1.0  0.58917  0.35984  0.14560  1.0000
  C   C3963     1.0  0.61304  0.35686  0.14632  1.0000
  H   H3968     1.0  0.93361  0.43796  0.01832  1.0000
  H   H3969     1.0  0.67099  0.44177  0.14390  1.0000
  S   S1358     1.0  0.97525  0.44187  0.09655  1.0000
  H   H3970     1.0  0.80130  0.45528  0.16280  1.0000
  N   N326      1.0  0.88441  0.35024  0.97967  1.0000
  C   C3964     1.0  0.78197  0.25976  0.07435  1.0000
  C   C3965     1.0  0.61826  0.45980  0.07414  1.0000
  C   C3966     1.0  0.79423  0.23471  0.12142  1.0000
  H   H3971     1.0  0.91026  0.33846  0.00259  1.0000
  C   C3967     1.0  0.71035  0.43112  0.13597  1.0000
  C   C3968     1.0  0.72504  0.34194  0.06619  1.0000
  H   H3972     1.0  0.63651  0.24183  0.08970  1.0000
  C   C3969     1.0  0.63730  0.41490  0.05540  1.0000
  C   C3970     1.0  0.65226  0.25642  0.98676  1.0000
  N   N327      1.0  0.82443  0.23657  0.13541  1.0000
  H   H3973     1.0  0.64598  0.29763  0.97678  1.0000
  C   C3971     1.0  0.75929  0.26592  0.09477  1.0000
  H   H3974     1.0  0.66388  0.30045  0.99107  1.0000
  H   H3975     1.0  0.77101  0.42038  0.16606  1.0000
  H   H3976     1.0  0.80256  0.36375  0.14482  1.0000
  C   C3972     1.0  0.66999  0.33720  0.05474  1.0000
  C   C3973     1.0  0.66392  0.34331  0.06805  1.0000
  C   C3974     1.0  0.66910  0.35565  0.06964  1.0000
  C   C3975     1.0  0.68014  0.36217  0.05777  1.0000
  C   C3976     1.0  0.68595  0.35632  0.04431  1.0000
  C   C3977     1.0  0.68100  0.34376  0.04286  1.0000
  H   H3977     1.0  0.65531  0.33833  0.07721  1.0000
  H   H3978     1.0  0.66459  0.36004  0.08006  1.0000
  H   H3979     1.0  0.69434  0.36148  0.03502  1.0000
  H   H3980     1.0  0.68539  0.33939  0.03241  1.0000
  H   H3981     1.0  0.93364  0.35708  0.16396  1.0000
  C   C3978     1.0  0.94714  0.39629  0.07742  1.0000
  H   H3982     1.0  0.95792  0.39281  0.08133  1.0000
  C   C3979     1.0  0.75243  0.30096  0.06645  1.0000
  C   C3980     1.0  0.76261  0.29827  0.05266  1.0000
  C   C3981     1.0  0.75783  0.29319  0.04222  1.0000
  C   C3982     1.0  0.74276  0.29092  0.04541  1.0000
  C   C3983     1.0  0.73234  0.29401  0.05900  1.0000
  C   C3984     1.0  0.73720  0.29903  0.06954  1.0000
  H   H3983     1.0  0.77409  0.30038  0.04985  1.0000
  H   H3984     1.0  0.76586  0.29096  0.03164  1.0000
  H   H3985     1.0  0.72066  0.29230  0.06149  1.0000
  H   H3986     1.0  0.72921  0.30128  0.08013  1.0000
  C   C3985     1.0  0.85776  0.29593  0.99733  1.0000
  C   C3986     1.0  0.85168  0.31186  0.99345  1.0000
  C   C3987     1.0  0.84180  0.31970  0.00477  1.0000
  C   C3988     1.0  0.83768  0.31159  0.01999  1.0000
  C   C3989     1.0  0.84349  0.29557  0.02385  1.0000
  C   C3990     1.0  0.85360  0.28777  0.01254  1.0000
  H   H3987     1.0  0.85455  0.31817  0.98175  1.0000
  H   H3988     1.0  0.83722  0.33206  0.00174  1.0000
  H   H3989     1.0  0.84036  0.28926  0.03559  1.0000
  H   H3990     1.0  0.85826  0.27543  0.01562  1.0000
  C   C3991     1.0  0.82717  0.32163  0.10674  1.0000
  C   C3992     1.0  0.83054  0.32639  0.11832  1.0000
  C   C3993     1.0  0.84000  0.33712  0.11445  1.0000
  C   C3994     1.0  0.84628  0.34293  0.09900  1.0000
  C   C3995     1.0  0.84337  0.33769  0.08747  1.0000
  C   C3996     1.0  0.83373  0.32716  0.09131  1.0000
  H   H3991     1.0  0.82550  0.32210  0.13027  1.0000
  H   H3992     1.0  0.84215  0.34108  0.12340  1.0000
  H   H3993     1.0  0.84827  0.34210  0.07549  1.0000
  H   H3994     1.0  0.83123  0.32351  0.08230  1.0000
  C   C3997     1.0  0.68452  0.29130  0.97553  1.0000
  C   C3998     1.0  0.89766  0.32375  0.99887  1.0000
  H   H3995     1.0  0.91040  0.38690  0.15257  1.0000
  H   H3996     1.0  0.75001  0.33048  0.02835  1.0000
  N   N328      1.0  0.72773  0.33256  0.04362  1.0000
  C   C3999     1.0  0.78900  0.25562  0.06017  1.0000
  H   H3997     1.0  0.62366  0.40227  0.13488  1.0000
  H   H3998     1.0  0.96792  0.43588  0.96948  1.0000
  C   C4000     1.0  0.68432  0.24849  0.98195  1.0000
  H   H3999     1.0  0.97037  0.33788  0.99035  1.0000
  H   H4000     1.0  0.76543  0.27379  0.09674  1.0000
  C   C4001     1.0  0.65276  0.40683  0.05242  1.0000
  C   C4002     1.0  0.66594  0.24159  0.04448  1.0000
  C   C4003     1.0  0.65338  0.25294  0.03991  1.0000
  C   C4004     1.0  0.64109  0.24855  0.03721  1.0000
  Fe  Fe685     1.0  0.74849  0.45021  0.15551  1.0000
  H   H4001     1.0  0.84274  0.25244  0.09977  1.0000
  H   H4002     1.0  0.65292  0.26505  0.03888  1.0000
  H   H4003     1.0  0.63124  0.25731  0.03394  1.0000
  C   C4005     1.0  0.96345  0.40771  0.01046  1.0000
  H   H4004     1.0  0.61021  0.43387  0.04529  1.0000
  H   H4005     1.0  0.65769  0.46553  0.04703  1.0000
  H   H4006     1.0  0.80893  0.24915  0.15191  1.0000
  C   C4006     1.0  0.94464  0.42980  0.01862  1.0000
  C   C4007     1.0  0.90166  0.33782  0.99694  1.0000
  S   S1359     1.0  0.53799  0.24692  0.15677  1.0000
  H   H4007     1.0  0.81120  0.27498  0.13492  1.0000
  H   H4008     1.0  0.70679  0.33565  0.06077  1.0000
  S   S1360     1.0  0.94148  0.35021  0.97652  1.0000
  C   C4008     1.0  0.93538  0.38818  0.08462  1.0000
  H   H4009     1.0  0.91360  0.36765  0.14918  1.0000
  C   C4009     1.0  0.80066  0.24447  0.10805  1.0000
  C   C4010     1.0  0.81279  0.23829  0.09695  1.0000
  C   C4011     1.0  0.55067  0.23450  0.10996  1.0000
  N   N329      1.0  0.78361  0.47494  0.15601  1.0000
  S   S1361     1.0  0.82239  0.38578  0.15723  1.0000
  C   C4012     1.0  0.94919  0.41819  0.01009  1.0000
  H   H4010     1.0  0.78294  0.45113  0.16378  1.0000
  C   C4013     1.0  0.72083  0.32745  0.03395  1.0000
  H   H4011     1.0  0.55050  0.24574  0.11167  1.0000
  C   C4014     1.0  0.64605  0.45078  0.06667  1.0000
  H   H4012     1.0  0.64066  0.44970  0.03234  1.0000
  H   H4013     1.0  0.92859  0.42433  0.05208  1.0000
  H   H4014     1.0  0.60720  0.45815  0.08159  1.0000
  C   C4015     1.0  0.83400  0.23741  0.12108  1.0000
  C   C4016     1.0  0.81640  0.24982  0.14049  1.0000
  H   H4015     1.0  0.78498  0.23962  0.13004  1.0000
  N   N330      1.0  0.63309  0.43010  0.04824  1.0000
  H   H4016     1.0  0.90290  0.31338  0.00627  1.0000
  H   H4017     1.0  0.98392  0.47133  0.09505  1.0000
  C   C4017     1.0  0.64667  0.46398  0.05463  1.0000
  C   C4018     1.0  0.71879  0.33665  0.05701  1.0000
  S   S1362     1.0  0.98386  0.41500  0.07675  1.0000
  Fe  Fe686     1.0  0.97727  0.43351  0.05671  1.0000
  H   H4018     1.0  0.78508  0.25064  0.04034  1.0000
  C   C4019     1.0  0.68358  0.25658  0.00520  1.0000
  C   C4020     1.0  0.64129  0.23283  0.03916  1.0000
  N   N331      1.0  0.91900  0.40608  0.06828  1.0000
  C   C4021     1.0  0.61886  0.47294  0.06207  1.0000
  C   C4022     1.0  0.89481  0.35106  0.98732  1.0000
  H   H4019     1.0  0.89643  0.40330  0.06902  1.0000
  C   C4023     1.0  0.69542  0.43840  0.14256  1.0000
  C   C4024     1.0  0.88031  0.33653  0.98163  1.0000
  H   H4020     1.0  0.96700  0.39866  0.00404  1.0000
  C   C4025     1.0  0.74957  0.33886  0.04792  1.0000
  C   C4026     1.0  0.97324  0.40907  0.01902  1.0000
  H   H4021     1.0  0.95123  0.44070  0.03297  1.0000
  H   H4022     1.0  0.98435  0.40105  0.01908  1.0000
  C   C4027     1.0  0.65987  0.25831  0.99702  1.0000
  N   N332      1.0  0.76628  0.26185  0.07974  1.0000
  C   C4028     1.0  0.98209  0.33578  0.98339  1.0000
  H   H4023     1.0  0.79596  0.45586  0.14549  1.0000
  Fe  Fe687     1.0  0.71374  0.45328  0.16100  1.0000
  C   C4029     1.0  0.61670  0.43805  0.05118  1.0000
  C   C4030     1.0  0.92127  0.39330  0.07993  1.0000
  H   H4024     1.0  0.75656  0.25420  0.05041  1.0000
  H   H4025     1.0  0.78914  0.26148  0.08093  1.0000
  C   C4031     1.0  0.97758  0.43149  0.97520  1.0000
  H   H4026     1.0  0.69687  0.24548  0.97991  1.0000
  C   C4032     1.0  0.93049  0.41405  0.06112  1.0000
  C   C4033     1.0  0.97876  0.43892  0.98591  1.0000
  C   C4034     1.0  0.65960  0.42998  0.03503  1.0000
  H   H4027     1.0  0.82830  0.27662  0.10889  1.0000
  N   N333      1.0  0.81265  0.36827  0.10060  1.0000
  C   C4035     1.0  0.80390  0.35791  0.10970  1.0000
  C   C4036     1.0  0.81756  0.37722  0.10705  1.0000
  C   C4037     1.0  0.80016  0.35606  0.12574  1.0000
  C   C4038     1.0  0.81390  0.37576  0.12301  1.0000
  C   C4039     1.0  0.80522  0.36507  0.13240  1.0000
  C   C4040     1.0  0.81634  0.37032  0.08381  1.0000
  H   H4028     1.0  0.80017  0.35064  0.10465  1.0000
  H   H4029     1.0  0.82459  0.38534  0.09984  1.0000
  H   H4030     1.0  0.79361  0.34751  0.13290  1.0000
  H   H4031     1.0  0.81786  0.38279  0.12812  1.0000
  C   C4041     1.0  0.59720  0.35787  0.15288  1.0000
  H   H4032     1.0  0.80837  0.38076  0.07869  1.0000
  H   H4033     1.0  0.82852  0.37164  0.07896  1.0000
  H   H4034     1.0  0.81538  0.36005  0.08033  1.0000
  N   N334      1.0  0.64207  0.38218  0.13512  1.0000
  C   C4042     1.0  0.65720  0.37648  0.13913  1.0000
  C   C4043     1.0  0.63753  0.37600  0.12467  1.0000
  C   C4044     1.0  0.66870  0.36339  0.13253  1.0000
  C   C4045     1.0  0.64863  0.36270  0.11781  1.0000
  C   C4046     1.0  0.66433  0.35645  0.12176  1.0000
  C   C4047     1.0  0.63031  0.39355  0.14303  1.0000
  H   H4035     1.0  0.65995  0.38093  0.14746  1.0000
  H   H4036     1.0  0.62607  0.38041  0.12218  1.0000
  H   H4037     1.0  0.67969  0.35857  0.13599  1.0000
  H   H4038     1.0  0.64512  0.35741  0.11063  1.0000
  H   H4039     1.0  0.67218  0.34662  0.11743  1.0000
  H   H4040     1.0  0.63566  0.39986  0.14802  1.0000
  H   H4041     1.0  0.89469  0.37696  0.15767  1.0000
  H   H4042     1.0  0.80148  0.25413  0.05598  1.0000
  H   H4043     1.0  0.93250  0.32467  0.97155  1.0000
  C   C4048     1.0  0.63304  0.47493  0.05216  1.0000
  C   C4049     1.0  0.79373  0.40519  0.16225  1.0000
  C   C4050     1.0  0.90720  0.37546  0.15726  1.0000
  H   H4044     1.0  0.87551  0.31481  0.16573  1.0000
  H   H4045     1.0  0.89987  0.25630  0.97169  1.0000
  Fe  Fe688     1.0  0.55940  0.22794  0.15641  1.0000
  H   H4046     1.0  0.77267  0.47546  0.13833  1.0000
  H   H4047     1.0  0.85903  0.25536  0.97229  1.0000
  H   H4048     1.0  0.84493  0.28292  0.96906  1.0000
  H   H4049     1.0  0.53717  0.22760  0.13260  1.0000
  H   H4050     1.0  0.87746  0.28730  0.16546  1.0000
  Fe  Fe689     1.0  0.67042  0.37071  0.27176  1.0000
  S   S1363     1.0  0.65905  0.36535  0.29682  1.0000
  S   S1364     1.0  0.68625  0.38747  0.26238  1.0000
  Fe  Fe690     1.0  0.65350  0.35162  0.26321  1.0000
  S   S1365     1.0  0.64078  0.34441  0.28747  1.0000
  S   S1366     1.0  0.64956  0.34418  0.24374  1.0000
  Fe  Fe691     1.0  0.63735  0.36912  0.28864  1.0000
  S   S1367     1.0  0.61407  0.38291  0.29832  1.0000
  Fe  Fe692     1.0  0.66346  0.34106  0.29365  1.0000
  S   S1368     1.0  0.67044  0.32119  0.31269  1.0000
  S   S1369     1.0  0.64824  0.37673  0.26376  1.0000
  S   S1370     1.0  0.67681  0.34603  0.26915  1.0000
  H   H4051     1.0  0.84870  0.36556  0.23962  1.0000
  S   S1371     1.0  0.56573  0.42209  0.36229  1.0000
  N   N335      1.0  0.70040  0.27087  0.33254  1.0000
  H   H4052     1.0  0.59226  0.40633  0.31297  1.0000
  Fe  Fe693     1.0  0.56333  0.31421  0.22248  1.0000
  H   H4053     1.0  0.51590  0.45662  0.31004  1.0000
  H   H4054     1.0  0.60992  0.28608  0.18565  1.0000
  C   C4051     1.0  0.48795  0.37380  0.22959  1.0000
  C   C4052     1.0  0.53115  0.45990  0.32215  1.0000
  H   H4055     1.0  0.55453  0.24251  0.23934  1.0000
  C   C4053     1.0  0.64084  0.41190  0.31842  1.0000
  C   C4054     1.0  0.58255  0.24602  0.27422  1.0000
  H   H4056     1.0  0.62186  0.29738  0.30426  1.0000
  C   C4055     1.0  0.90280  0.36626  0.20006  1.0000
  C   C4056     1.0  0.64935  0.40791  0.32985  1.0000
  H   H4057     1.0  0.77331  0.39806  0.21119  1.0000
  S   S1372     1.0  0.89215  0.24523  0.21383  1.0000
  H   H4058     1.0  0.69391  0.26778  0.35690  1.0000
  Fe  Fe694     1.0  0.50359  0.43505  0.30109  1.0000
  S   S1373     1.0  0.52772  0.42528  0.30502  1.0000
  H   H4059     1.0  0.69193  0.24613  0.31668  1.0000
  H   H4060     1.0  0.66131  0.39048  0.22810  1.0000
  N   N336      1.0  0.51356  0.43711  0.35980  1.0000
  H   H4061     1.0  0.60844  0.30618  0.18458  1.0000
  H   H4062     1.0  0.67671  0.37700  0.21850  1.0000
  C   C4057     1.0  0.66489  0.40016  0.32679  1.0000
  H   H4063     1.0  0.54722  0.22979  0.25692  1.0000
  C   C4058     1.0  0.58093  0.31617  0.17826  1.0000
  S   S1374     1.0  0.56074  0.22756  0.18040  1.0000
  S   S1375     1.0  0.55231  0.32423  0.24349  1.0000
  Fe  Fe695     1.0  0.57014  0.33879  0.23449  1.0000
  S   S1376     1.0  0.57886  0.34422  0.25242  1.0000
  H   H4064     1.0  0.60052  0.33724  0.29135  1.0000
  S   S1377     1.0  0.81974  0.37379  0.36556  1.0000
  C   C4059     1.0  0.55792  0.23305  0.24907  1.0000
  C   C4060     1.0  0.56900  0.29331  0.17448  1.0000
  C   C4061     1.0  0.87327  0.35343  0.17576  1.0000
  H   H4065     1.0  0.49214  0.45321  0.36509  1.0000
  C   C4062     1.0  0.86044  0.30973  0.30578  1.0000
  Fe  Fe696     1.0  0.89074  0.33095  0.26835  1.0000
  S   S1378     1.0  0.91239  0.31197  0.26722  1.0000
  S   S1379     1.0  0.87577  0.34343  0.28688  1.0000
  Fe  Fe697     1.0  0.88761  0.33205  0.23632  1.0000
  S   S1380     1.0  0.90883  0.31328  0.23213  1.0000
  S   S1381     1.0  0.87069  0.34494  0.22133  1.0000
  Fe  Fe698     1.0  0.90003  0.30126  0.25639  1.0000
  S   S1382     1.0  0.89741  0.27643  0.26465  1.0000
  Fe  Fe699     1.0  0.91954  0.32550  0.24301  1.0000
  S   S1383     1.0  0.94265  0.33098  0.22954  1.0000
  S   S1384     1.0  0.87789  0.31914  0.25962  1.0000
  S   S1385     1.0  0.89885  0.34534  0.24514  1.0000
  H   H4066     1.0  0.56381  0.26104  0.24485  1.0000
  C   C4063     1.0  0.69461  0.25659  0.31752  1.0000
  N   N337      1.0  0.77412  0.47426  0.31752  1.0000
  H   H4067     1.0  0.55156  0.37723  0.28250  1.0000
  S   S1386     1.0  0.56965  0.28846  0.22288  1.0000
  H   H4068     1.0  0.72673  0.38231  0.24719  1.0000
  C   C4064     1.0  0.50362  0.36697  0.22478  1.0000
  C   C4065     1.0  0.57663  0.25689  0.26221  1.0000
  Fe  Fe700     1.0  0.72907  0.44694  0.18777  1.0000
  H   H4069     1.0  0.62896  0.31103  0.28725  1.0000
  S   S1387     1.0  0.72481  0.43415  0.21253  1.0000
  H   H4070     1.0  0.74909  0.38446  0.26671  1.0000
  S   S1388     1.0  0.88596  0.31786  0.35469  1.0000
  H   H4071     1.0  0.89646  0.29066  0.30357  1.0000
  H   H4072     1.0  0.53414  0.44096  0.36286  1.0000
  C   C4066     1.0  0.48669  0.34661  0.20922  1.0000
  H   H4073     1.0  0.62577  0.41546  0.29747  1.0000
  C   C4067     1.0  0.49829  0.44361  0.35955  1.0000
  Fe  Fe701     1.0  0.75127  0.38847  0.29901  1.0000
  S   S1389     1.0  0.77377  0.38256  0.28235  1.0000
  S   S1390     1.0  0.73386  0.37367  0.30465  1.0000
  Fe  Fe702     1.0  0.76100  0.41384  0.30665  1.0000
  S   S1391     1.0  0.78424  0.41037  0.29036  1.0000
  S   S1392     1.0  0.75204  0.43182  0.32117  1.0000
  Fe  Fe703     1.0  0.77118  0.40822  0.27415  1.0000
  S   S1393     1.0  0.77837  0.41721  0.24859  1.0000
  Fe  Fe704     1.0  0.78475  0.38508  0.29989  1.0000
  S   S1394     1.0  0.80627  0.36772  0.30492  1.0000
  S   S1395     1.0  0.74768  0.41410  0.28951  1.0000
  S   S1396     1.0  0.76255  0.38858  0.31752  1.0000
  C   C4068     1.0  0.61806  0.35222  0.17167  1.0000
  C   C4069     1.0  0.78871  0.43013  0.33827  1.0000
  C   C4070     1.0  0.77955  0.42692  0.33015  1.0000
  C   C4071     1.0  0.76355  0.43314  0.33285  1.0000
  C   C4072     1.0  0.65781  0.28004  0.32915  1.0000
  C   C4073     1.0  0.80530  0.38403  0.34145  1.0000
  S   S1397     1.0  0.49907  0.44341  0.27737  1.0000
  H   H4074     1.0  0.78491  0.42009  0.32148  1.0000
  H   H4075     1.0  0.88180  0.28831  0.33155  1.0000
  H   H4076     1.0  0.87082  0.32221  0.19053  1.0000
  H   H4077     1.0  0.86101  0.31533  0.21898  1.0000
  N   N338      1.0  0.52249  0.38602  0.25649  1.0000
  C   C4074     1.0  0.84818  0.31540  0.33087  1.0000
  C   C4075     1.0  0.73946  0.43080  0.22255  1.0000
  C   C4076     1.0  0.75415  0.43358  0.21487  1.0000
  C   C4077     1.0  0.76600  0.42963  0.22300  1.0000
  C   C4078     1.0  0.76316  0.42296  0.23881  1.0000
  C   C4079     1.0  0.74843  0.42033  0.24648  1.0000
  C   C4080     1.0  0.73662  0.42422  0.23837  1.0000
  H   H4078     1.0  0.75648  0.43847  0.20264  1.0000
  H   H4079     1.0  0.77741  0.43162  0.21701  1.0000
  H   H4080     1.0  0.74617  0.41508  0.25861  1.0000
  H   H4081     1.0  0.72530  0.42199  0.24433  1.0000
  C   C4081     1.0  0.81930  0.39032  0.25810  1.0000
  H   H4082     1.0  0.82048  0.29284  0.35827  1.0000
  S   S1398     1.0  0.51321  0.35256  0.23797  1.0000
  C   C4082     1.0  0.89624  0.26751  0.25056  1.0000
  C   C4083     1.0  0.90077  0.27393  0.23489  1.0000
  C   C4084     1.0  0.89971  0.26680  0.22378  1.0000
  C   C4085     1.0  0.89390  0.25332  0.22823  1.0000
  C   C4086     1.0  0.87536  0.29073  0.17630  1.0000
  C   C4087     1.0  0.89074  0.25379  0.25504  1.0000
  H   H4083     1.0  0.90536  0.28422  0.23130  1.0000
  H   H4084     1.0  0.90340  0.27179  0.21168  1.0000
  H   H4085     1.0  0.56425  0.28423  0.17335  1.0000
  C   C4088     1.0  0.74962  0.39700  0.21372  1.0000
  C   C4089     1.0  0.95654  0.33053  0.23955  1.0000
  Fe  Fe705     1.0  0.53791  0.24480  0.18146  1.0000
  H   H4086     1.0  0.88534  0.29583  0.28921  1.0000
  C   C4090     1.0  0.51146  0.38911  0.24669  1.0000
  C   C4091     1.0  0.96514  0.32588  0.26327  1.0000
  C   C4092     1.0  0.95381  0.32619  0.25562  1.0000
  H   H4087     1.0  0.55044  0.35696  0.27007  1.0000
  H   H4088     1.0  0.53178  0.36278  0.25347  1.0000
  H   H4089     1.0  0.96297  0.32248  0.27570  1.0000
  H   H4090     1.0  0.94300  0.32306  0.26216  1.0000
  C   C4093     1.0  0.75673  0.44202  0.34407  1.0000
  C   C4094     1.0  0.53323  0.39419  0.27300  1.0000
  C   C4095     1.0  0.89224  0.33609  0.19630  1.0000
  C   C4096     1.0  0.87756  0.34476  0.20176  1.0000
  C   C4097     1.0  0.86808  0.35341  0.19149  1.0000
  C   C4098     1.0  0.79089  0.46801  0.31537  1.0000
  H   H4091     1.0  0.89964  0.32943  0.20414  1.0000
  H   H4092     1.0  0.85666  0.36005  0.19567  1.0000
  H   H4093     1.0  0.83901  0.32204  0.33829  1.0000
  C   C4099     1.0  0.69771  0.28285  0.30655  1.0000
  C   C4100     1.0  0.56325  0.26732  0.21100  1.0000
  Fe  Fe706     1.0  0.53838  0.34310  0.22836  1.0000
  C   C4101     1.0  0.97920  0.32999  0.25491  1.0000
  H   H4094     1.0  0.69435  0.42963  0.21612  1.0000
  C   C4102     1.0  0.82645  0.36147  0.34017  1.0000
  C   C4103     1.0  0.82322  0.35999  0.32682  1.0000
  C   C4104     1.0  0.81089  0.37040  0.32091  1.0000
  C   C4105     1.0  0.80208  0.38258  0.32806  1.0000
  H   H4095     1.0  0.50904  0.38558  0.18702  1.0000
  H   H4096     1.0  0.83602  0.35349  0.34461  1.0000
  H   H4097     1.0  0.83018  0.35071  0.32119  1.0000
  H   H4098     1.0  0.79261  0.39073  0.32346  1.0000
  H   H4099     1.0  0.74435  0.44675  0.34630  1.0000
  C   C4106     1.0  0.88426  0.32605  0.33557  1.0000
  C   C4107     1.0  0.89473  0.31959  0.32356  1.0000
  C   C4108     1.0  0.89249  0.32511  0.30842  1.0000
  C   C4109     1.0  0.87983  0.33715  0.30531  1.0000
  C   C4110     1.0  0.86970  0.34395  0.31724  1.0000
  C   C4111     1.0  0.87191  0.33841  0.33234  1.0000
  H   H4100     1.0  0.90438  0.31011  0.32604  1.0000
  H   H4101     1.0  0.90047  0.31998  0.29922  1.0000
  H   H4102     1.0  0.86000  0.35338  0.31487  1.0000
  H   H4103     1.0  0.86401  0.34363  0.34151  1.0000
  C   C4112     1.0  0.55819  0.28203  0.21463  1.0000
  C   C4113     1.0  0.55461  0.26239  0.20363  1.0000
  C   C4114     1.0  0.54083  0.27214  0.20001  1.0000
  C   C4115     1.0  0.53563  0.28663  0.20402  1.0000
  C   C4116     1.0  0.54426  0.29155  0.21130  1.0000
  H   H4104     1.0  0.52491  0.29414  0.20137  1.0000
  H   H4105     1.0  0.54004  0.30268  0.21443  1.0000
  C   C4117     1.0  0.87425  0.30613  0.17644  1.0000
  N   N339      1.0  0.87047  0.29942  0.20404  1.0000
  H   H4106     1.0  0.62875  0.41784  0.32098  1.0000
  C   C4118     1.0  0.84690  0.36934  0.26211  1.0000
  H   H4107     1.0  0.88398  0.27844  0.30378  1.0000
  C   C4119     1.0  0.78250  0.31936  0.35955  1.0000
  C   C4120     1.0  0.87225  0.29643  0.32695  1.0000
  C   C4121     1.0  0.56752  0.32036  0.17243  1.0000
  C   C4122     1.0  0.53443  0.43651  0.31322  1.0000
  C   C4123     1.0  0.54797  0.43013  0.31890  1.0000
  C   C4124     1.0  0.55294  0.43851  0.32643  1.0000
  H   H4108     1.0  0.69171  0.26898  0.29472  1.0000
  H   H4109     1.0  0.57401  0.25986  0.21357  1.0000
  H   H4110     1.0  0.55455  0.41863  0.31762  1.0000
  H   H4111     1.0  0.56348  0.43357  0.33063  1.0000
  H   H4112     1.0  0.79216  0.47734  0.17421  1.0000
  H   H4113     1.0  0.83660  0.38212  0.29522  1.0000
  C   C4125     1.0  0.87137  0.28433  0.20401  1.0000
  C   C4126     1.0  0.88947  0.24675  0.24389  1.0000
  H   H4114     1.0  0.85599  0.37531  0.28492  1.0000
  H   H4115     1.0  0.69437  0.36178  0.28690  1.0000
  H   H4116     1.0  0.74193  0.46778  0.31194  1.0000
  C   C4127     1.0  0.73644  0.39269  0.22396  1.0000
  H   H4117     1.0  0.72565  0.39552  0.22020  1.0000
  N   N340      1.0  0.68058  0.39985  0.21431  1.0000
  C   C4128     1.0  0.73711  0.38537  0.23924  1.0000
  H   H4118     1.0  0.69764  0.24755  0.34069  1.0000
  C   C4129     1.0  0.61256  0.38806  0.31563  1.0000
  C   C4130     1.0  0.62336  0.38038  0.32479  1.0000
  C   C4131     1.0  0.62239  0.38519  0.33820  1.0000
  H   H4119     1.0  0.77380  0.38544  0.23842  1.0000
  C   C4132     1.0  0.69079  0.42216  0.21114  1.0000
  C   C4133     1.0  0.75097  0.37529  0.26032  1.0000
  H   H4120     1.0  0.63242  0.37071  0.32163  1.0000
  H   H4121     1.0  0.63086  0.37934  0.34519  1.0000
  H   H4122     1.0  0.82395  0.38447  0.23604  1.0000
  C   C4134     1.0  0.67409  0.38674  0.22441  1.0000
  C   C4135     1.0  0.66358  0.30479  0.31416  1.0000
  C   C4136     1.0  0.66024  0.30221  0.30138  1.0000
  C   C4137     1.0  0.65594  0.28842  0.30244  1.0000
  H   H4123     1.0  0.55866  0.25117  0.20061  1.0000
  H   H4124     1.0  0.66143  0.31062  0.29055  1.0000
  H   H4125     1.0  0.65375  0.28626  0.29242  1.0000
  C   C4138     1.0  0.84188  0.37185  0.24851  1.0000
  C   C4139     1.0  0.62987  0.34469  0.24563  1.0000
  C   C4140     1.0  0.61854  0.35111  0.25713  1.0000
  C   C4141     1.0  0.60292  0.35109  0.25888  1.0000
  C   C4142     1.0  0.59849  0.34471  0.24913  1.0000
  C   C4143     1.0  0.60975  0.33854  0.23741  1.0000
  C   C4144     1.0  0.62543  0.33852  0.23568  1.0000
  H   H4126     1.0  0.62176  0.35630  0.26455  1.0000
  H   H4127     1.0  0.59420  0.35620  0.26771  1.0000
  H   H4128     1.0  0.60641  0.33364  0.22982  1.0000
  H   H4129     1.0  0.63415  0.33361  0.22672  1.0000
  C   C4145     1.0  0.69914  0.38406  0.27438  1.0000
  C   C4146     1.0  0.70770  0.39506  0.27276  1.0000
  C   C4147     1.0  0.71817  0.39221  0.28225  1.0000
  C   C4148     1.0  0.72016  0.37829  0.29327  1.0000
  C   C4149     1.0  0.71137  0.36749  0.29501  1.0000
  C   C4150     1.0  0.70089  0.37035  0.28561  1.0000
  H   H4130     1.0  0.70623  0.40578  0.26420  1.0000
  H   H4131     1.0  0.72475  0.40071  0.28099  1.0000
  H   H4132     1.0  0.71285  0.35673  0.30354  1.0000
  H   H4133     1.0  0.85766  0.36102  0.26365  1.0000
  H   H4134     1.0  0.89394  0.36860  0.21019  1.0000
  S   S1399     1.0  0.57194  0.35692  0.17670  1.0000
  C   C4151     1.0  0.59980  0.40529  0.33333  1.0000
  H   H4135     1.0  0.69627  0.43532  0.18787  1.0000
  H   H4136     1.0  0.86062  0.30279  0.34876  1.0000
  S   S1400     1.0  0.52992  0.26701  0.19013  1.0000
  H   H4137     1.0  0.59811  0.29489  0.20151  1.0000
  H   H4138     1.0  0.50586  0.40161  0.24388  1.0000
  H   H4139     1.0  0.60896  0.30951  0.29216  1.0000
  H   H4140     1.0  0.91993  0.35208  0.21299  1.0000
  H   H4141     1.0  0.79715  0.47600  0.30598  1.0000
  H   H4142     1.0  0.70229  0.29421  0.32157  1.0000
  H   H4143     1.0  0.88725  0.24873  0.26715  1.0000
  H   H4144     1.0  0.63977  0.40115  0.28828  1.0000
  H   H4145     1.0  0.79820  0.39322  0.34720  1.0000
  C   C4152     1.0  0.92846  0.35354  0.18861  1.0000
  C   C4153     1.0  0.86916  0.30390  0.21844  1.0000
  H   H4146     1.0  0.59561  0.35857  0.30474  1.0000
  C   C4154     1.0  0.54272  0.36831  0.26830  1.0000
  C   C4155     1.0  0.87384  0.27975  0.19017  1.0000
  C   C4156     1.0  0.61934  0.33074  0.32560  1.0000
  N   N341      1.0  0.61501  0.32122  0.30583  1.0000
  H   H4147     1.0  0.88824  0.37931  0.18422  1.0000
  C   C4157     1.0  0.74905  0.47344  0.31518  1.0000
  S   S1401     1.0  0.73274  0.43406  0.16925  1.0000
  C   C4158     1.0  0.69458  0.26937  0.30517  1.0000
  C   C4159     1.0  0.76513  0.46786  0.31262  1.0000
  H   H4148     1.0  0.80840  0.39847  0.25675  1.0000
  N   N342      1.0  0.75056  0.38242  0.24416  1.0000
  C   C4160     1.0  0.60186  0.29680  0.18876  1.0000
  H   H4149     1.0  0.88071  0.30480  0.21916  1.0000
  C   C4161     1.0  0.60064  0.40035  0.32004  1.0000
  H   H4150     1.0  0.69723  0.29305  0.29721  1.0000
  H   H4151     1.0  0.64227  0.42093  0.28306  1.0000
  H   H4152     1.0  0.83905  0.32661  0.31049  1.0000
  C   C4162     1.0  0.76586  0.44521  0.35214  1.0000
  H   H4153     1.0  0.86488  0.29527  0.22872  1.0000
  C   C4163     1.0  0.54444  0.45333  0.32822  1.0000
  H   H4154     1.0  0.67755  0.39577  0.19385  1.0000
  N   N343      1.0  0.87232  0.29921  0.31163  1.0000
  C   C4164     1.0  0.92491  0.35970  0.17406  1.0000
  H   H4155     1.0  0.68383  0.39057  0.30983  1.0000
  C   C4165     1.0  0.63839  0.41162  0.29274  1.0000
  Fe  Fe707     1.0  0.65565  0.23969  0.33663  1.0000
  S   S1402     1.0  0.58256  0.32714  0.21467  1.0000
  S   S1403     1.0  0.79699  0.27569  0.36565  1.0000
  Fe  Fe708     1.0  0.56612  0.34558  0.20176  1.0000
  C   C4166     1.0  0.53217  0.37169  0.25889  1.0000
  C   C4167     1.0  0.52283  0.39717  0.26350  1.0000
  H   H4156     1.0  0.52004  0.40945  0.33976  1.0000
  H   H4157     1.0  0.53346  0.40307  0.27855  1.0000
  C   C4168     1.0  0.69187  0.42536  0.19530  1.0000
  H   H4158     1.0  0.78411  0.35383  0.33406  1.0000
  C   C4169     1.0  0.58238  0.28954  0.18032  1.0000
  C   C4170     1.0  0.91731  0.35686  0.20166  1.0000
  H   H4159     1.0  0.51746  0.38543  0.23565  1.0000
  C   C4171     1.0  0.60555  0.33522  0.30120  1.0000
  H   H4160     1.0  0.62517  0.32898  0.33484  1.0000
  C   C4172     1.0  0.78191  0.43963  0.34900  1.0000
  H   H4161     1.0  0.52343  0.36628  0.20572  1.0000
  C   C4173     1.0  0.51129  0.37142  0.20949  1.0000
  C   C4174     1.0  0.84822  0.31800  0.31529  1.0000
  C   C4175     1.0  0.76342  0.38695  0.23429  1.0000
  H   H4162     1.0  0.51504  0.40847  0.26179  1.0000
  H   H4163     1.0  0.64377  0.41060  0.34109  1.0000
  H   H4164     1.0  0.49231  0.42121  0.33909  1.0000
  S   S1404     1.0  0.74653  0.46153  0.17476  1.0000
  C   C4176     1.0  0.78974  0.34748  0.35646  1.0000
  C   C4177     1.0  0.67172  0.39655  0.31238  1.0000
  C   C4178     1.0  0.60969  0.34504  0.32097  1.0000
  H   H4165     1.0  0.67160  0.39691  0.33558  1.0000
  H   H4166     1.0  0.87037  0.27566  0.21470  1.0000
  C   C4179     1.0  0.70052  0.28344  0.32044  1.0000
  C   C4180     1.0  0.78502  0.34487  0.34447  1.0000
  C   C4181     1.0  0.88798  0.34486  0.17028  1.0000
  H   H4167     1.0  0.56175  0.33249  0.16958  1.0000
  H   H4168     1.0  0.79143  0.39714  0.17318  1.0000
  S   S1405     1.0  0.66556  0.24059  0.35576  1.0000
  C   C4182     1.0  0.66280  0.40057  0.30129  1.0000
  C   C4183     1.0  0.60223  0.35295  0.17826  1.0000
  C   C4184     1.0  0.50314  0.38233  0.19891  1.0000
  H   H4169     1.0  0.65668  0.27166  0.33994  1.0000
  H   H4170     1.0  0.97902  0.36889  0.28747  1.0000
  H   H4171     1.0  0.71454  0.26364  0.34896  1.0000
  H   H4172     1.0  0.97803  0.34979  0.28726  1.0000
  C   C4185     1.0  0.68501  0.40933  0.22055  1.0000
  H   H4173     1.0  0.52464  0.47143  0.32339  1.0000
  H   H4174     1.0  0.53332  0.41954  0.35341  1.0000
  C   C4186     1.0  0.87172  0.31027  0.19051  1.0000
  C   C4187     1.0  0.51374  0.41888  0.34553  1.0000
  C   C4188     1.0  0.56150  0.30882  0.17059  1.0000
  C   C4189     1.0  0.61887  0.30918  0.29696  1.0000
  N   N344      1.0  0.83835  0.37721  0.27336  1.0000
  C   C4190     1.0  0.52612  0.45148  0.31470  1.0000
  C   C4191     1.0  0.78147  0.33066  0.34602  1.0000
  H   H4175     1.0  0.74908  0.40319  0.20198  1.0000
  C   C4192     1.0  0.66220  0.29378  0.32808  1.0000
  H   H4176     1.0  0.84320  0.36210  0.29407  1.0000
  H   H4177     1.0  0.76230  0.36721  0.26140  1.0000
  S   S1406     1.0  0.55532  0.35844  0.22081  1.0000
  C   C4193     1.0  0.48735  0.38887  0.20362  1.0000
  H   H4178     1.0  0.66813  0.39763  0.29016  1.0000
  S   S1407     1.0  0.65019  0.25979  0.31700  1.0000
  H   H4179     1.0  0.97278  0.33798  0.21877  1.0000
  H   H4180     1.0  0.74183  0.36851  0.26595  1.0000
  C   C4194     1.0  0.84378  0.37412  0.28758  1.0000
  H   H4181     1.0  0.80112  0.42563  0.33588  1.0000
  H   H4182     1.0  0.77023  0.45799  0.30723  1.0000
  H   H4183     1.0  0.49726  0.35108  0.20282  1.0000
  C   C4195     1.0  0.65490  0.27722  0.31627  1.0000
  H   H4184     1.0  0.66469  0.29579  0.33802  1.0000
  H   H4185     1.0  0.50220  0.38256  0.25267  1.0000
  S   S1408     1.0  0.54994  0.46359  0.33844  1.0000
  C   C4196     1.0  0.82468  0.38754  0.27154  1.0000
  C   C4197     1.0  0.76321  0.39414  0.21889  1.0000
  C   C4198     1.0  0.88512  0.29061  0.30160  1.0000
  C   C4199     1.0  0.61072  0.39776  0.34240  1.0000
  H   H4186     1.0  0.81774  0.39351  0.28060  1.0000
  H   H4187     1.0  0.59093  0.41517  0.33631  1.0000
  H   H4188     1.0  0.59811  0.35148  0.19060  1.0000
  C   C4200     1.0  0.97063  0.33458  0.23120  1.0000
  S   S1409     1.0  0.54776  0.33187  0.20808  1.0000
  C   C4201     1.0  0.69769  0.25751  0.33114  1.0000
  C   C4202     1.0  0.82800  0.38243  0.24651  1.0000
  N   N345      1.0  0.64750  0.40789  0.30450  1.0000
  C   C4203     1.0  0.81728  0.37325  0.34769  1.0000
  Fe  Fe709     1.0  0.56290  0.44793  0.35633  1.0000
  C   C4204     1.0  0.60270  0.34730  0.30873  1.0000
  H   H4189     1.0  0.86054  0.31207  0.29363  1.0000
  C   C4205     1.0  0.62186  0.31887  0.31788  1.0000
  C   C4206     1.0  0.54331  0.37968  0.27530  1.0000
  H   H4190     1.0  0.90884  0.32948  0.17631  1.0000
  H   H4191     1.0  0.68779  0.41839  0.17671  1.0000
  C   C4207     1.0  0.68138  0.40306  0.19879  1.0000
  C   C4208     1.0  0.59177  0.35596  0.16883  1.0000
  C   C4209     1.0  0.86024  0.30453  0.33678  1.0000
  S   S1410     1.0  0.79368  0.44512  0.35772  1.0000
  S   S1411     1.0  0.70888  0.46507  0.18054  1.0000
  H   H4192     1.0  0.62609  0.35007  0.17901  1.0000
  H   H4193     1.0  0.62959  0.30789  0.32137  1.0000
  H   H4194     1.0  0.48878  0.33441  0.20822  1.0000
  H   H4195     1.0  0.80196  0.40962  0.36637  1.0000
  N   N346      1.0  0.56646  0.23761  0.25764  1.0000
  H   H4196     1.0  0.60792  0.35451  0.32657  1.0000
  C   C4210     1.0  0.68711  0.41581  0.18904  1.0000
  H   H4197     1.0  0.76040  0.45199  0.36080  1.0000
  H   H4198     1.0  0.68407  0.40704  0.23287  1.0000
  C   C4211     1.0  0.89746  0.33614  0.18055  1.0000
  C   C4212     1.0  0.49042  0.43797  0.35210  1.0000
  H   H4199     1.0  0.79466  0.46656  0.32621  1.0000
  H   H4200     1.0  0.93975  0.34620  0.18986  1.0000
  C   C4213     1.0  0.56850  0.25247  0.25405  1.0000
  C   C4214     1.0  0.70327  0.27150  0.34712  1.0000
  H   H4201     1.0  0.57825  0.26870  0.25919  1.0000
  H   H4202     1.0  0.67905  0.38204  0.23488  1.0000
  N   N347      1.0  0.58823  0.30094  0.18202  1.0000
  C   C4215     1.0  0.98192  0.33435  0.23885  1.0000
  S   S1412     1.0  0.58692  0.44762  0.35784  1.0000
  H   H4203     1.0  0.58542  0.32516  0.17986  1.0000
  H   H4204     1.0  0.77781  0.32846  0.33681  1.0000
  H   H4205     1.0  0.77970  0.30827  0.36094  1.0000
  S   S1413     1.0  0.61087  0.40479  0.35811  1.0000
  S   S1414     1.0  0.77397  0.24695  0.36379  1.0000
  C   C4216     1.0  0.52124  0.42475  0.35313  1.0000
  C   C4217     1.0  0.58028  0.23093  0.27791  1.0000
  N   N348      1.0  0.91059  0.36878  0.17261  1.0000
  C   C4218     1.0  0.49825  0.42558  0.34501  1.0000
  C   C4219     1.0  0.89964  0.37222  0.18535  1.0000
  H   H4206     1.0  0.58784  0.27743  0.18379  1.0000
  H   H4207     1.0  0.86577  0.35995  0.16794  1.0000
  H   H4208     1.0  0.79224  0.35861  0.35528  1.0000
  H   H4209     1.0  0.88496  0.23633  0.24743  1.0000
  H   H4210     1.0  0.79425  0.45637  0.31257  1.0000
  S   S1415     1.0  0.48777  0.41855  0.30868  1.0000
  H   H4211     1.0  0.58884  0.24926  0.28071  1.0000
  H   H4212     1.0  0.87485  0.26767  0.19026  1.0000
  Fe  Fe710     1.0  0.58897  0.42183  0.36579  1.0000
  H   H4213     1.0  0.70358  0.28339  0.34744  1.0000
  H   H4214     1.0  0.48597  0.36774  0.18263  1.0000
  H   H4215     1.0  0.75997  0.22759  0.33199  1.0000
  Fe  Fe711     1.0  0.55691  0.42498  0.38660  1.0000
  S   S1416     1.0  0.53757  0.41445  0.40267  1.0000
  C   C4220     1.0  0.49734  0.31274  0.46357  1.0000
  H   H4216     1.0  0.72976  0.45160  0.55430  1.0000
  S   S1417     1.0  0.67946  0.43346  0.51099  1.0000
  H   H4217     1.0  0.57160  0.23757  0.44351  1.0000
  C   C4221     1.0  0.82014  0.38967  0.39341  1.0000
  H   H4218     1.0  0.62638  0.45431  0.54300  1.0000
  H   H4219     1.0  0.79027  0.27268  0.39876  1.0000
  H   H4220     1.0  0.83095  0.30303  0.37434  1.0000
  H   H4221     1.0  0.55269  0.41395  0.45411  1.0000
  H   H4222     1.0  0.78786  0.31361  0.38184  1.0000
  Fe  Fe712     1.0  0.54775  0.34091  0.45958  1.0000
  S   S1418     1.0  0.53953  0.35752  0.47532  1.0000
  S   S1419     1.0  0.56360  0.34644  0.43664  1.0000
  Fe  Fe713     1.0  0.53144  0.31666  0.48230  1.0000
  S   S1420     1.0  0.52192  0.33092  0.50029  1.0000
  S   S1421     1.0  0.52468  0.29393  0.48678  1.0000
  Fe  Fe714     1.0  0.51684  0.35052  0.48041  1.0000
  C   C4222     1.0  0.67204  0.46412  0.45142  1.0000
  Fe  Fe715     1.0  0.54545  0.33640  0.49359  1.0000
  S   S1422     1.0  0.55997  0.33463  0.51005  1.0000
  S   S1423     1.0  0.52454  0.33582  0.46290  1.0000
  S   S1424     1.0  0.55557  0.32032  0.47739  1.0000
  C   C4223     1.0  0.61273  0.45621  0.43402  1.0000
  S   S1425     1.0  0.79936  0.23257  0.38576  1.0000
  H   H4223     1.0  0.70862  0.24520  0.54089  1.0000
  S   S1426     1.0  0.79579  0.25588  0.47197  1.0000
  Fe  Fe716     1.0  0.86182  0.31964  0.54614  1.0000
  S   S1427     1.0  0.85978  0.34356  0.53073  1.0000
  H   H4224     1.0  0.80230  0.32828  0.38854  1.0000
  S   S1428     1.0  0.88285  0.30028  0.54330  1.0000
  Fe  Fe717     1.0  0.85471  0.34142  0.40031  1.0000
  S   S1429     1.0  0.82973  0.34344  0.40083  1.0000
  S   S1430     1.0  0.85879  0.34901  0.41978  1.0000
  Fe  Fe718     1.0  0.83733  0.31998  0.39507  1.0000
  S   S1431     1.0  0.82303  0.30192  0.40717  1.0000
  Fe  Fe719     1.0  0.93201  0.40747  0.44302  1.0000
  S   S1432     1.0  0.91707  0.40500  0.46691  1.0000
  Fe  Fe720     1.0  0.91087  0.39506  0.43097  1.0000
  S   S1433     1.0  0.89435  0.39186  0.45391  1.0000
  S   S1434     1.0  0.90808  0.38877  0.41006  1.0000
  Fe  Fe721     1.0  0.89730  0.41495  0.45483  1.0000
  S   S1435     1.0  0.87655  0.43303  0.46262  1.0000
  Fe  Fe722     1.0  0.91567  0.38223  0.46353  1.0000
  S   S1436     1.0  0.91884  0.35903  0.47994  1.0000
  S   S1437     1.0  0.91221  0.41902  0.43106  1.0000
  S   S1438     1.0  0.93227  0.38384  0.44048  1.0000
  C   C4224     1.0  0.64689  0.41810  0.54752  1.0000
  H   H4225     1.0  0.78689  0.26651  0.44258  1.0000
  C   C4225     1.0  0.57158  0.37772  0.44889  1.0000
  C   C4226     1.0  0.53989  0.26426  0.48437  1.0000
  H   H4226     1.0  0.61555  0.45949  0.46032  1.0000
  C   C4227     1.0  0.57224  0.29178  0.50828  1.0000
  S   S1439     1.0  0.69194  0.45891  0.53084  1.0000
  S   S1440     1.0  0.58027  0.42774  0.52275  1.0000
  C   C4228     1.0  0.81609  0.29078  0.37061  1.0000
  S   S1441     1.0  0.95266  0.41862  0.43629  1.0000
  Fe  Fe723     1.0  0.76714  0.23559  0.52497  1.0000
  H   H4227     1.0  0.57547  0.37104  0.44003  1.0000
  N   N349      1.0  0.89700  0.34562  0.45088  1.0000
  H   H4228     1.0  0.89885  0.43074  0.48660  1.0000
  H   H4229     1.0  0.66318  0.41051  0.51307  1.0000
  C   C4229     1.0  0.56691  0.27320  0.46569  1.0000
  Fe  Fe724     1.0  0.57930  0.40387  0.52211  1.0000
  Fe  Fe725     1.0  0.78201  0.46608  0.36832  1.0000
  C   C4230     1.0  0.64696  0.40351  0.55741  1.0000
  C   C4231     1.0  0.83579  0.25968  0.40856  1.0000
  S   S1442     1.0  0.49378  0.36708  0.48056  1.0000
  H   H4230     1.0  0.87549  0.34681  0.46755  1.0000
  H   H4231     1.0  0.56116  0.39829  0.43403  1.0000
  H   H4232     1.0  0.49725  0.34206  0.44880  1.0000
  H   H4233     1.0  0.79463  0.39711  0.38378  1.0000
  S   S1443     1.0  0.77475  0.46521  0.39371  1.0000
  C   C4232     1.0  0.57879  0.23921  0.43196  1.0000
  C   C4233     1.0  0.84501  0.39559  0.38974  1.0000
  C   C4234     1.0  0.52151  0.44295  0.36792  1.0000
  C   C4235     1.0  0.82942  0.24230  0.39720  1.0000
  C   C4236     1.0  0.88575  0.35191  0.55134  1.0000
  C   C4237     1.0  0.54144  0.41695  0.55068  1.0000
  H   H4234     1.0  0.89778  0.33085  0.42100  1.0000
  H   H4235     1.0  0.52949  0.26078  0.49175  1.0000
  C   C4238     1.0  0.87920  0.45206  0.45556  1.0000
  C   C4239     1.0  0.86679  0.46445  0.45872  1.0000
  H   H4236     1.0  0.84593  0.29292  0.51773  1.0000
  H   H4237     1.0  0.57813  0.34927  0.47915  1.0000
  H   H4238     1.0  0.59350  0.27567  0.50160  1.0000
  C   C4240     1.0  0.89364  0.45499  0.44712  1.0000
  H   H4239     1.0  0.85562  0.46221  0.46535  1.0000
  C   C4241     1.0  0.83332  0.29797  0.51851  1.0000
  C   C4242     1.0  0.83475  0.38579  0.39697  1.0000
  H   H4240     1.0  0.90335  0.44549  0.44487  1.0000
  C   C4243     1.0  0.96624  0.41243  0.44815  1.0000
  C   C4244     1.0  0.96598  0.39916  0.46000  1.0000
  C   C4245     1.0  0.77256  0.43456  0.55674  1.0000
  C   C4246     1.0  0.90417  0.47289  0.47318  1.0000
  C   C4247     1.0  0.63328  0.46878  0.40858  1.0000
  H   H4241     1.0  0.95685  0.39296  0.46258  1.0000
  H   H4242     1.0  0.51974  0.43694  0.38028  1.0000
  C   C4248     1.0  0.91894  0.35036  0.43035  1.0000
  H   H4243     1.0  0.84328  0.44805  0.42465  1.0000
  C   C4249     1.0  0.87115  0.36180  0.41591  1.0000
  C   C4250     1.0  0.87081  0.36892  0.42758  1.0000
  C   C4251     1.0  0.88173  0.37768  0.42566  1.0000
  C   C4252     1.0  0.89308  0.37942  0.41205  1.0000
  C   C4253     1.0  0.89294  0.37293  0.40006  1.0000
  C   C4254     1.0  0.88201  0.36412  0.40197  1.0000
  H   H4244     1.0  0.86234  0.36730  0.43833  1.0000
  H   H4245     1.0  0.88146  0.38288  0.43483  1.0000
  H   H4246     1.0  0.90165  0.37429  0.38945  1.0000
  H   H4247     1.0  0.88239  0.35863  0.39291  1.0000
  S   S1444     1.0  0.86187  0.31696  0.39681  1.0000
  C   C4255     1.0  0.83710  0.26738  0.55062  1.0000
  S   S1445     1.0  0.77787  0.25618  0.51476  1.0000
  C   C4256     1.0  0.87601  0.34770  0.51617  1.0000
  C   C4257     1.0  0.88913  0.33603  0.51289  1.0000
  C   C4258     1.0  0.90231  0.33970  0.50197  1.0000
  C   C4259     1.0  0.90230  0.35501  0.49390  1.0000
  C   C4260     1.0  0.88904  0.36667  0.49678  1.0000
  C   C4261     1.0  0.87594  0.36303  0.50798  1.0000
  H   H4248     1.0  0.88920  0.32416  0.51872  1.0000
  H   H4249     1.0  0.91249  0.33061  0.49962  1.0000
  H   H4250     1.0  0.88893  0.37853  0.49055  1.0000
  H   H4251     1.0  0.86579  0.37212  0.51038  1.0000
  S   S1446     1.0  0.63608  0.23125  0.39352  1.0000
  C   C4262     1.0  0.73034  0.22838  0.53907  1.0000
  H   H4252     1.0  0.74405  0.25478  0.49803  1.0000
  C   C4263     1.0  0.78724  0.32240  0.37131  1.0000
  S   S1447     1.0  0.55224  0.45082  0.38049  1.0000
  H   H4253     1.0  0.82668  0.24956  0.44722  1.0000
  C   C4264     1.0  0.63503  0.43687  0.49656  1.0000
  C   C4265     1.0  0.82187  0.29677  0.37968  1.0000
  H   H4254     1.0  0.86784  0.44837  0.43070  1.0000
  H   H4255     1.0  0.78459  0.42983  0.55757  1.0000
  C   C4266     1.0  0.61930  0.46892  0.45062  1.0000
  N   N350      1.0  0.59188  0.22986  0.40885  1.0000
  H   H4256     1.0  0.55174  0.41718  0.54149  1.0000
  N   N351      1.0  0.90853  0.33155  0.55363  1.0000
  C   C4267     1.0  0.89286  0.33785  0.44258  1.0000
  H   H4257     1.0  0.57995  0.34795  0.45983  1.0000
  C   C4268     1.0  0.80467  0.28212  0.37745  1.0000
  S   S1448     1.0  0.61268  0.41168  0.53424  1.0000
  C   C4269     1.0  0.67593  0.45032  0.46197  1.0000
  H   H4258     1.0  0.74706  0.43626  0.53561  1.0000
  C   C4270     1.0  0.55842  0.38283  0.51528  1.0000
  C   C4271     1.0  0.57065  0.37049  0.51896  1.0000
  C   C4272     1.0  0.57083  0.35553  0.51786  1.0000
  C   C4273     1.0  0.55889  0.35297  0.51291  1.0000
  C   C4274     1.0  0.54653  0.36527  0.50953  1.0000
  C   C4275     1.0  0.54625  0.38017  0.51079  1.0000
  H   H4259     1.0  0.58007  0.37251  0.52243  1.0000
  H   H4260     1.0  0.58041  0.34602  0.52047  1.0000
  H   H4261     1.0  0.53716  0.36332  0.50594  1.0000
  H   H4262     1.0  0.53675  0.38970  0.50800  1.0000
  C   C4276     1.0  0.64113  0.45008  0.49298  1.0000
  C   C4277     1.0  0.65496  0.44912  0.49715  1.0000
  C   C4278     1.0  0.66280  0.43489  0.50461  1.0000
  H   H4263     1.0  0.63493  0.46113  0.48744  1.0000
  H   H4264     1.0  0.65956  0.45934  0.49447  1.0000
  C   C4279     1.0  0.54451  0.39520  0.41143  1.0000
  C   C4280     1.0  0.53515  0.38786  0.42454  1.0000
  C   C4281     1.0  0.54086  0.37271  0.43210  1.0000
  C   C4282     1.0  0.55584  0.36478  0.42641  1.0000
  C   C4283     1.0  0.56510  0.37200  0.41312  1.0000
  C   C4284     1.0  0.55948  0.38726  0.40570  1.0000
  H   H4265     1.0  0.52359  0.39401  0.42902  1.0000
  H   H4266     1.0  0.53367  0.36722  0.44239  1.0000
  H   H4267     1.0  0.57673  0.36592  0.40874  1.0000
  H   H4268     1.0  0.56673  0.39287  0.39553  1.0000
  C   C4285     1.0  0.97785  0.39361  0.46827  1.0000
  H   H4269     1.0  0.80434  0.34707  0.37722  1.0000
  C   C4286     1.0  0.55891  0.40196  0.45666  1.0000
  C   C4287     1.0  0.70310  0.23191  0.37019  1.0000
  N   N352      1.0  0.69569  0.47083  0.45066  1.0000
  C   C4288     1.0  0.62409  0.32934  0.55299  1.0000
  H   H4270     1.0  0.81832  0.23375  0.43611  1.0000
  H   H4271     1.0  0.83814  0.37517  0.40516  1.0000
  H   H4272     1.0  0.89093  0.33114  0.54301  1.0000
  H   H4273     1.0  0.81762  0.26821  0.43724  1.0000
  H   H4274     1.0  0.88245  0.33327  0.44705  1.0000
  H   H4275     1.0  0.59499  0.35376  0.46453  1.0000
  C   C4289     1.0  0.84053  0.40917  0.37915  1.0000
  C   C4290     1.0  0.58256  0.22787  0.42330  1.0000
  C   C4291     1.0  0.86724  0.47228  0.41877  1.0000
  C   C4292     1.0  0.79218  0.24598  0.46006  1.0000
  C   C4293     1.0  0.59717  0.24324  0.40246  1.0000
  H   H4276     1.0  0.82910  0.23868  0.38712  1.0000
  H   H4277     1.0  0.63856  0.41231  0.50617  1.0000
  C   C4294     1.0  0.55798  0.26832  0.51007  1.0000
  H   H4278     1.0  0.84038  0.26977  0.40711  1.0000
  S   S1449     1.0  0.86064  0.35257  0.37521  1.0000
  H   H4279     1.0  0.62509  0.33256  0.54061  1.0000
  H   H4280     1.0  0.87801  0.47230  0.42131  1.0000
  S   S1450     1.0  0.84466  0.30506  0.54997  1.0000
  N   N353      1.0  0.74740  0.44960  0.56604  1.0000
  H   H4281     1.0  0.97835  0.43072  0.43590  1.0000
  C   C4295     1.0  0.58325  0.25105  0.50266  1.0000
  C   C4296     1.0  0.57020  0.37971  0.47424  1.0000
  H   H4282     1.0  0.97774  0.38316  0.47724  1.0000
  H   H4283     1.0  0.60442  0.45149  0.44384  1.0000
  C   C4297     1.0  0.68987  0.44679  0.46669  1.0000
  Fe  Fe726     1.0  0.83618  0.35274  0.37547  1.0000
  Fe  Fe727     1.0  0.58738  0.41631  0.54517  1.0000
  H   H4284     1.0  0.75586  0.24568  0.45924  1.0000
  H   H4285     1.0  0.85634  0.25084  0.52006  1.0000
  C   C4298     1.0  0.59388  0.25467  0.41092  1.0000
  C   C4299     1.0  0.80065  0.40688  0.37908  1.0000
  C   C4300     1.0  0.62481  0.45915  0.40696  1.0000
  C   C4301     1.0  0.81986  0.25704  0.54251  1.0000
  C   C4302     1.0  0.84928  0.26267  0.53879  1.0000
  C   C4303     1.0  0.82242  0.26463  0.55243  1.0000
  C   C4304     1.0  0.55369  0.28444  0.46988  1.0000
  H   H4286     1.0  0.71067  0.45427  0.46429  1.0000
  C   C4305     1.0  0.75149  0.43798  0.54458  1.0000
  C   C4306     1.0  0.60322  0.47276  0.37491  1.0000
  H   H4287     1.0  0.91105  0.30919  0.54942  1.0000
  H   H4288     1.0  0.59217  0.25278  0.49177  1.0000
  H   H4289     1.0  0.83891  0.27335  0.55828  1.0000
  H   H4290     1.0  0.57786  0.30097  0.50750  1.0000
  H   H4291     1.0  0.97999  0.42429  0.40944  1.0000
  H   H4292     1.0  0.69994  0.24741  0.38506  1.0000
  N   N354      1.0  0.57431  0.37105  0.46331  1.0000
  H   H4293     1.0  0.64549  0.44690  0.53282  1.0000
  H   H4294     1.0  0.78196  0.25237  0.42569  1.0000
  H   H4295     1.0  0.91344  0.35753  0.45174  1.0000
  H   H4296     1.0  0.63029  0.47042  0.45217  1.0000
  C   C4307     1.0  0.71416  0.23300  0.54273  1.0000
  H   H4297     1.0  0.49774  0.31490  0.47464  1.0000
  H   H4298     1.0  0.69287  0.43621  0.47512  1.0000
  H   H4299     1.0  0.81239  0.38180  0.39884  1.0000
  H   H4300     1.0  0.65732  0.39429  0.55654  1.0000
  H   H4301     1.0  0.49254  0.33493  0.49290  1.0000
  Fe  Fe728     1.0  0.75569  0.24359  0.38547  1.0000
  N   N355      1.0  0.82941  0.25223  0.42294  1.0000
  C   C4308     1.0  0.63617  0.31886  0.55930  1.0000
  C   C4309     1.0  0.83590  0.25484  0.39548  1.0000
  H   H4302     1.0  0.88352  0.37125  0.56122  1.0000
  N   N356      1.0  0.74945  0.23847  0.48368  1.0000
  H   H4303     1.0  0.60186  0.34488  0.55782  1.0000
  H   H4304     1.0  0.92445  0.43608  0.47133  1.0000
  S   S1451     1.0  0.74120  0.24271  0.53191  1.0000
  C   C4310     1.0  0.53682  0.42763  0.56009  1.0000
  H   H4305     1.0  0.55388  0.29654  0.46558  1.0000
  Fe  Fe729     1.0  0.79561  0.24343  0.52882  1.0000
  C   C4311     1.0  0.89491  0.33754  0.54875  1.0000
  H   H4306     1.0  0.53635  0.28441  0.51629  1.0000
  Fe  Fe730     1.0  0.86557  0.28538  0.54883  1.0000
  H   H4307     1.0  0.92882  0.35576  0.42552  1.0000
  C   C4312     1.0  0.55611  0.29423  0.51255  1.0000
  C   C4313     1.0  0.82333  0.23972  0.42473  1.0000
  C   C4314     1.0  0.65704  0.42159  0.50751  1.0000
  S   S1452     1.0  0.80094  0.25509  0.54448  1.0000
  C   C4315     1.0  0.84689  0.25459  0.52916  1.0000
  C   C4316     1.0  0.64183  0.35308  0.56291  1.0000
  N   N357      1.0  0.82649  0.28975  0.51156  1.0000
  C   C4317     1.0  0.81107  0.28959  0.51655  1.0000
  C   C4318     1.0  0.83538  0.28289  0.49968  1.0000
  C   C4319     1.0  0.80419  0.28232  0.50969  1.0000
  C   C4320     1.0  0.82887  0.27545  0.49258  1.0000
  C   C4321     1.0  0.81315  0.27521  0.49762  1.0000
  H   H4308     1.0  0.81296  0.26861  0.56142  1.0000
  H   H4309     1.0  0.80406  0.29479  0.52614  1.0000
  H   H4310     1.0  0.84763  0.28292  0.49581  1.0000
  H   H4311     1.0  0.79204  0.28194  0.51396  1.0000
  H   H4312     1.0  0.83596  0.26982  0.48331  1.0000
  H   H4313     1.0  0.80795  0.26944  0.49225  1.0000
  H   H4314     1.0  0.77474  0.42524  0.53712  1.0000
  C   C4322     1.0  0.89569  0.47026  0.44198  1.0000
  N   N358      1.0  0.62142  0.46530  0.43561  1.0000
  S   S1453     1.0  0.58387  0.24375  0.46681  1.0000
  C   C4323     1.0  0.90155  0.33636  0.42783  1.0000
  C   C4324     1.0  0.61100  0.33625  0.56268  1.0000
  N   N359      1.0  0.79116  0.33617  0.36949  1.0000
  H   H4315     1.0  0.61520  0.22844  0.51607  1.0000
  H   H4316     1.0  0.62592  0.45698  0.39572  1.0000
  H   H4317     1.0  0.59871  0.26490  0.40606  1.0000
  C   C4325     1.0  0.54891  0.28248  0.51338  1.0000
  C   C4326     1.0  0.74175  0.44674  0.55517  1.0000
  H   H4318     1.0  0.80021  0.28363  0.41479  1.0000
  C   C4327     1.0  0.70828  0.23997  0.37790  1.0000
  C   C4328     1.0  0.63361  0.44463  0.53744  1.0000
  C   C4329     1.0  0.58469  0.25256  0.42580  1.0000
  C   C4330     1.0  0.91490  0.44553  0.47444  1.0000
  C   C4331     1.0  0.83216  0.25177  0.53102  1.0000
  C   C4332     1.0  0.72418  0.23848  0.37637  1.0000
  Fe  Fe731     1.0  0.78502  0.25586  0.37733  1.0000
  S   S1454     1.0  0.58428  0.39288  0.54556  1.0000
  S   S1455     1.0  0.81159  0.23222  0.50987  1.0000
  H   H4319     1.0  0.78591  0.34457  0.38989  1.0000
  H   H4320     1.0  0.62032  0.23094  0.42478  1.0000
  C   C4333     1.0  0.62880  0.36365  0.55840  1.0000
  C   C4334     1.0  0.58230  0.35471  0.46687  1.0000
  H   H4321     1.0  0.84050  0.26111  0.38408  1.0000
  H   H4322     1.0  0.66809  0.44244  0.46664  1.0000
  H   H4323     1.0  0.76304  0.25278  0.48542  1.0000
  H   H4324     1.0  0.54369  0.43606  0.55842  1.0000
  C   C4335     1.0  0.53284  0.40585  0.55321  1.0000
  C   C4336     1.0  0.56671  0.25747  0.47100  1.0000
  C   C4337     1.0  0.90057  0.44252  0.48307  1.0000
  C   C4338     1.0  0.79910  0.27936  0.39342  1.0000
  H   H4325     1.0  0.54923  0.30530  0.51504  1.0000
  C   C4339     1.0  0.58096  0.27752  0.50492  1.0000
  C   C4340     1.0  0.91004  0.35155  0.44509  1.0000
  N   N360      1.0  0.81592  0.40291  0.38287  1.0000
  H   H4326     1.0  0.65117  0.34814  0.55438  1.0000
  H   H4327     1.0  0.89281  0.33788  0.47514  1.0000
  C   C4341     1.0  0.82801  0.25850  0.43631  1.0000
  C   C4342     1.0  0.63139  0.47179  0.42307  1.0000
  H   H4328     1.0  0.57736  0.27672  0.45850  1.0000
  C   C4343     1.0  0.64308  0.42261  0.50366  1.0000
  H   H4329     1.0  0.87708  0.45242  0.49299  1.0000
  S   S1456     1.0  0.57961  0.46226  0.39750  1.0000
  H   H4330     1.0  0.74356  0.22813  0.50758  1.0000
  S   S1457     1.0  0.86705  0.26805  0.53513  1.0000
  S   S1458     1.0  0.61693  0.43831  0.49302  1.0000
  C   C4344     1.0  0.89062  0.36017  0.55897  1.0000
  H   H4331     1.0  0.55226  0.25928  0.51073  1.0000
  C   C4345     1.0  0.56234  0.39525  0.47116  1.0000
  H   H4332     1.0  0.88750  0.35860  0.46845  1.0000
  S   S1459     1.0  0.84164  0.32948  0.36964  1.0000
  C   C4346     1.0  0.88773  0.34725  0.46626  1.0000
  H   H4333     1.0  0.62886  0.44463  0.52764  1.0000
  C   C4347     1.0  0.55312  0.25296  0.48008  1.0000
  C   C4348     1.0  0.91676  0.46080  0.46951  1.0000
  H   H4334     1.0  0.58903  0.24453  0.51232  1.0000
  H   H4335     1.0  0.57618  0.24381  0.50112  1.0000
  S   S1460     1.0  0.58036  0.42217  0.39096  1.0000
  H   H4336     1.0  0.55286  0.24080  0.48402  1.0000
  S   S1461     1.0  0.55846  0.40180  0.51542  1.0000
  H   H4337     1.0  0.60256  0.46474  0.36867  1.0000
  H   H4338     1.0  0.76283  0.46718  0.51804  1.0000
  S   S1462     1.0  0.70247  0.46622  0.49296  1.0000
  C   C4349     1.0  0.81603  0.29441  0.39559  1.0000
  Fe  Fe732     1.0  0.60537  0.42094  0.51171  1.0000
  C   C4350     1.0  0.54033  0.27999  0.47959  1.0000
  H   H4339     1.0  0.64095  0.47421  0.39858  1.0000
  C   C4351     1.0  0.80469  0.28561  0.40246  1.0000
  Fe  Fe733     1.0  0.57646  0.44800  0.38281  1.0000
  H   H4340     1.0  0.53649  0.39745  0.54595  1.0000
  S   S1463     1.0  0.60399  0.39783  0.50923  1.0000
  C   C4352     1.0  0.61431  0.45296  0.41969  1.0000
  C   C4353     1.0  0.84008  0.47173  0.41178  1.0000
  H   H4341     1.0  0.57292  0.37459  0.48547  1.0000
  S   S1464     1.0  0.62723  0.36768  0.53915  1.0000
  H   H4342     1.0  0.74602  0.26311  0.47783  1.0000
  H   H4343     1.0  0.90694  0.47246  0.43560  1.0000
  S   S1465     1.0  0.76550  0.25479  0.39828  1.0000
  C   C4354     1.0  0.91459  0.34280  0.42165  1.0000
  H   H4344     1.0  0.83028  0.24583  0.52337  1.0000
  N   N361      1.0  0.57379  0.26604  0.50578  1.0000
  H   H4345     1.0  0.55890  0.40197  0.48001  1.0000
  C   C4355     1.0  0.56365  0.39319  0.44539  1.0000
  C   C4356     1.0  0.78802  0.25407  0.44603  1.0000
  Fe  Fe734     1.0  0.60918  0.38908  0.53288  1.0000
  H   H4346     1.0  0.60717  0.44604  0.41833  1.0000
  Fe  Fe735     1.0  0.79260  0.24299  0.49684  1.0000
  H   H4347     1.0  0.58226  0.26114  0.43268  1.0000
  S   S1466     1.0  0.73025  0.24965  0.38526  1.0000
  C   C4357     1.0  0.78522  0.24610  0.43647  1.0000
  H   H4348     1.0  0.49602  0.30063  0.46571  1.0000
  C   C4358     1.0  0.86161  0.45867  0.42398  1.0000
  H   H4349     1.0  0.83839  0.26295  0.43519  1.0000
  H   H4350     1.0  0.87491  0.35653  0.54749  1.0000
  Fe  Fe736     1.0  0.68406  0.45610  0.51115  1.0000
  C   C4359     1.0  0.75068  0.25300  0.48638  1.0000
  N   N362      1.0  0.63377  0.42968  0.54844  1.0000
  H   H4351     1.0  0.92106  0.34231  0.40998  1.0000
  H   H4352     1.0  0.50870  0.31349  0.45546  1.0000
  H   H4353     1.0  0.65739  0.42006  0.53903  1.0000
  H   H4354     1.0  0.79327  0.41717  0.38360  1.0000
  H   H4355     1.0  0.92422  0.33485  0.56495  1.0000
  H   H4356     1.0  0.60986  0.43606  0.55931  1.0000
  C   C4360     1.0  0.84785  0.45848  0.42056  1.0000
  H   H4357     1.0  0.64638  0.31366  0.55167  1.0000
  C   C4361     1.0  0.88826  0.45488  0.48658  1.0000
  C   C4362     1.0  0.82582  0.41270  0.37587  1.0000
  C   C4363     1.0  0.75269  0.23649  0.46892  1.0000
  Fe  Fe737     1.0  0.86569  0.32828  0.37161  1.0000
  C   C4364     1.0  0.62046  0.42709  0.55894  1.0000
  Fe  Fe738     1.0  0.70890  0.47108  0.51243  1.0000
  H   H4358     1.0  0.98254  0.38680  0.42804  1.0000
  C   C4365     1.0  0.79613  0.33917  0.38191  1.0000
  C   C4366     1.0  0.69978  0.45714  0.46069  1.0000
  H   H4359     1.0  0.82788  0.29698  0.53097  1.0000
  H   H4360     1.0  0.92778  0.46328  0.46259  1.0000
  H   H4361     1.0  0.60453  0.24486  0.39098  1.0000
  N   N363      1.0  0.89010  0.46984  0.48146  1.0000
  C   C4367     1.0  0.76701  0.43193  0.54535  1.0000
  H   H4362     1.0  0.85642  0.39260  0.39235  1.0000
  H   H4363     1.0  0.66115  0.46713  0.44781  1.0000
  C   C4368     1.0  0.97816  0.42035  0.44494  1.0000
  S   S1467     1.0  0.79120  0.46894  0.55357  1.0000
  C   C4369     1.0  0.59340  0.47368  0.38932  1.0000
  H   H4364     1.0  0.83169  0.31041  0.51267  1.0000
  S   S1468     1.0  0.73426  0.46617  0.51226  1.0000
  C   C4370     1.0  0.75344  0.47380  0.52524  1.0000
  H   H4365     1.0  0.72138  0.25121  0.56395  1.0000
  C   C4371     1.0  0.73492  0.22862  0.36732  1.0000
  H   H4366     1.0  0.92392  0.30999  0.56018  1.0000
  C   C4372     1.0  0.68216  0.47425  0.44578  1.0000
  S   S1469     1.0  0.57873  0.42865  0.56480  1.0000
  H   H4367     1.0  0.92707  0.31856  0.53967  1.0000
  C   C4373     1.0  0.91817  0.31664  0.55050  1.0000
  H   H4368     1.0  0.82944  0.47168  0.40890  1.0000
  C   C4374     1.0  0.48646  0.33879  0.45006  1.0000
  H   H4369     1.0  0.97548  0.40715  0.40806  1.0000
  C   C4375     1.0  0.79370  0.22993  0.46440  1.0000
  C   C4376     1.0  0.73808  0.47535  0.52453  1.0000
  H   H4370     1.0  0.69082  0.23309  0.37155  1.0000
  Fe  Fe739     1.0  0.77909  0.23071  0.40579  1.0000
  C   C4377     1.0  0.82312  0.23463  0.41192  1.0000
  H   H4371     1.0  0.60664  0.37815  0.56610  1.0000
  C   C4378     1.0  0.78666  0.23002  0.44095  1.0000
  C   C4379     1.0  0.90459  0.35404  0.56380  1.0000
  C   C4380     1.0  0.98523  0.41279  0.40637  1.0000
  C   C4381     1.0  0.51958  0.40568  0.56514  1.0000
  C   C4382     1.0  0.91351  0.33967  0.56093  1.0000
  H   H4372     1.0  0.84841  0.41688  0.37345  1.0000
  H   H4373     1.0  0.82234  0.42326  0.36761  1.0000
  H   H4374     1.0  0.51738  0.45568  0.36690  1.0000
  S   S1470     1.0  0.67629  0.32734  0.59865  1.0000
  Fe  Fe740     1.0  0.66405  0.30938  0.64201  1.0000
  S   S1471     1.0  0.66290  0.33481  0.63306  1.0000
  S   S1472     1.0  0.65693  0.29919  0.66740  1.0000
  Fe  Fe741     1.0  0.65307  0.33221  0.61460  1.0000
  S   S1473     1.0  0.63090  0.34842  0.60926  1.0000
  Fe  Fe742     1.0  0.68619  0.32743  0.61819  1.0000
  S   S1474     1.0  0.70459  0.34069  0.61446  1.0000
  S   S1475     1.0  0.65243  0.30722  0.62464  1.0000
  H   H4375     1.0  0.64247  0.25879  0.62072  1.0000
  H   H4376     1.0  0.73354  0.42142  0.67905  1.0000
  H   H4377     1.0  0.64909  0.30707  0.59179  1.0000
  H   H4378     1.0  0.74722  0.41970  0.66098  1.0000
  C   C4383     1.0  0.66083  0.27092  0.60901  1.0000
  S   S1476     1.0  0.55166  0.37209  0.75864  1.0000
  H   H4379     1.0  0.82562  0.22815  0.63227  1.0000
  S   S1477     1.0  0.68479  0.28559  0.59409  1.0000
  H   H4380     1.0  0.73330  0.45104  0.58822  1.0000
  C   C4384     1.0  0.74380  0.41377  0.67322  1.0000
  H   H4381     1.0  0.81524  0.23015  0.56936  1.0000
  Fe  Fe743     1.0  0.87969  0.29663  0.56889  1.0000
  C   C4385     1.0  0.89023  0.32028  0.58871  1.0000
  Fe  Fe744     1.0  0.49213  0.45348  0.63208  1.0000
  S   S1478     1.0  0.86495  0.27936  0.57410  1.0000
  S   S1479     1.0  0.52527  0.40321  0.61692  1.0000
  S   S1480     1.0  0.57137  0.25010  0.72404  1.0000
  S   S1481     1.0  0.60240  0.34155  0.70593  1.0000
  H   H4382     1.0  0.96584  0.26230  0.67855  1.0000
  H   H4383     1.0  0.95064  0.35732  0.72361  1.0000
  H   H4384     1.0  0.57138  0.39826  0.57537  1.0000
  S   S1482     1.0  0.89914  0.29158  0.58112  1.0000
  H   H4385     1.0  0.53783  0.30029  0.75366  1.0000
  H   H4386     1.0  0.76692  0.44539  0.57590  1.0000
  H   H4387     1.0  0.60942  0.41056  0.57710  1.0000
  N   N364      1.0  0.71444  0.23527  0.58453  1.0000
  N   N365      1.0  0.78629  0.32046  0.60971  1.0000
  C   C4386     1.0  0.97309  0.30073  0.66940  1.0000
  C   C4387     1.0  0.50602  0.38657  0.75876  1.0000
  H   H4388     1.0  0.81730  0.23312  0.66008  1.0000
  H   H4389     1.0  0.87893  0.31351  0.63635  1.0000
  H   H4390     1.0  0.96600  0.34641  0.71139  1.0000
  Fe  Fe745     1.0  0.90464  0.33045  0.64008  1.0000
  S   S1483     1.0  0.90949  0.30471  0.64871  1.0000
  S   S1484     1.0  0.90233  0.34090  0.61553  1.0000
  Fe  Fe746     1.0  0.89815  0.33625  0.67260  1.0000
  S   S1485     1.0  0.90255  0.31087  0.68346  1.0000
  S   S1486     1.0  0.88794  0.35395  0.68735  1.0000
  Fe  Fe747     1.0  0.92289  0.30924  0.66332  1.0000
  S   S1487     1.0  0.94722  0.29546  0.66442  1.0000
  Fe  Fe748     1.0  0.88864  0.30945  0.66765  1.0000
  S   S1488     1.0  0.86927  0.29666  0.67455  1.0000
  S   S1489     1.0  0.91940  0.33490  0.65340  1.0000
  S   S1490     1.0  0.88304  0.33491  0.65814  1.0000
  H   H4391     1.0  0.61969  0.30974  0.71483  1.0000
  H   H4392     1.0  0.79849  0.39868  0.75429  1.0000
  S   S1491     1.0  0.77108  0.47273  0.58843  1.0000
  H   H4393     1.0  0.70493  0.25284  0.59766  1.0000
  H   H4394     1.0  0.87246  0.26583  0.62840  1.0000
  Fe  Fe749     1.0  0.76071  0.33808  0.66211  1.0000
  S   S1492     1.0  0.78223  0.32826  0.67160  1.0000
  S   S1493     1.0  0.74428  0.32281  0.66502  1.0000
  Fe  Fe750     1.0  0.76729  0.37025  0.65061  1.0000
  S   S1494     1.0  0.78962  0.36322  0.65857  1.0000
  S   S1495     1.0  0.75630  0.39522  0.64221  1.0000
  Fe  Fe751     1.0  0.79372  0.34192  0.64952  1.0000
  S   S1496     1.0  0.81678  0.33011  0.63724  1.0000
  Fe  Fe752     1.0  0.77634  0.35025  0.68003  1.0000
  S   S1497     1.0  0.78155  0.35096  0.70214  1.0000
  S   S1498     1.0  0.77268  0.35020  0.63918  1.0000
  S   S1499     1.0  0.75358  0.35876  0.67278  1.0000
  C   C4388     1.0  0.61934  0.36992  0.76385  1.0000
  H   H4395     1.0  0.67500  0.31859  0.68261  1.0000
  Fe  Fe753     1.0  0.79207  0.45660  0.57798  1.0000
  S   S1500     1.0  0.79708  0.43053  0.58333  1.0000
  S   S1501     1.0  0.60123  0.31318  0.74882  1.0000
  H   H4396     1.0  0.59059  0.39382  0.75896  1.0000
  Fe  Fe754     1.0  0.74519  0.40918  0.75189  1.0000
  S   S1502     1.0  0.73750  0.40583  0.73233  1.0000
  H   H4397     1.0  0.50432  0.40727  0.59710  1.0000
  S   S1503     1.0  0.85220  0.39452  0.75419  1.0000
  S   S1504     1.0  0.76933  0.41154  0.74927  1.0000
  H   H4398     1.0  0.96236  0.34358  0.68763  1.0000
  S   S1505     1.0  0.98259  0.31600  0.70216  1.0000
  C   C4389     1.0  0.79034  0.30954  0.63542  1.0000
  C   C4390     1.0  0.70607  0.35658  0.66385  1.0000
  H   H4399     1.0  0.97714  0.28588  0.72095  1.0000
  Fe  Fe755     1.0  0.90124  0.35717  0.76200  1.0000
  C   C4391     1.0  0.76842  0.36510  0.71166  1.0000
  C   C4392     1.0  0.77203  0.36872  0.72379  1.0000
  C   C4393     1.0  0.76221  0.38082  0.73071  1.0000
  C   C4394     1.0  0.74875  0.38926  0.72551  1.0000
  C   C4395     1.0  0.74488  0.38528  0.71378  1.0000
  C   C4396     1.0  0.75472  0.37328  0.70683  1.0000
  H   H4400     1.0  0.78254  0.36234  0.72767  1.0000
  H   H4401     1.0  0.76521  0.38377  0.73985  1.0000
  H   H4402     1.0  0.73441  0.39172  0.70982  1.0000
  H   H4403     1.0  0.75173  0.37048  0.69767  1.0000
  C   C4397     1.0  0.76781  0.40497  0.62600  1.0000
  C   C4398     1.0  0.76330  0.42110  0.62121  1.0000
  C   C4399     1.0  0.77236  0.42911  0.60828  1.0000
  C   C4400     1.0  0.78583  0.42096  0.59998  1.0000
  C   C4401     1.0  0.79028  0.40482  0.60476  1.0000
  C   C4402     1.0  0.78136  0.39683  0.61783  1.0000
  H   H4404     1.0  0.75282  0.42741  0.62752  1.0000
  H   H4405     1.0  0.76887  0.44152  0.60472  1.0000
  H   H4406     1.0  0.80069  0.39848  0.59835  1.0000
  H   H4407     1.0  0.78488  0.38438  0.62147  1.0000
  C   C4403     1.0  0.85351  0.30608  0.66561  1.0000
  C   C4404     1.0  0.84891  0.32227  0.66210  1.0000
  C   C4405     1.0  0.83691  0.32968  0.65424  1.0000
  C   C4406     1.0  0.82961  0.32089  0.64960  1.0000
  C   C4407     1.0  0.83388  0.30469  0.65344  1.0000
  C   C4408     1.0  0.84566  0.29729  0.66161  1.0000
  H   H4408     1.0  0.85449  0.32916  0.66550  1.0000
  H   H4409     1.0  0.83374  0.34221  0.65119  1.0000
  H   H4410     1.0  0.82828  0.29784  0.64988  1.0000
  H   H4411     1.0  0.84908  0.28477  0.66431  1.0000
  H   H4412     1.0  0.96217  0.40507  0.75350  1.0000
  C   C4409     1.0  0.63350  0.40081  0.56827  1.0000
  Fe  Fe756     1.0  0.56005  0.22959  0.73452  1.0000
  C   C4410     1.0  0.95691  0.30271  0.67379  1.0000
  C   C4411     1.0  0.94878  0.30920  0.68650  1.0000
  C   C4412     1.0  0.95683  0.31326  0.69504  1.0000
  C   C4413     1.0  0.87559  0.27379  0.61712  1.0000
  S   S1506     1.0  0.91599  0.34217  0.74543  1.0000
  H   H4413     1.0  0.93633  0.31055  0.69007  1.0000
  H   H4414     1.0  0.95051  0.31785  0.70514  1.0000
  C   C4414     1.0  0.56527  0.25689  0.75254  1.0000
  C   C4415     1.0  0.68785  0.34769  0.65592  1.0000
  H   H4415     1.0  0.51784  0.30164  0.76352  1.0000
  H   H4416     1.0  0.83377  0.36494  0.67821  1.0000
  C   C4416     1.0  0.57555  0.28464  0.74075  1.0000
  S   S1507     1.0  0.73377  0.43012  0.76215  1.0000
  H   H4417     1.0  0.82416  0.40510  0.74348  1.0000
  C   C4417     1.0  0.90711  0.34420  0.73029  1.0000
  C   C4418     1.0  0.89396  0.35599  0.72819  1.0000
  C   C4419     1.0  0.88791  0.35864  0.71516  1.0000
  C   C4420     1.0  0.89487  0.34943  0.70424  1.0000
  C   C4421     1.0  0.90772  0.33732  0.70657  1.0000
  C   C4422     1.0  0.91385  0.33473  0.71957  1.0000
  H   H4418     1.0  0.88877  0.36343  0.73633  1.0000
  H   H4419     1.0  0.87807  0.36813  0.71331  1.0000
  H   H4420     1.0  0.91326  0.33031  0.69809  1.0000
  H   H4421     1.0  0.92403  0.32563  0.72115  1.0000
  C   C4423     1.0  0.76251  0.44342  0.56708  1.0000
  N   N366      1.0  0.68793  0.33544  0.66834  1.0000
  H   H4422     1.0  0.74027  0.40306  0.67349  1.0000
  H   H4423     1.0  0.95472  0.27289  0.70198  1.0000
  H   H4424     1.0  0.74793  0.22877  0.73609  1.0000
  C   C4424     1.0  0.56406  0.26653  0.76235  1.0000
  C   C4425     1.0  0.83023  0.28131  0.60876  1.0000
  C   C4426     1.0  0.82904  0.28222  0.62388  1.0000
  C   C4427     1.0  0.83539  0.26927  0.63422  1.0000
  C   C4428     1.0  0.84263  0.25524  0.62960  1.0000
  C   C4429     1.0  0.84340  0.25420  0.61459  1.0000
  C   C4430     1.0  0.83719  0.26722  0.60421  1.0000
  H   H4425     1.0  0.82401  0.29316  0.62734  1.0000
  H   H4426     1.0  0.83505  0.27023  0.64569  1.0000
  H   H4427     1.0  0.84939  0.24360  0.61072  1.0000
  H   H4428     1.0  0.83808  0.26643  0.59254  1.0000
  C   C4431     1.0  0.70417  0.24185  0.59605  1.0000
  C   C4432     1.0  0.86184  0.32034  0.62253  1.0000
  C   C4433     1.0  0.89120  0.33117  0.59623  1.0000
  C   C4434     1.0  0.90157  0.32719  0.60595  1.0000
  C   C4435     1.0  0.91119  0.31234  0.60788  1.0000
  C   C4436     1.0  0.91038  0.30153  0.60017  1.0000
  S   S1508     1.0  0.50411  0.23142  0.74302  1.0000
  H   H4429     1.0  0.88369  0.34262  0.59474  1.0000
  H   H4430     1.0  0.91949  0.30928  0.61508  1.0000
  H   H4431     1.0  0.91796  0.29011  0.60163  1.0000
  H   H4432     1.0  0.58157  0.27828  0.71872  1.0000
  C   C4437     1.0  0.56446  0.42122  0.57985  1.0000
  C   C4438     1.0  0.56315  0.40591  0.58228  1.0000
  C   C4439     1.0  0.55125  0.40038  0.59389  1.0000
  C   C4440     1.0  0.54055  0.41016  0.60305  1.0000
  C   C4441     1.0  0.54199  0.42541  0.60080  1.0000
  C   C4442     1.0  0.55399  0.43090  0.58927  1.0000
  H   H4433     1.0  0.90834  0.36019  0.57005  1.0000
  H   H4434     1.0  0.55024  0.38854  0.59569  1.0000
  H   H4435     1.0  0.53395  0.43293  0.60803  1.0000
  H   H4436     1.0  0.55504  0.44272  0.58752  1.0000
  C   C4443     1.0  0.65143  0.26076  0.61042  1.0000
  C   C4444     1.0  0.77579  0.30589  0.64001  1.0000
  H   H4437     1.0  0.65923  0.27656  0.61829  1.0000
  C   C4445     1.0  0.97347  0.26372  0.68489  1.0000
  H   H4438     1.0  0.52019  0.43522  0.57944  1.0000
  H   H4439     1.0  0.75532  0.30657  0.63271  1.0000
  C   C4446     1.0  0.67254  0.27335  0.59584  1.0000
  H   H4440     1.0  0.57942  0.29542  0.73614  1.0000
  H   H4441     1.0  0.85944  0.36179  0.74925  1.0000
  C   C4447     1.0  0.57141  0.26115  0.73677  1.0000
  C   C4448     1.0  0.63051  0.35466  0.58960  1.0000
  C   C4449     1.0  0.61755  0.36540  0.58507  1.0000
  H   H4442     1.0  0.94692  0.35152  0.66768  1.0000
  H   H4443     1.0  0.97942  0.29565  0.65959  1.0000
  H   H4444     1.0  0.52229  0.25557  0.72947  1.0000
  C   C4450     1.0  0.64271  0.34864  0.57846  1.0000
  H   H4445     1.0  0.60805  0.37011  0.59363  1.0000
  C   C4451     1.0  0.52169  0.38633  0.75706  1.0000
  H   H4446     1.0  0.79223  0.38546  0.67959  1.0000
  H   H4447     1.0  0.65269  0.34028  0.58181  1.0000
  C   C4452     1.0  0.71652  0.33480  0.62781  1.0000
  C   C4453     1.0  0.71559  0.32153  0.63958  1.0000
  C   C4454     1.0  0.72436  0.31778  0.65083  1.0000
  C   C4455     1.0  0.73407  0.32730  0.65035  1.0000
  C   C4456     1.0  0.73529  0.34035  0.63836  1.0000
  C   C4457     1.0  0.72658  0.34405  0.62708  1.0000
  H   H4448     1.0  0.70798  0.31427  0.64012  1.0000
  H   H4449     1.0  0.72348  0.30759  0.66002  1.0000
  H   H4450     1.0  0.74262  0.34783  0.63795  1.0000
  H   H4451     1.0  0.72732  0.35435  0.61799  1.0000
  C   C4458     1.0  0.64269  0.31127  0.67864  1.0000
  C   C4459     1.0  0.63668  0.30525  0.69418  1.0000
  C   C4460     1.0  0.62467  0.31458  0.70302  1.0000
  C   C4461     1.0  0.61881  0.32999  0.69632  1.0000
  C   C4462     1.0  0.62524  0.33613  0.68098  1.0000
  C   C4463     1.0  0.63699  0.32677  0.67214  1.0000
  H   H4452     1.0  0.64104  0.29325  0.69928  1.0000
  H   H4453     1.0  0.62071  0.34804  0.67577  1.0000
  H   H4454     1.0  0.64129  0.33150  0.66020  1.0000
  H   H4455     1.0  0.49383  0.41087  0.68001  1.0000
  H   H4456     1.0  0.62608  0.29846  0.65465  1.0000
  C   C4464     1.0  0.79549  0.31675  0.62010  1.0000
  S   S1509     1.0  0.82492  0.29827  0.59515  1.0000
  H   H4457     1.0  0.96941  0.26868  0.73004  1.0000
  C   C4465     1.0  0.67473  0.26568  0.58399  1.0000
  H   H4458     1.0  0.65934  0.30446  0.57300  1.0000
  H   H4459     1.0  0.94127  0.40821  0.75633  1.0000
  C   C4466     1.0  0.70626  0.34394  0.67636  1.0000
  H   H4460     1.0  0.86783  0.31000  0.69940  1.0000
  H   H4461     1.0  0.94970  0.33822  0.72296  1.0000
  Fe  Fe757     1.0  0.59821  0.32973  0.76387  1.0000
  H   H4462     1.0  0.60017  0.33825  0.58609  1.0000
  C   C4467     1.0  0.51195  0.35851  0.76446  1.0000
  C   C4468     1.0  0.49615  0.41545  0.70077  1.0000
  N   N367      1.0  0.52716  0.28313  0.75172  1.0000
  H   H4463     1.0  0.72680  0.46632  0.57271  1.0000
  C   C4469     1.0  0.77206  0.31679  0.61408  1.0000
  H   H4464     1.0  0.76768  0.41691  0.70960  1.0000
  H   H4465     1.0  0.68615  0.31451  0.66420  1.0000
  C   C4470     1.0  0.57676  0.27495  0.73092  1.0000
  H   H4466     1.0  0.69775  0.32330  0.68784  1.0000
  H   H4467     1.0  0.62165  0.32528  0.63888  1.0000
  H   H4468     1.0  0.79102  0.39714  0.70126  1.0000
  C   C4471     1.0  0.78166  0.40099  0.69517  1.0000
  C   C4472     1.0  0.87336  0.30982  0.62953  1.0000
  H   H4469     1.0  0.79759  0.30689  0.64365  1.0000
  H   H4470     1.0  0.88831  0.27083  0.61249  1.0000
  H   H4471     1.0  0.63341  0.38952  0.57594  1.0000
  N   N368      1.0  0.84895  0.32946  0.69771  1.0000
  C   C4473     1.0  0.83719  0.32219  0.69985  1.0000
  C   C4474     1.0  0.84777  0.34468  0.69016  1.0000
  C   C4475     1.0  0.82372  0.33023  0.69448  1.0000
  C   C4476     1.0  0.83454  0.35299  0.68447  1.0000
  C   C4477     1.0  0.82244  0.34570  0.68671  1.0000
  C   C4478     1.0  0.86274  0.32083  0.70381  1.0000
  H   H4472     1.0  0.83831  0.31002  0.70548  1.0000
  H   H4473     1.0  0.85718  0.35040  0.68824  1.0000
  H   H4474     1.0  0.81215  0.35192  0.68228  1.0000
  H   H4475     1.0  0.54156  0.27215  0.71759  1.0000
  S   S1510     1.0  0.89469  0.38285  0.75398  1.0000
  C   C4479     1.0  0.96723  0.26981  0.69814  1.0000
  H   H4476     1.0  0.87188  0.32764  0.70030  1.0000
  H   H4477     1.0  0.85962  0.31774  0.71657  1.0000
  C   C4480     1.0  0.53585  0.28275  0.73713  1.0000
  C   C4481     1.0  0.89982  0.30542  0.59065  1.0000
  C   C4482     1.0  0.85144  0.35844  0.74438  1.0000
  Fe  Fe758     1.0  0.67645  0.30235  0.61000  1.0000
  C   C4483     1.0  0.52352  0.26347  0.73562  1.0000
  H   H4478     1.0  0.51301  0.39695  0.56714  1.0000
  C   C4484     1.0  0.85470  0.31547  0.61385  1.0000
  C   C4485     1.0  0.56902  0.28050  0.75646  1.0000
  C   C4486     1.0  0.69712  0.33337  0.67840  1.0000
  N   N369      1.0  0.75693  0.40971  0.68067  1.0000
  H   H4479     1.0  0.68125  0.34889  0.64746  1.0000
  C   C4487     1.0  0.62241  0.32210  0.58444  1.0000
  Fe  Fe759     1.0  0.84511  0.29997  0.57495  1.0000
  H   H4480     1.0  0.77154  0.30051  0.65191  1.0000
  N   N370      1.0  0.94487  0.35561  0.70344  1.0000
  C   C4488     1.0  0.95092  0.35108  0.68970  1.0000
  C   C4489     1.0  0.93049  0.36520  0.70599  1.0000
  C   C4490     1.0  0.94230  0.35567  0.67830  1.0000
  C   C4491     1.0  0.92172  0.37035  0.69467  1.0000
  C   C4492     1.0  0.92756  0.36530  0.68087  1.0000
  C   C4493     1.0  0.95324  0.34912  0.71594  1.0000
  H   H4481     1.0  0.78295  0.47702  0.74865  1.0000
  H   H4482     1.0  0.92549  0.36843  0.71705  1.0000
  H   H4483     1.0  0.95823  0.28585  0.71964  1.0000
  H   H4484     1.0  0.56128  0.24625  0.75717  1.0000
  H   H4485     1.0  0.92052  0.36859  0.67234  1.0000
  C   C4494     1.0  0.98114  0.30509  0.67778  1.0000
  C   C4495     1.0  0.50117  0.41582  0.58673  1.0000
  C   C4496     1.0  0.51466  0.26396  0.75047  1.0000
  N   N371      1.0  0.97672  0.27241  0.70574  1.0000
  S   S1511     1.0  0.68822  0.30201  0.62838  1.0000
  C   C4497     1.0  0.76664  0.30939  0.62926  1.0000
  C   C4498     1.0  0.49179  0.40746  0.69248  1.0000
  N   N372      1.0  0.60442  0.33454  0.65674  1.0000
  C   C4499     1.0  0.59628  0.33161  0.67168  1.0000
  C   C4500     1.0  0.61487  0.32281  0.65056  1.0000
  C   C4501     1.0  0.59840  0.31656  0.68078  1.0000
  C   C4502     1.0  0.61735  0.30764  0.65937  1.0000
  C   C4503     1.0  0.60905  0.30453  0.67458  1.0000
  C   C4504     1.0  0.60292  0.35047  0.64757  1.0000
  H   H4486     1.0  0.58859  0.34099  0.67691  1.0000
  H   H4487     1.0  0.84453  0.36946  0.73873  1.0000
  H   H4488     1.0  0.59239  0.31441  0.69280  1.0000
  N   N373      1.0  0.63531  0.31555  0.57482  1.0000
  H   H4489     1.0  0.61128  0.29292  0.68170  1.0000
  N   N374      1.0  0.87077  0.28989  0.61894  1.0000
  H   H4490     1.0  0.61299  0.35504  0.64725  1.0000
  H   H4491     1.0  0.60268  0.35084  0.63553  1.0000
  S   S1512     1.0  0.54151  0.22832  0.75618  1.0000
  C   C4505     1.0  0.85944  0.30014  0.61205  1.0000
  H   H4492     1.0  0.81439  0.32448  0.69609  1.0000
  H   H4493     1.0  0.84550  0.32349  0.60863  1.0000
  C   C4506     1.0  0.72619  0.24338  0.57385  1.0000
  C   C4507     1.0  0.87763  0.29451  0.62771  1.0000
  N   N375      1.0  0.84163  0.34914  0.75658  1.0000
  C   C4508     1.0  0.50110  0.37265  0.76269  1.0000
  H   H4494     1.0  0.50171  0.42507  0.69477  1.0000
  H   H4495     1.0  0.71398  0.34195  0.68401  1.0000
  H   H4496     1.0  0.76480  0.31961  0.60584  1.0000
  S   S1513     1.0  0.59282  0.35089  0.74565  1.0000
  H   H4497     1.0  0.80203  0.33277  0.59232  1.0000
  H   H4498     1.0  0.88220  0.32352  0.58130  1.0000
  H   H4499     1.0  0.78268  0.33739  0.58932  1.0000
  H   H4500     1.0  0.74325  0.46675  0.57894  1.0000
  C   C4509     1.0  0.49289  0.41130  0.71682  1.0000
  S   S1514     1.0  0.56787  0.33449  0.74005  1.0000
  Fe  Fe760     1.0  0.50501  0.42189  0.62431  1.0000
  C   C4510     1.0  0.75624  0.41636  0.69242  1.0000
  C   C4511     1.0  0.83418  0.38969  0.76211  1.0000
  C   C4512     1.0  0.97301  0.31121  0.69073  1.0000
  H   H4501     1.0  0.71357  0.36450  0.66182  1.0000
  H   H4502     1.0  0.66732  0.24924  0.57646  1.0000
  S   S1515     1.0  0.85229  0.23977  0.64213  1.0000
  C   C4513     1.0  0.53246  0.37218  0.75927  1.0000
  H   H4503     1.0  0.73670  0.23510  0.56921  1.0000
  H   H4504     1.0  0.85401  0.29654  0.60508  1.0000
  H   H4505     1.0  0.59208  0.35827  0.65237  1.0000
  H   H4506     1.0  0.61627  0.36346  0.75740  1.0000
  C   C4514     1.0  0.52900  0.29340  0.76038  1.0000
  H   H4507     1.0  0.83175  0.44668  0.75222  1.0000
  C   C4515     1.0  0.76862  0.41215  0.69980  1.0000
  C   C4516     1.0  0.61675  0.37000  0.56948  1.0000
  S   S1516     1.0  0.80882  0.46909  0.58002  1.0000
  C   C4517     1.0  0.76984  0.39904  0.67581  1.0000
  S   S1517     1.0  0.76908  0.45178  0.75175  1.0000
  S   S1518     1.0  0.50018  0.44579  0.60964  1.0000
  Fe  Fe761     1.0  0.59326  0.33451  0.73152  1.0000
  C   C4518     1.0  0.67900  0.32387  0.67026  1.0000
  C   C4519     1.0  0.61010  0.33259  0.57852  1.0000
  H   H4508     1.0  0.77033  0.39378  0.66653  1.0000
  S   S1519     1.0  0.49903  0.42971  0.64652  1.0000
  H   H4509     1.0  0.49588  0.41766  0.72342  1.0000
  C   C4520     1.0  0.73714  0.45882  0.57707  1.0000
  C   C4521     1.0  0.66546  0.25531  0.58550  1.0000
  C   C4522     1.0  0.69211  0.23484  0.60553  1.0000
  C   C4523     1.0  0.79191  0.32780  0.59364  1.0000
  H   H4510     1.0  0.74585  0.42445  0.69666  1.0000
  C   C4524     1.0  0.65384  0.25280  0.59878  1.0000
  C   C4525     1.0  0.53422  0.27287  0.72891  1.0000
  H   H4511     1.0  0.69710  0.36787  0.64340  1.0000
  C   C4526     1.0  0.51670  0.27387  0.75844  1.0000
  C   C4527     1.0  0.97003  0.27843  0.71982  1.0000
  H   H4512     1.0  0.68375  0.26758  0.57373  1.0000
  N   N376      1.0  0.51496  0.41638  0.57415  1.0000
  H   H4513     1.0  0.85840  0.35172  0.73552  1.0000
  H   H4514     1.0  0.80443  0.44290  0.75728  1.0000
  Fe  Fe762     1.0  0.56806  0.34936  0.75549  1.0000
  H   H4515     1.0  0.79571  0.31900  0.58643  1.0000
  H   H4516     1.0  0.49599  0.42732  0.58975  1.0000
  C   C4528     1.0  0.52352  0.42711  0.57194  1.0000
  H   H4517     1.0  0.49780  0.39751  0.75720  1.0000
  H   H4518     1.0  0.91016  0.37761  0.69689  1.0000
  C   C4529     1.0  0.78234  0.39442  0.68306  1.0000
  H   H4519     1.0  0.64575  0.29248  0.58419  1.0000
  H   H4520     1.0  0.88658  0.28640  0.63323  1.0000
  H   H4521     1.0  0.86991  0.27184  0.60891  1.0000
  Fe  Fe763     1.0  0.57575  0.31438  0.75850  1.0000
  H   H4522     1.0  0.54440  0.28980  0.73190  1.0000
  H   H4523     1.0  0.62179  0.31957  0.59673  1.0000
  H   H4524     1.0  0.80693  0.31931  0.61656  1.0000
  H   H4525     1.0  0.52546  0.39711  0.75424  1.0000
  H   H4526     1.0  0.85837  0.33223  0.62394  1.0000
  H   H4527     1.0  0.94923  0.42158  0.76074  1.0000
  H   H4528     1.0  0.83677  0.42849  0.74602  1.0000
  H   H4529     1.0  0.66844  0.32918  0.66551  1.0000
  C   C4530     1.0  0.82591  0.35274  0.75791  1.0000
  C   C4531     1.0  0.69682  0.35848  0.65355  1.0000
  C   C4532     1.0  0.82217  0.39685  0.75434  1.0000
  H   H4530     1.0  0.72991  0.25041  0.57958  1.0000
  C   C4533     1.0  0.63473  0.36669  0.76527  1.0000
  S   S1520     1.0  0.85974  0.31692  0.57142  1.0000
  S   S1521     1.0  0.64220  0.23971  0.60139  1.0000
  H   H4531     1.0  0.84602  0.43072  0.75970  1.0000
  H   H4532     1.0  0.82046  0.36277  0.75031  1.0000
  C   C4534     1.0  0.95082  0.40909  0.76101  1.0000
  C   C4535     1.0  0.83485  0.43385  0.75596  1.0000
  Fe  Fe764     1.0  0.75807  0.43107  0.76152  1.0000
  C   C4536     1.0  0.77491  0.47566  0.75971  1.0000
  C   C4537     1.0  0.80756  0.39334  0.76053  1.0000
  H   H4533     1.0  0.53592  0.34731  0.76447  1.0000
  C   C4538     1.0  0.64794  0.30434  0.58125  1.0000
  H   H4534     1.0  0.64338  0.35783  0.75999  1.0000
  C   C4539     1.0  0.52764  0.35826  0.76275  1.0000
  H   H4535     1.0  0.50650  0.25646  0.75584  1.0000
  S   S1522     1.0  0.49953  0.47311  0.63602  1.0000
  H   H4536     1.0  0.68376  0.24030  0.61440  1.0000
  H   H4537     1.0  0.49196  0.41264  0.58342  1.0000
  C   C4540     1.0  0.62012  0.41264  0.56903  1.0000
  H   H4538     1.0  0.86085  0.33380  0.76539  1.0000
  C   C4541     1.0  0.76677  0.46377  0.76438  1.0000
  C   C4542     1.0  0.84839  0.33662  0.76639  1.0000
  H   H4539     1.0  0.94653  0.39974  0.88517  1.0000
  S   S1523     1.0  0.76423  0.24522  0.80551  1.0000
  C   C4543     1.0  0.89155  0.26312  0.92075  1.0000
  N   N377      1.0  0.82251  0.42821  0.76835  1.0000
  H   H4540     1.0  0.66925  0.43208  0.80113  1.0000
  C   C4544     1.0  0.80739  0.43393  0.76710  1.0000
  H   H4541     1.0  0.91035  0.39844  0.86511  1.0000
  S   S1524     1.0  0.62082  0.24687  0.85799  1.0000
  C   C4545     1.0  0.92292  0.23089  0.96049  1.0000
  H   H4542     1.0  0.68397  0.24196  0.96141  1.0000
  Fe  Fe765     1.0  0.80326  0.26792  0.85623  1.0000
  S   S1525     1.0  0.78979  0.29104  0.84609  1.0000
  S   S1526     1.0  0.80120  0.24480  0.85390  1.0000
  Fe  Fe766     1.0  0.81703  0.28202  0.87400  1.0000
  S   S1527     1.0  0.80441  0.30637  0.86555  1.0000
  S   S1528     1.0  0.83421  0.27440  0.88937  1.0000
  Fe  Fe767     1.0  0.78404  0.29578  0.86964  1.0000
  S   S1529     1.0  0.75906  0.30757  0.87691  1.0000
  Fe  Fe768     1.0  0.81119  0.29964  0.84274  1.0000
  S   S1530     1.0  0.81746  0.31730  0.82122  1.0000
  S   S1531     1.0  0.79596  0.27196  0.88023  1.0000
  S   S1532     1.0  0.82544  0.27603  0.85068  1.0000
  C   C4546     1.0  0.82328  0.33113  0.77957  1.0000
  H   H4543     1.0  0.75494  0.28709  0.84487  1.0000
  C   C4547     1.0  0.78689  0.23150  0.84039  1.0000
  C   C4548     1.0  0.83387  0.27248  0.94195  1.0000
  S   S1533     1.0  0.96034  0.38147  0.94683  1.0000
  Fe  Fe769     1.0  0.89784  0.29517  0.92884  1.0000
  Fe  Fe770     1.0  0.89097  0.32645  0.93704  1.0000
  C   C4549     1.0  0.70283  0.31576  0.94379  1.0000
  C   C4550     1.0  0.84055  0.24763  0.93413  1.0000
  Fe  Fe771     1.0  0.86585  0.31594  0.92972  1.0000
  S   S1534     1.0  0.84538  0.32373  0.91848  1.0000
  S   S1535     1.0  0.88942  0.31937  0.91623  1.0000
  Fe  Fe772     1.0  0.66697  0.25325  0.91031  1.0000
  S   S1536     1.0  0.65188  0.27713  0.90973  1.0000
  H   H4544     1.0  0.93914  0.36970  0.91794  1.0000
  Fe  Fe773     1.0  0.69552  0.26345  0.91071  1.0000
  S   S1537     1.0  0.68283  0.28813  0.91005  1.0000
  S   S1538     1.0  0.72065  0.25615  0.91177  1.0000
  Fe  Fe774     1.0  0.66391  0.27797  0.92743  1.0000
  Fe  Fe775     1.0  0.67237  0.28468  0.89251  1.0000
  S   S1539     1.0  0.67158  0.30070  0.86951  1.0000
  S   S1540     1.0  0.67736  0.25338  0.92948  1.0000
  S   S1541     1.0  0.68663  0.26070  0.89171  1.0000
  C   C4551     1.0  0.89329  0.23539  0.92902  1.0000
  H   H4545     1.0  0.61931  0.29359  0.77858  1.0000
  C   C4552     1.0  0.74059  0.36937  0.82387  1.0000
  H   H4546     1.0  0.57239  0.43077  0.86737  1.0000
  S   S1542     1.0  0.75836  0.41602  0.78512  1.0000
  H   H4547     1.0  0.58932  0.37390  0.76736  1.0000
  C   C4553     1.0  0.91423  0.36246  0.94568  1.0000
  H   H4548     1.0  0.92875  0.24390  0.92146  1.0000
  H   H4549     1.0  0.70789  0.41133  0.77846  1.0000
  S   S1543     1.0  0.94815  0.44197  0.80385  1.0000
  H   H4550     1.0  0.76967  0.23291  0.87559  1.0000
  S   S1544     1.0  0.97426  0.42809  0.86120  1.0000
  Fe  Fe776     1.0  0.97111  0.42848  0.80907  1.0000
  C   C4554     1.0  0.68717  0.32271  0.94837  1.0000
  S   S1545     1.0  0.96081  0.41562  0.83225  1.0000
  N   N378      1.0  0.93022  0.38639  0.89963  1.0000
  C   C4555     1.0  0.68260  0.31982  0.92504  1.0000
  S   S1546     1.0  0.87571  0.34257  0.81761  1.0000
  H   H4551     1.0  0.67890  0.23327  0.87132  1.0000
  Fe  Fe777     1.0  0.62662  0.38260  0.84984  1.0000
  S   S1547     1.0  0.60162  0.39358  0.84945  1.0000
  S   S1548     1.0  0.63211  0.36828  0.87246  1.0000
  Fe  Fe778     1.0  0.63783  0.39629  0.81634  1.0000
  S   S1549     1.0  0.61389  0.40853  0.81308  1.0000
  C   C4556     1.0  0.51993  0.39568  0.79004  1.0000
  Fe  Fe779     1.0  0.61047  0.41477  0.83571  1.0000
  S   S1550     1.0  0.59773  0.43913  0.83795  1.0000
  Fe  Fe780     1.0  0.60724  0.38634  0.82694  1.0000
  S   S1551     1.0  0.59041  0.37719  0.82020  1.0000
  S   S1552     1.0  0.63512  0.40449  0.83781  1.0000
  S   S1553     1.0  0.63145  0.37351  0.82844  1.0000
  C   C4557     1.0  0.57116  0.44657  0.88744  1.0000
  C   C4558     1.0  0.93116  0.25450  0.94858  1.0000
  C   C4559     1.0  0.56891  0.45406  0.89938  1.0000
  S   S1554     1.0  0.91948  0.41659  0.83422  1.0000
  H   H4552     1.0  0.96505  0.40989  0.91721  1.0000
  C   C4560     1.0  0.93625  0.39567  0.88620  1.0000
  H   H4553     1.0  0.87230  0.25237  0.92586  1.0000
  S   S1555     1.0  0.90158  0.30238  0.94852  1.0000
  S   S1556     1.0  0.61269  0.46633  0.88642  1.0000
  C   C4561     1.0  0.60987  0.28758  0.78367  1.0000
  S   S1557     1.0  0.91534  0.27685  0.91744  1.0000
  H   H4554     1.0  0.82680  0.27742  0.93341  1.0000
  C   C4562     1.0  0.75020  0.27766  0.85298  1.0000
  C   C4563     1.0  0.73503  0.27673  0.85420  1.0000
  C   C4564     1.0  0.83492  0.28194  0.95096  1.0000
  C   C4565     1.0  0.73864  0.25323  0.87374  1.0000
  C   C4566     1.0  0.94363  0.42059  0.90973  1.0000
  H   H4555     1.0  0.75012  0.45287  0.78238  1.0000
  H   H4556     1.0  0.56306  0.44944  0.85768  1.0000
  H   H4557     1.0  0.94087  0.43631  0.87235  1.0000
  H   H4558     1.0  0.92166  0.43418  0.80287  1.0000
  H   H4559     1.0  0.62286  0.32612  0.88273  1.0000
  C   C4567     1.0  0.59652  0.29426  0.79323  1.0000
  H   H4560     1.0  0.92999  0.47589  0.85718  1.0000
  C   C4568     1.0  0.93721  0.38239  0.91303  1.0000
  S   S1558     1.0  0.78691  0.37756  0.78183  1.0000
  C   C4569     1.0  0.67597  0.39834  0.81345  1.0000
  Fe  Fe781     1.0  0.93800  0.43033  0.82785  1.0000
  H   H4561     1.0  0.81751  0.40120  0.80156  1.0000
  H   H4562     1.0  0.69038  0.40006  0.82740  1.0000
  H   H4563     1.0  0.66720  0.39456  0.82322  1.0000
  C   C4570     1.0  0.60154  0.44642  0.85180  1.0000
  C   C4571     1.0  0.59416  0.46159  0.85351  1.0000
  C   C4572     1.0  0.83159  0.37907  0.77613  1.0000
  C   C4573     1.0  0.60808  0.45889  0.87315  1.0000
  C   C4574     1.0  0.61544  0.44372  0.87142  1.0000
  C   C4575     1.0  0.61211  0.43745  0.86085  1.0000
  H   H4564     1.0  0.55901  0.26325  0.77449  1.0000
  C   C4576     1.0  0.59223  0.38416  0.76907  1.0000
  H   H4565     1.0  0.62370  0.43677  0.87836  1.0000
  H   H4566     1.0  0.61777  0.42570  0.85969  1.0000
  H   H4567     1.0  0.86123  0.33214  0.85857  1.0000
  S   S1559     1.0  0.49073  0.46931  0.84281  1.0000
  H   H4568     1.0  0.91253  0.37378  0.91147  1.0000
  C   C4577     1.0  0.91514  0.41359  0.81806  1.0000
  C   C4578     1.0  0.91798  0.42378  0.80379  1.0000
  C   C4579     1.0  0.91059  0.40747  0.79173  1.0000
  C   C4580     1.0  0.90707  0.39755  0.80609  1.0000
  C   C4581     1.0  0.90935  0.40062  0.81927  1.0000
  H   H4569     1.0  0.90298  0.38734  0.80698  1.0000
  H   H4570     1.0  0.90695  0.39278  0.83032  1.0000
  H   H4571     1.0  0.94690  0.37613  0.81864  1.0000
  C   C4582     1.0  0.68583  0.40474  0.78590  1.0000
  H   H4572     1.0  0.83819  0.41176  0.78136  1.0000
  H   H4573     1.0  0.57508  0.36467  0.80540  1.0000
  C   C4583     1.0  0.67416  0.40030  0.79847  1.0000
  H   H4574     1.0  0.95907  0.41513  0.78379  1.0000
  C   C4584     1.0  0.67698  0.32456  0.93901  1.0000
  C   C4585     1.0  0.66433  0.44341  0.83435  1.0000
  H   H4575     1.0  0.78994  0.41159  0.79950  1.0000
  H   H4576     1.0  0.68287  0.32591  0.95948  1.0000
  C   C4586     1.0  0.91126  0.34834  0.94574  1.0000
  H   H4577     1.0  0.98153  0.41435  0.89083  1.0000
  H   H4578     1.0  0.90178  0.26716  0.95206  1.0000
  C   C4587     1.0  0.92383  0.36299  0.95481  1.0000
  C   C4588     1.0  0.93686  0.42809  0.89702  1.0000
  H   H4579     1.0  0.71734  0.26372  0.86581  1.0000
  C   C4589     1.0  0.76807  0.35813  0.81981  1.0000
  H   H4580     1.0  0.77611  0.32855  0.84942  1.0000
  C   C4590     1.0  0.73818  0.35756  0.83695  1.0000
  C   C4591     1.0  0.60825  0.34072  0.79078  1.0000
  C   C4592     1.0  0.61847  0.34388  0.79763  1.0000
  C   C4593     1.0  0.61316  0.35497  0.80683  1.0000
  C   C4594     1.0  0.59751  0.36257  0.80958  1.0000
  H   H4581     1.0  0.67108  0.24542  0.84627  1.0000
  C   C4595     1.0  0.59260  0.34819  0.79372  1.0000
  H   H4582     1.0  0.63062  0.33817  0.79537  1.0000
  H   H4583     1.0  0.62122  0.35773  0.81161  1.0000
  H   H4584     1.0  0.67472  0.32108  0.91775  1.0000
  H   H4585     1.0  0.65646  0.23239  0.83673  1.0000
  N   N379      1.0  0.49280  0.39593  0.79982  1.0000
  H   H4586     1.0  0.94141  0.38248  0.77268  1.0000
  S   S1560     1.0  0.91000  0.40309  0.77464  1.0000
  C   C4596     1.0  0.75646  0.46201  0.77871  1.0000
  C   C4597     1.0  0.72440  0.30282  0.92579  1.0000
  C   C4598     1.0  0.68915  0.40135  0.81581  1.0000
  H   H4587     1.0  0.72495  0.29046  0.92632  1.0000
  H   H4588     1.0  0.50041  0.42908  0.80199  1.0000
  C   C4599     1.0  0.90340  0.25530  0.95945  1.0000
  C   C4600     1.0  0.64445  0.35000  0.87164  1.0000
  C   C4601     1.0  0.64609  0.33896  0.88532  1.0000
  C   C4602     1.0  0.65475  0.32382  0.88480  1.0000
  C   C4603     1.0  0.66180  0.31977  0.87057  1.0000
  C   C4604     1.0  0.66055  0.33090  0.85694  1.0000
  C   C4605     1.0  0.65198  0.34601  0.85748  1.0000
  H   H4589     1.0  0.64033  0.34204  0.89631  1.0000
  H   H4590     1.0  0.65570  0.31524  0.89537  1.0000
  H   H4591     1.0  0.66615  0.32783  0.84593  1.0000
  H   H4592     1.0  0.65127  0.35456  0.84693  1.0000
  C   C4606     1.0  0.61095  0.27323  0.78065  1.0000
  H   H4593     1.0  0.68498  0.27887  0.94396  1.0000
  C   C4607     1.0  0.58721  0.35889  0.80327  1.0000
  S   S1561     1.0  0.93862  0.44889  0.83911  1.0000
  C   C4608     1.0  0.72917  0.26446  0.86465  1.0000
  S   S1562     1.0  0.90714  0.35853  0.78348  1.0000
  S   S1563     1.0  0.61530  0.32820  0.77784  1.0000
  H   H4594     1.0  0.72780  0.28552  0.84710  1.0000
  H   H4595     1.0  0.64416  0.42961  0.79922  1.0000
  H   H4596     1.0  0.94853  0.38579  0.91009  1.0000
  C   C4609     1.0  0.91640  0.24576  0.92250  1.0000
  C   C4610     1.0  0.54415  0.45344  0.88824  1.0000
  S   S1564     1.0  0.95869  0.41348  0.95694  1.0000
  N   N380      1.0  0.91954  0.24671  0.95598  1.0000
  C   C4611     1.0  0.50741  0.38855  0.79365  1.0000
  S   S1565     1.0  0.56586  0.29303  0.76881  1.0000
  C   C4612     1.0  0.88453  0.25044  0.92522  1.0000
  S   S1566     1.0  0.65700  0.39831  0.79520  1.0000
  C   C4613     1.0  0.96906  0.41818  0.89252  1.0000
  C   C4614     1.0  0.81690  0.37561  0.78236  1.0000
  C   C4615     1.0  0.75929  0.26628  0.86232  1.0000
  C   C4616     1.0  0.74805  0.29370  0.88718  1.0000
  C   C4617     1.0  0.73295  0.29587  0.88536  1.0000
  C   C4618     1.0  0.72440  0.28441  0.89295  1.0000
  C   C4619     1.0  0.73082  0.27093  0.90263  1.0000
  C   C4620     1.0  0.74577  0.26897  0.90472  1.0000
  C   C4621     1.0  0.75437  0.28032  0.89699  1.0000
  H   H4597     1.0  0.72804  0.30615  0.87769  1.0000
  H   H4598     1.0  0.71307  0.28581  0.89089  1.0000
  H   H4599     1.0  0.75074  0.25862  0.91229  1.0000
  H   H4600     1.0  0.76581  0.27881  0.89885  1.0000
  C   C4622     1.0  0.83674  0.28821  0.89768  1.0000
  C   C4623     1.0  0.82683  0.30289  0.89704  1.0000
  C   C4624     1.0  0.82940  0.31371  0.90364  1.0000
  C   C4625     1.0  0.84192  0.30992  0.91078  1.0000
  C   C4626     1.0  0.85175  0.29524  0.91143  1.0000
  C   C4627     1.0  0.84913  0.28438  0.90500  1.0000
  H   H4601     1.0  0.81715  0.30588  0.89156  1.0000
  H   H4602     1.0  0.82172  0.32508  0.90313  1.0000
  H   H4603     1.0  0.86151  0.29234  0.91667  1.0000
  H   H4604     1.0  0.85692  0.27308  0.90542  1.0000
  C   C4628     1.0  0.83326  0.32450  0.82105  1.0000
  C   C4629     1.0  0.84297  0.31699  0.83139  1.0000
  C   C4630     1.0  0.85599  0.32262  0.83041  1.0000
  C   C4631     1.0  0.85921  0.33579  0.81920  1.0000
  C   C4632     1.0  0.84928  0.34343  0.80916  1.0000
  C   C4633     1.0  0.83635  0.33780  0.81009  1.0000
  H   H4605     1.0  0.84066  0.30666  0.83987  1.0000
  H   H4606     1.0  0.86381  0.31659  0.83802  1.0000
  H   H4607     1.0  0.85154  0.35377  0.80076  1.0000
  H   H4608     1.0  0.82874  0.34374  0.80231  1.0000
  H   H4609     1.0  0.78904  0.33960  0.83550  1.0000
  C   C4634     1.0  0.62944  0.24388  0.87359  1.0000
  C   C4635     1.0  0.63746  0.25468  0.87383  1.0000
  C   C4636     1.0  0.64559  0.25183  0.88546  1.0000
  H   H4610     1.0  0.72652  0.35718  0.84367  1.0000
  S   S1567     1.0  0.97469  0.44691  0.81835  1.0000
  C   C4637     1.0  0.95483  0.40454  0.78711  1.0000
  H   H4611     1.0  0.63779  0.26499  0.86474  1.0000
  H   H4612     1.0  0.65221  0.25992  0.88527  1.0000
  C   C4638     1.0  0.62069  0.32664  0.87166  1.0000
  H   H4613     1.0  0.61251  0.32888  0.83240  1.0000
  C   C4639     1.0  0.91000  0.38536  0.88847  1.0000
  H   H4614     1.0  0.88474  0.27467  0.91785  1.0000
  C   C4640     1.0  0.68033  0.28351  0.95425  1.0000
  S   S1568     1.0  0.93166  0.41701  0.92821  1.0000
  H   H4615     1.0  0.60327  0.39698  0.78513  1.0000
  C   C4641     1.0  0.77428  0.24510  0.81911  1.0000
  H   H4616     1.0  0.52979  0.46673  0.90507  1.0000
  H   H4617     1.0  0.73395  0.24381  0.88198  1.0000
  C   C4642     1.0  0.79073  0.24516  0.84050  1.0000
  C   C4643     1.0  0.78618  0.25882  0.83000  1.0000
  C   C4644     1.0  0.77777  0.25884  0.81948  1.0000
  N   N381      1.0  0.64741  0.44097  0.81487  1.0000
  H   H4618     1.0  0.82896  0.29408  0.94921  1.0000
  H   H4619     1.0  0.78933  0.26933  0.82977  1.0000
  H   H4620     1.0  0.77432  0.26941  0.81132  1.0000
  C   C4645     1.0  0.63848  0.43981  0.80455  1.0000
  S   S1569     1.0  0.87416  0.29124  0.94095  1.0000
  C   C4646     1.0  0.64568  0.23817  0.89688  1.0000
  C   C4647     1.0  0.90734  0.26086  0.92000  1.0000
  C   C4648     1.0  0.75092  0.34623  0.84124  1.0000
  H   H4621     1.0  0.92439  0.43193  0.89875  1.0000
  H   H4622     1.0  0.68455  0.40618  0.77429  1.0000
  C   C4649     1.0  0.66325  0.43660  0.81139  1.0000
  N   N382      1.0  0.86689  0.31064  0.87404  1.0000
  C   C4650     1.0  0.87731  0.31069  0.88204  1.0000
  C   C4651     1.0  0.86719  0.29742  0.86981  1.0000
  C   C4652     1.0  0.88822  0.29716  0.88630  1.0000
  C   C4653     1.0  0.87790  0.28368  0.87393  1.0000
  C   C4654     1.0  0.88845  0.28357  0.88224  1.0000
  C   C4655     1.0  0.85574  0.32501  0.86948  1.0000
  H   H4623     1.0  0.87701  0.32115  0.88545  1.0000
  H   H4624     1.0  0.85883  0.29730  0.86361  1.0000
  H   H4625     1.0  0.89634  0.29712  0.89286  1.0000
  H   H4626     1.0  0.87775  0.27313  0.87094  1.0000
  H   H4627     1.0  0.89670  0.27296  0.88569  1.0000
  H   H4628     1.0  0.62741  0.45110  0.82996  1.0000
  H   H4629     1.0  0.84528  0.32256  0.86772  1.0000
  H   H4630     1.0  0.85165  0.33184  0.87862  1.0000
  H   H4631     1.0  0.57276  0.25621  0.79675  1.0000
  H   H4632     1.0  0.78354  0.43278  0.77733  1.0000
  C   C4656     1.0  0.66431  0.28824  0.95932  1.0000
  H   H4633     1.0  0.71045  0.31371  0.95155  1.0000
  C   C4657     1.0  0.91730  0.38119  0.90086  1.0000
  H   H4634     1.0  0.64213  0.45292  0.84775  1.0000
  C   C4658     1.0  0.91790  0.33469  0.95505  1.0000
  S   S1570     1.0  0.87344  0.38401  0.78899  1.0000
  C   C4659     1.0  0.82617  0.41668  0.78062  1.0000
  H   H4635     1.0  0.50995  0.27401  0.77006  1.0000
  H   H4636     1.0  0.62560  0.30406  0.84700  1.0000
  N   N383      1.0  0.76564  0.34675  0.83278  1.0000
  H   H4637     1.0  0.89556  0.24940  0.95711  1.0000
  Fe  Fe782     1.0  0.94379  0.40439  0.94769  1.0000
  H   H4638     1.0  0.62449  0.29093  0.87902  1.0000
  N   N384      1.0  0.84191  0.25737  0.94362  1.0000
  C   C4660     1.0  0.67194  0.43765  0.82111  1.0000
  H   H4639     1.0  0.65061  0.37227  0.77515  1.0000
  C   C4661     1.0  0.79909  0.41638  0.79088  1.0000
  C   C4662     1.0  0.54143  0.46077  0.90041  1.0000
  S   S1571     1.0  0.65160  0.28714  0.94882  1.0000
  C   C4663     1.0  0.92918  0.40015  0.87362  1.0000
  C   C4664     1.0  0.94820  0.38252  0.80677  1.0000
  H   H4640     1.0  0.55188  0.43514  0.86859  1.0000
  H   H4641     1.0  0.64310  0.29324  0.86645  1.0000
  H   H4642     1.0  0.91829  0.42853  0.77963  1.0000
  H   H4643     1.0  0.63744  0.45047  0.79531  1.0000
  N   N385      1.0  0.55890  0.44651  0.88189  1.0000
  C   C4665     1.0  0.81452  0.41060  0.79207  1.0000
  H   H4644     1.0  0.83033  0.24237  0.93969  1.0000
  H   H4645     1.0  0.83924  0.25452  0.92242  1.0000
  Fe  Fe783     1.0  0.97403  0.38960  0.95838  1.0000
  C   C4666     1.0  0.62222  0.31438  0.85171  1.0000
  C   C4667     1.0  0.79548  0.42819  0.77839  1.0000
  H   H4646     1.0  0.89973  0.38123  0.88953  1.0000
  H   H4647     1.0  0.92941  0.38862  0.92200  1.0000
  H   H4648     1.0  0.84084  0.37369  0.78223  1.0000
  H   H4649     1.0  0.60486  0.35263  0.84304  1.0000
  H   H4650     1.0  0.57879  0.45454  0.90333  1.0000
  S   S1572     1.0  0.65745  0.23331  0.91026  1.0000
  N   N386      1.0  0.95014  0.39979  0.77675  1.0000
  C   C4668     1.0  0.75561  0.36965  0.81523  1.0000
  H   H4651     1.0  0.63046  0.39191  0.78757  1.0000
  C   C4669     1.0  0.69040  0.28503  0.96234  1.0000
  S   S1573     1.0  0.74475  0.39202  0.77446  1.0000
  C   C4670     1.0  0.95385  0.39603  0.80227  1.0000
  H   H4652     1.0  0.73152  0.30316  0.93354  1.0000
  H   H4653     1.0  0.55203  0.46753  0.91480  1.0000
  H   H4654     1.0  0.58461  0.34596  0.78849  1.0000
  C   C4671     1.0  0.61347  0.34085  0.86358  1.0000
  C   C4672     1.0  0.61485  0.32836  0.84341  1.0000
  C   C4673     1.0  0.94658  0.24637  0.94513  1.0000
  H   H4655     1.0  0.73084  0.37826  0.82036  1.0000
  C   C4674     1.0  0.70060  0.40623  0.80321  1.0000
  C   C4675     1.0  0.61052  0.34168  0.84938  1.0000
  H   H4656     1.0  0.67091  0.44413  0.84208  1.0000
  H   H4657     1.0  0.58284  0.44107  0.88246  1.0000
  H   H4658     1.0  0.78223  0.32594  0.82983  1.0000
  H   H4659     1.0  0.75759  0.37871  0.80498  1.0000
  N   N387      1.0  0.58541  0.27255  0.79642  1.0000
  C   C4676     1.0  0.58432  0.28654  0.79955  1.0000
  C   C4677     1.0  0.59858  0.26576  0.78727  1.0000
  C   C4678     1.0  0.57267  0.26448  0.80353  1.0000
  C   C4679     1.0  0.77886  0.23141  0.82959  1.0000
  H   H4660     1.0  0.59952  0.25454  0.78503  1.0000
  H   H4661     1.0  0.74591  0.47113  0.79922  1.0000
  H   H4662     1.0  0.93927  0.36714  0.79939  1.0000
  C   C4680     1.0  0.59733  0.46779  0.86425  1.0000
  Fe  Fe784     1.0  0.95057  0.45949  0.81529  1.0000
  S   S1574     1.0  0.49210  0.47434  0.79773  1.0000
  C   C4681     1.0  0.62740  0.38574  0.78084  1.0000
  C   C4682     1.0  0.75405  0.47238  0.78820  1.0000
  C   C4683     1.0  0.94395  0.37747  0.79599  1.0000
  N   N388      1.0  0.75344  0.25435  0.87260  1.0000
  S   S1575     1.0  0.86647  0.32516  0.94951  1.0000
  H   H4663     1.0  0.57391  0.29189  0.80682  1.0000
  H   H4664     1.0  0.77206  0.24708  0.88429  1.0000
  H   H4665     1.0  0.95571  0.25255  0.93894  1.0000
  C   C4684     1.0  0.51741  0.41038  0.79296  1.0000
  Fe  Fe785     1.0  0.88207  0.35806  0.79429  1.0000
  H   H4666     1.0  0.74897  0.33703  0.85139  1.0000
  H   H4667     1.0  0.95720  0.40008  0.81051  1.0000
  C   C4685     1.0  0.56168  0.44012  0.86827  1.0000
  C   C4686     1.0  0.94618  0.43057  0.88207  1.0000
  C   C4687     1.0  0.95010  0.23022  0.94954  1.0000
  H   H4668     1.0  0.61036  0.35119  0.86826  1.0000
  C   C4688     1.0  0.85070  0.25113  0.95450  1.0000
  C   C4689     1.0  0.83933  0.32742  0.77800  1.0000
  H   H4669     1.0  0.90886  0.37311  0.93880  1.0000
  C   C4690     1.0  0.95974  0.41563  0.90746  1.0000
  H   H4670     1.0  0.77971  0.35834  0.81289  1.0000
  H   H4671     1.0  0.50819  0.34772  0.76745  1.0000
  H   H4672     1.0  0.52698  0.41612  0.79010  1.0000
  S   S1576     1.0  0.89890  0.34837  0.93427  1.0000
  C   C4691     1.0  0.63268  0.29882  0.87414  1.0000
  C   C4692     1.0  0.91596  0.39497  0.87479  1.0000
  H   H4673     1.0  0.80397  0.34713  0.77088  1.0000
  H   H4674     1.0  0.77108  0.26703  0.86132  1.0000
  H   H4675     1.0  0.59560  0.30543  0.79561  1.0000
  C   C4693     1.0  0.96230  0.42557  0.87980  1.0000
  C   C4694     1.0  0.66867  0.23423  0.85268  1.0000
  Fe  Fe786     1.0  0.96254  0.43499  0.84127  1.0000
  H   H4676     1.0  0.66470  0.32935  0.94272  1.0000
  N   N389      1.0  0.70820  0.31094  0.93016  1.0000
  C   C4695     1.0  0.91582  0.42069  0.79067  1.0000
  H   H4677     1.0  0.53448  0.45389  0.88348  1.0000
  C   C4696     1.0  0.92747  0.33522  0.96427  1.0000
  H   H4678     1.0  0.91568  0.32374  0.95518  1.0000
  H   H4679     1.0  0.48654  0.46140  0.77548  1.0000
  H   H4680     1.0  0.58601  0.46858  0.84648  1.0000
  H   H4681     1.0  0.72973  0.30822  0.91386  1.0000
  N   N390      1.0  0.62516  0.31369  0.86559  1.0000
  C   C4697     1.0  0.76336  0.24229  0.88190  1.0000
  C   C4698     1.0  0.69905  0.40767  0.78825  1.0000
  Fe  Fe787     1.0  0.76790  0.39637  0.77296  1.0000
  C   C4699     1.0  0.55393  0.46125  0.90585  1.0000
  H   H4682     1.0  0.81474  0.36757  0.79329  1.0000
  C   C4700     1.0  0.63990  0.44712  0.82753  1.0000
  C   C4701     1.0  0.69836  0.31301  0.92076  1.0000
  H   H4683     1.0  0.70263  0.30910  0.91000  1.0000
  S   S1577     1.0  0.71639  0.41122  0.80624  1.0000
  H   H4684     1.0  0.68451  0.43387  0.81844  1.0000
  C   C4702     1.0  0.77885  0.33462  0.83712  1.0000
  C   C4703     1.0  0.81649  0.34388  0.76950  1.0000
  H   H4685     1.0  0.50942  0.37717  0.79123  1.0000
  H   H4686     1.0  0.63681  0.30034  0.88369  1.0000
  Fe  Fe788     1.0  0.73516  0.41303  0.78468  1.0000
  H   H4687     1.0  0.58383  0.38741  0.77953  1.0000
  C   C4704     1.0  0.64820  0.44830  0.83755  1.0000
  Fe  Fe789     1.0  0.89809  0.38421  0.77652  1.0000
  H   H4688     1.0  0.70280  0.28173  0.95813  1.0000
  H   H4689     1.0  0.62665  0.43822  0.81095  1.0000
  C   C4705     1.0  0.62903  0.23057  0.88538  1.0000
  H   H4690     1.0  0.93383  0.40770  0.86303  1.0000
  H   H4691     1.0  0.53145  0.38989  0.78483  1.0000
  H   H4692     1.0  0.56128  0.27284  0.80399  1.0000
  H   H4693     1.0  0.57382  0.25781  0.81531  1.0000
  H   H4694     1.0  0.81611  0.32432  0.78881  1.0000
  H   H4695     1.0  0.58239  0.23467  0.78289  1.0000
  H   H4696     1.0  0.92591  0.37399  0.95475  1.0000
  H   H4697     1.0  0.87567  0.36149  0.95943  1.0000
  C   C4706     1.0  0.85188  0.26022  0.96382  1.0000
  C   C4707     1.0  0.50253  0.41766  0.79961  1.0000
  S   S1578     1.0  0.87696  0.35461  0.77329  1.0000
  C   C4708     1.0  0.90935  0.23301  0.92714  1.0000
  C   C4709     1.0  0.63875  0.37468  0.77382  1.0000
  H   H4698     1.0  0.84463  0.31773  0.78607  1.0000
  C   C4710     1.0  0.49032  0.41014  0.80313  1.0000
  H   H4699     1.0  0.75639  0.23741  0.89322  1.0000
  H   H4700     1.0  0.92852  0.26704  0.94496  1.0000
  C   C4711     1.0  0.80491  0.38267  0.77449  1.0000
  H   H4701     1.0  0.97545  0.35025  0.96274  1.0000
  H   H4702     1.0  0.85110  0.23816  0.93250  1.0000
  C   C4712     1.0  0.94518  0.38622  0.78088  1.0000
  C   C4713     1.0  0.61209  0.38861  0.77931  1.0000
  Fe  Fe790     1.0  0.87696  0.30053  0.95957  1.0000
  N   N391      1.0  0.60822  0.38065  0.77097  1.0000
  H   H4703     1.0  0.85706  0.23912  0.95584  1.0000
  H   H4704     1.0  0.53297  0.28644  0.77102  1.0000
  C   C4714     1.0  0.84391  0.27570  0.96203  1.0000
  S   S1579     1.0  0.57335  0.32930  0.77487  1.0000
  C   C4715     1.0  0.93037  0.34940  0.96423  1.0000
  H   H4705     1.0  0.65521  0.24952  0.96555  1.0000
  Fe  Fe791     1.0  0.87077  0.38056  0.76693  1.0000
  H   H4706     1.0  0.62127  0.26791  0.77325  1.0000
  C   C4716     1.0  0.63716  0.22770  0.89698  1.0000
  H   H4707     1.0  0.88424  0.37310  0.96571  1.0000
  H   H4708     1.0  0.56665  0.62179  0.12092  1.0000
  C   C4717     1.0  0.93768  0.69329  0.99559  1.0000
  H   H4709     1.0  0.56185  0.51800  0.01048  1.0000
  N   N392      1.0  0.69428  0.51969  0.12952  1.0000
  H   H4710     1.0  0.83722  0.70838  0.15331  1.0000
  H   H4711     1.0  0.76281  0.51810  0.15312  1.0000
  N   N393      1.0  0.69104  0.65332  0.09981  1.0000
  H   H4712     1.0  0.63301  0.54930  0.02749  1.0000
  H   H4713     1.0  0.72458  0.57539  0.15232  1.0000
  H   H4714     1.0  0.51785  0.50907  0.03632  1.0000
  S   S1580     1.0  0.96425  0.55778  0.11014  1.0000
  Fe  Fe792     1.0  0.87264  0.62503  0.15815  1.0000
  C   C4718     1.0  0.65052  0.71404  0.99864  1.0000
  H   H4715     1.0  0.79392  0.67807  0.10827  1.0000
  C   C4719     1.0  0.69973  0.63020  0.11790  1.0000
  Fe  Fe793     1.0  0.96568  0.69431  0.01318  1.0000
  C   C4720     1.0  0.68679  0.64469  0.09247  1.0000
  C   C4721     1.0  0.52606  0.54112  0.00983  1.0000
  H   H4716     1.0  0.94800  0.68489  0.99805  1.0000
  Fe  Fe794     1.0  0.51812  0.61228  0.14948  1.0000
  S   S1581     1.0  0.51681  0.58787  0.15123  1.0000
  S   S1582     1.0  0.64858  0.70922  0.97146  1.0000
  Fe  Fe795     1.0  0.67327  0.72045  0.03999  1.0000
  H   H4717     1.0  0.59943  0.49054  0.97413  1.0000
  H   H4718     1.0  0.71323  0.68216  0.96791  1.0000
  H   H4719     1.0  0.71817  0.51814  0.12827  1.0000
  S   S1583     1.0  0.50388  0.62254  0.13157  1.0000
  C   C4722     1.0  0.72892  0.71396  0.08598  1.0000
  H   H4720     1.0  0.65653  0.49687  0.05108  1.0000
  S   S1584     1.0  0.86214  0.70667  0.96968  1.0000
  H   H4721     1.0  0.93554  0.57248  0.12982  1.0000
  N   N394      1.0  0.64920  0.52019  0.05368  1.0000
  H   H4722     1.0  0.51436  0.64152  0.15662  1.0000
  N   N395      1.0  0.93226  0.61142  0.10366  1.0000
  C   C4723     1.0  0.59194  0.51178  0.98234  1.0000
  C   C4724     1.0  0.88318  0.70901  0.02906  1.0000
  S   S1585     1.0  0.96294  0.48482  0.07396  1.0000
  H   H4723     1.0  0.84197  0.72058  0.13456  1.0000
  C   C4725     1.0  0.77673  0.66357  0.13333  1.0000
  C   C4726     1.0  0.60675  0.64268  0.09942  1.0000
  Fe  Fe796     1.0  0.50064  0.59841  0.13512  1.0000
  H   H4724     1.0  0.68174  0.60930  0.15131  1.0000
  S   S1586     1.0  0.88045  0.64590  0.15859  1.0000
  Fe  Fe797     1.0  0.78217  0.72587  0.10914  1.0000
  H   H4725     1.0  0.80841  0.72234  0.05965  1.0000
  H   H4726     1.0  0.90872  0.58609  0.12743  1.0000
  C   C4727     1.0  0.59275  0.72557  0.12744  1.0000
  S   S1587     1.0  0.78524  0.70272  0.12572  1.0000
  Fe  Fe798     1.0  0.58958  0.52969  0.01519  1.0000
  C   C4728     1.0  0.62716  0.69362  0.11866  1.0000
  H   H4727     1.0  0.74706  0.72181  0.09027  1.0000
  H   H4728     1.0  0.84072  0.70202  0.11164  1.0000
  C   C4729     1.0  0.91877  0.61884  0.11190  1.0000
  C   C4730     1.0  0.86901  0.69722  0.01832  1.0000
  C   C4731     1.0  0.83468  0.68587  0.13297  1.0000
  H   H4729     1.0  0.63597  0.52100  0.03784  1.0000
  C   C4732     1.0  0.82279  0.67927  0.14342  1.0000
  C   C4733     1.0  0.69694  0.68454  0.99554  1.0000
  H   H4730     1.0  0.66078  0.50125  0.13123  1.0000
  C   C4734     1.0  0.97185  0.51581  0.09245  1.0000
  C   C4735     1.0  0.67015  0.50645  0.13082  1.0000
  N   N396      1.0  0.69178  0.68124  0.98458  1.0000
  H   H4731     1.0  0.62298  0.68501  0.11540  1.0000
  Fe  Fe799     1.0  0.65682  0.70214  0.06941  1.0000
  S   S1588     1.0  0.68131  0.69791  0.05583  1.0000
  S   S1589     1.0  0.64251  0.68473  0.08312  1.0000
  Fe  Fe800     1.0  0.68540  0.71293  0.06902  1.0000
  S   S1590     1.0  0.70589  0.70407  0.08039  1.0000
  C   C4736     1.0  0.55155  0.54054  0.07986  1.0000
  C   C4737     1.0  0.80987  0.60719  0.16134  1.0000
  S   S1591     1.0  0.66159  0.71513  0.08400  1.0000
  C   C4738     1.0  0.81902  0.71836  0.03680  1.0000
  N   N397      1.0  0.54061  0.51208  0.02423  1.0000
  H   H4732     1.0  0.69071  0.72456  0.98217  1.0000
  Fe  Fe801     1.0  0.66786  0.57574  0.11830  1.0000
  S   S1592     1.0  0.67093  0.57442  0.09376  1.0000
  S   S1593     1.0  0.68739  0.56380  0.13067  1.0000
  Fe  Fe802     1.0  0.63485  0.59443  0.12002  1.0000
  S   S1594     1.0  0.63495  0.59482  0.09565  1.0000
  S   S1595     1.0  0.61305  0.60469  0.13554  1.0000
  Fe  Fe803     1.0  0.64698  0.56969  0.10092  1.0000
  S   S1596     1.0  0.64222  0.54931  0.09507  1.0000
  Fe  Fe804     1.0  0.65873  0.59954  0.09053  1.0000
  S   S1597     1.0  0.66748  0.61735  0.07021  1.0000
  S   S1598     1.0  0.64495  0.56886  0.12587  1.0000
  S   S1599     1.0  0.65767  0.60122  0.11449  1.0000
  Fe  Fe805     1.0  0.61099  0.50777  0.03558  1.0000
  S   S1600     1.0  0.61100  0.53177  0.02091  1.0000
  H   H4733     1.0  0.72471  0.53594  0.15576  1.0000
  Fe  Fe806     1.0  0.57635  0.51526  0.04821  1.0000
  S   S1601     1.0  0.57379  0.53988  0.03499  1.0000
  S   S1602     1.0  0.55663  0.50467  0.06384  1.0000
  H   H4734     1.0  0.59703  0.50686  0.99231  1.0000
  Fe  Fe807     1.0  0.59533  0.53950  0.04206  1.0000
  S   S1603     1.0  0.59763  0.55975  0.05005  1.0000
  S   S1604     1.0  0.59093  0.50496  0.02810  1.0000
  S   S1605     1.0  0.59659  0.51566  0.05702  1.0000
  H   H4735     1.0  0.93759  0.60855  0.08068  1.0000
  H   H4736     1.0  0.69208  0.68659  0.01919  1.0000
  C   C4739     1.0  0.52478  0.51656  0.02767  1.0000
  C   C4740     1.0  0.58428  0.52737  0.97956  1.0000
  H   H4737     1.0  0.65579  0.49918  0.07001  1.0000
  C   C4741     1.0  0.92965  0.69105  0.98585  1.0000
  H   H4738     1.0  0.91991  0.60294  0.09238  1.0000
  C   C4742     1.0  0.81693  0.66541  0.11040  1.0000
  H   H4739     1.0  0.49270  0.57647  0.09435  1.0000
  H   H4740     1.0  0.69692  0.60888  0.11469  1.0000
  H   H4741     1.0  0.68520  0.62187  0.09193  1.0000
  H   H4742     1.0  0.93836  0.59083  0.09522  1.0000
  C   C4743     1.0  0.59842  0.64274  0.15382  1.0000
  S   S1606     1.0  0.63386  0.49066  0.03629  1.0000
  C   C4744     1.0  0.92558  0.59149  0.15902  1.0000
  H   H4743     1.0  0.79666  0.64071  0.14745  1.0000
  C   C4745     1.0  0.58776  0.65709  0.11715  1.0000
  H   H4744     1.0  0.70486  0.62460  0.12786  1.0000
  C   C4746     1.0  0.69365  0.57551  0.13878  1.0000
  C   C4747     1.0  0.68409  0.58949  0.14206  1.0000
  C   C4748     1.0  0.68921  0.59849  0.14881  1.0000
  C   C4749     1.0  0.70379  0.59342  0.15260  1.0000
  C   C4750     1.0  0.71328  0.57933  0.14952  1.0000
  C   C4751     1.0  0.70825  0.57046  0.14254  1.0000
  H   H4745     1.0  0.67264  0.59328  0.13964  1.0000
  C   C4752     1.0  0.97291  0.61845  0.05443  1.0000
  S   S1607     1.0  0.85330  0.68097  0.13660  1.0000
  H   H4746     1.0  0.71573  0.55973  0.13992  1.0000
  C   C4753     1.0  0.62847  0.55263  0.08383  1.0000
  C   C4754     1.0  0.62390  0.53994  0.08221  1.0000
  C   C4755     1.0  0.61427  0.54198  0.07207  1.0000
  C   C4756     1.0  0.60900  0.55678  0.06358  1.0000
  C   C4757     1.0  0.61311  0.56954  0.06561  1.0000
  C   C4758     1.0  0.62288  0.56748  0.07563  1.0000
  H   H4747     1.0  0.62810  0.52843  0.08859  1.0000
  H   H4748     1.0  0.61109  0.53208  0.07072  1.0000
  H   H4749     1.0  0.60905  0.58103  0.05911  1.0000
  H   H4750     1.0  0.62638  0.57733  0.07670  1.0000
  H   H4751     1.0  0.52125  0.56598  0.09619  1.0000
  C   C4759     1.0  0.91623  0.70186  0.98260  1.0000
  C   C4760     1.0  0.67197  0.71854  0.97709  1.0000
  C   C4761     1.0  0.96971  0.49281  0.08551  1.0000
  H   H4752     1.0  0.77358  0.67276  0.14003  1.0000
  C   C4762     1.0  0.65807  0.71708  0.00837  1.0000
  C   C4763     1.0  0.70689  0.52670  0.12910  1.0000
  H   H4753     1.0  0.68194  0.65023  0.08241  1.0000
  C   C4764     1.0  0.48922  0.57680  0.11829  1.0000
  C   C4765     1.0  0.54930  0.52163  0.01344  1.0000
  C   C4766     1.0  0.64921  0.66627  0.07894  1.0000
  C   C4767     1.0  0.65966  0.66384  0.06515  1.0000
  C   C4768     1.0  0.66504  0.64880  0.06231  1.0000
  C   C4769     1.0  0.66001  0.63625  0.07328  1.0000
  C   C4770     1.0  0.64944  0.63879  0.08693  1.0000
  C   C4771     1.0  0.64408  0.65376  0.08977  1.0000
  H   H4754     1.0  0.66357  0.67352  0.05672  1.0000
  H   H4755     1.0  0.67321  0.64684  0.05171  1.0000
  H   H4756     1.0  0.64534  0.62923  0.09531  1.0000
  H   H4757     1.0  0.63609  0.65560  0.10048  1.0000
  H   H4758     1.0  0.65971  0.55080  0.05818  1.0000
  C   C4772     1.0  0.56318  0.54852  0.07721  1.0000
  C   C4773     1.0  0.68275  0.49753  0.13720  1.0000
  S   S1608     1.0  0.97058  0.59043  0.07412  1.0000
  H   H4759     1.0  0.77098  0.66810  0.12340  1.0000
  H   H4760     1.0  0.48783  0.48927  0.14468  1.0000
  C   C4774     1.0  0.53635  0.54691  0.08657  1.0000
  H   H4761     1.0  0.93381  0.68088  0.98090  1.0000
  C   C4775     1.0  0.91868  0.71695  0.99916  1.0000
  H   H4762     1.0  0.73298  0.70196  0.09127  1.0000
  C   C4776     1.0  0.68183  0.52860  0.12350  1.0000
  H   H4763     1.0  0.60393  0.61986  0.10119  1.0000
  C   C4777     1.0  0.90439  0.59753  0.14608  1.0000
  H   H4764     1.0  0.82526  0.63486  0.13953  1.0000
  C   C4778     1.0  0.70081  0.68286  0.96866  1.0000
  C   C4779     1.0  0.68821  0.68342  0.01067  1.0000
  C   C4780     1.0  0.60346  0.71133  0.12875  1.0000
  H   H4765     1.0  0.70766  0.68849  0.99256  1.0000
  H   H4766     1.0  0.90699  0.68744  0.01842  1.0000
  S   S1609     1.0  0.98199  0.58286  0.11376  1.0000
  H   H4767     1.0  0.67327  0.67541  0.97932  1.0000
  C   C4781     1.0  0.54217  0.53631  0.00614  1.0000
  H   H4768     1.0  0.93372  0.63175  0.13436  1.0000
  C   C4782     1.0  0.65485  0.54426  0.05332  1.0000
  C   C4783     1.0  0.88210  0.67688  0.00444  1.0000
  H   H4769     1.0  0.50474  0.53491  0.02387  1.0000
  C   C4784     1.0  0.96528  0.50887  0.08479  1.0000
  C   C4785     1.0  0.93190  0.60308  0.09244  1.0000
  C   C4786     1.0  0.54831  0.49669  0.03165  1.0000
  H   H4770     1.0  0.55434  0.52941  0.07676  1.0000
  H   H4771     1.0  0.95699  0.51602  0.07799  1.0000
  H   H4772     1.0  0.90353  0.60708  0.16513  1.0000
  H   H4773     1.0  0.70125  0.65304  0.11797  1.0000
  C   C4787     1.0  0.80763  0.68426  0.14099  1.0000
  C   C4788     1.0  0.80439  0.69576  0.12806  1.0000
  Fe  Fe808     1.0  0.88278  0.71493  0.97003  1.0000
  H   H4774     1.0  0.79837  0.67946  0.14932  1.0000
  C   C4789     1.0  0.89604  0.68718  0.01635  1.0000
  C   C4790     1.0  0.51727  0.53117  0.02061  1.0000
  H   H4775     1.0  0.65744  0.67321  0.00588  1.0000
  H   H4776     1.0  0.90836  0.63174  0.12985  1.0000
  C   C4791     1.0  0.59915  0.63040  0.10554  1.0000
  H   H4777     1.0  0.56865  0.56895  0.07912  1.0000
  H   H4778     1.0  0.63814  0.50129  0.06417  1.0000
  N   N398      1.0  0.88268  0.69726  0.02140  1.0000
  Fe  Fe809     1.0  0.85687  0.65891  0.15447  1.0000
  C   C4792     1.0  0.63981  0.54343  0.03615  1.0000
  H   H4779     1.0  0.70438  0.49751  0.14173  1.0000
  H   H4780     1.0  0.52726  0.49665  0.07842  1.0000
  H   H4781     1.0  0.88197  0.66931  0.99738  1.0000
  N   N399      1.0  0.61606  0.70859  0.11702  1.0000
  Fe  Fe810     1.0  0.96917  0.56499  0.12926  1.0000
  H   H4782     1.0  0.53806  0.58168  0.10558  1.0000
  H   H4783     1.0  0.75906  0.50300  0.13649  1.0000
  H   H4784     1.0  0.82518  0.67064  0.15360  1.0000
  H   H4785     1.0  0.66694  0.67861  0.02608  1.0000
  S   S1610     1.0  0.84996  0.63846  0.15206  1.0000
  C   C4793     1.0  0.67403  0.67907  0.01450  1.0000
  S   S1611     1.0  0.88602  0.60813  0.14304  1.0000
  C   C4794     1.0  0.50710  0.53062  0.06033  1.0000
  C   C4795     1.0  0.51951  0.53776  0.05241  1.0000
  C   C4796     1.0  0.53471  0.53001  0.05367  1.0000
  C   C4797     1.0  0.53759  0.51512  0.06292  1.0000
  C   C4798     1.0  0.69759  0.64627  0.11229  1.0000
  C   C4799     1.0  0.94705  0.61893  0.11688  1.0000
  H   H4786     1.0  0.51739  0.54916  0.04499  1.0000
  H   H4787     1.0  0.54413  0.53552  0.04725  1.0000
  C   C4800     1.0  0.58029  0.64468  0.12281  1.0000
  C   C4801     1.0  0.61010  0.65097  0.14654  1.0000
  N   N400      1.0  0.54452  0.56900  0.08800  1.0000
  Fe  Fe811     1.0  0.97909  0.57420  0.09467  1.0000
  C   C4802     1.0  0.53304  0.56118  0.09073  1.0000
  H   H4788     1.0  0.57503  0.54366  0.07197  1.0000
  S   S1612     1.0  0.97279  0.66879  0.01354  1.0000
  H   H4789     1.0  0.68127  0.54080  0.11827  1.0000
  S   S1613     1.0  0.94127  0.70853  0.01550  1.0000
  C   C4803     1.0  0.93472  0.58187  0.14893  1.0000
  H   H4790     1.0  0.52721  0.54080  0.08857  1.0000
  C   C4804     1.0  0.59960  0.62841  0.15054  1.0000
  C   C4805     1.0  0.61233  0.62235  0.13982  1.0000
  C   C4806     1.0  0.62392  0.63069  0.13238  1.0000
  C   C4807     1.0  0.62284  0.64494  0.13580  1.0000
  H   H4791     1.0  0.81410  0.71030  0.10700  1.0000
  H   H4792     1.0  0.61711  0.64171  0.09029  1.0000
  H   H4793     1.0  0.63365  0.62624  0.12396  1.0000
  H   H4794     1.0  0.63190  0.65129  0.13011  1.0000
  C   C4808     1.0  0.55946  0.56284  0.08133  1.0000
  S   S1614     1.0  0.90609  0.69859  0.97077  1.0000
  C   C4809     1.0  0.50989  0.51589  0.06992  1.0000
  S   S1615     1.0  0.54101  0.61761  0.14787  1.0000
  C   C4810     1.0  0.65604  0.52832  0.05918  1.0000
  H   H4795     1.0  0.81428  0.70831  0.03869  1.0000
  S   S1616     1.0  0.50239  0.58865  0.11473  1.0000
  C   C4811     1.0  0.60107  0.65606  0.10536  1.0000
  H   H4796     1.0  0.67769  0.67523  0.09053  1.0000
  C   C4812     1.0  0.69472  0.50443  0.13657  1.0000
  H   H4797     1.0  0.59063  0.62200  0.15632  1.0000
  H   H4798     1.0  0.90760  0.61850  0.11044  1.0000
  C   C4813     1.0  0.92864  0.58002  0.13749  1.0000
  C   C4814     1.0  0.57831  0.61851  0.12364  1.0000
  H   H4799     1.0  0.60707  0.66554  0.10093  1.0000
  H   H4800     1.0  0.64500  0.56432  0.03763  1.0000
  C   C4815     1.0  0.83151  0.69702  0.11982  1.0000
  C   C4816     1.0  0.86849  0.68704  0.00983  1.0000
  C   C4817     1.0  0.93205  0.70611  0.00245  1.0000
  H   H4801     1.0  0.57695  0.61526  0.13635  1.0000
  S   S1617     1.0  0.95371  0.57226  0.15075  1.0000
  H   H4802     1.0  0.96862  0.52823  0.09152  1.0000
  H   H4803     1.0  0.66201  0.52268  0.06851  1.0000
  C   C4818     1.0  0.91093  0.71493  0.98907  1.0000
  N   N401      1.0  0.58614  0.63148  0.11715  1.0000
  H   H4804     1.0  0.85846  0.70538  0.02209  1.0000
  C   C4819     1.0  0.91912  0.62637  0.12296  1.0000
  H   H4805     1.0  0.50039  0.51023  0.07593  1.0000
  H   H4806     1.0  0.82252  0.67283  0.10033  1.0000
  C   C4820     1.0  0.89594  0.67681  0.00785  1.0000
  H   H4807     1.0  0.69846  0.67255  0.08337  1.0000
  C   C4821     1.0  0.93335  0.62627  0.12555  1.0000
  C   C4822     1.0  0.68871  0.62863  0.09777  1.0000
  C   C4823     1.0  0.68913  0.67011  0.09374  1.0000
  C   C4824     1.0  0.69524  0.62136  0.11056  1.0000
  C   C4825     1.0  0.94627  0.61161  0.10585  1.0000
  C   C4826     1.0  0.66961  0.52211  0.12399  1.0000
  H   H4808     1.0  0.52039  0.55258  0.00445  1.0000
  H   H4809     1.0  0.68972  0.67625  0.10228  1.0000
  C   C4827     1.0  0.82824  0.72354  0.02243  1.0000
  H   H4810     1.0  0.89319  0.70525  0.03474  1.0000
  C   C4828     1.0  0.52512  0.50817  0.07122  1.0000
  C   C4829     1.0  0.81641  0.70183  0.11727  1.0000
  C   C4830     1.0  0.73005  0.52921  0.16525  1.0000
  Fe  Fe812     1.0  0.84886  0.72221  0.98618  1.0000
  S   S1618     1.0  0.70978  0.60498  0.16108  1.0000
  S   S1619     1.0  0.58254  0.53940  0.99217  1.0000
  H   H4811     1.0  0.63935  0.71098  0.00329  1.0000
  C   C4831     1.0  0.97856  0.63211  0.04859  1.0000
  C   C4832     1.0  0.66872  0.67601  0.00319  1.0000
  H   H4812     1.0  0.55032  0.59001  0.08805  1.0000
  H   H4813     1.0  0.83839  0.65121  0.11619  1.0000
  H   H4814     1.0  0.90667  0.66926  0.00334  1.0000
  H   H4815     1.0  0.70817  0.53657  0.11903  1.0000
  H   H4816     1.0  0.58509  0.60795  0.11928  1.0000
  H   H4817     1.0  0.56997  0.64553  0.13199  1.0000
  H   H4818     1.0  0.82890  0.61523  0.16348  1.0000
  H   H4819     1.0  0.58335  0.66732  0.12205  1.0000
  H   H4820     1.0  0.95694  0.60593  0.09913  1.0000
  H   H4821     1.0  0.95822  0.61877  0.11874  1.0000
  H   H4822     1.0  0.65275  0.71633  0.02046  1.0000
  C   C4833     1.0  0.54070  0.58377  0.09279  1.0000
  C   C4834     1.0  0.65003  0.50358  0.06010  1.0000
  C   C4835     1.0  0.64657  0.55186  0.04182  1.0000
  H   H4823     1.0  0.62868  0.68917  0.13069  1.0000
  C   C4836     1.0  0.64135  0.52749  0.04218  1.0000
  H   H4824     1.0  0.53028  0.59151  0.08875  1.0000
  H   H4825     1.0  0.81655  0.60207  0.15164  1.0000
  C   C4837     1.0  0.77428  0.48194  0.14569  1.0000
  H   H4826     1.0  0.96466  0.61646  0.04927  1.0000
  N   N402      1.0  0.79362  0.65947  0.12808  1.0000
  C   C4838     1.0  0.80074  0.66829  0.11494  1.0000
  C   C4839     1.0  0.80225  0.64758  0.13689  1.0000
  H   H4827     1.0  0.70446  0.53109  0.13976  1.0000
  C   C4840     1.0  0.81845  0.64425  0.13255  1.0000
  C   C4841     1.0  0.82582  0.65334  0.11933  1.0000
  H   H4828     1.0  0.54916  0.54392  0.99774  1.0000
  C   C4842     1.0  0.52417  0.64288  0.15996  1.0000
  C   C4843     1.0  0.71570  0.71825  0.07973  1.0000
  C   C4844     1.0  0.91342  0.58766  0.13622  1.0000
  C   C4845     1.0  0.65759  0.71449  0.98305  1.0000
  H   H4829     1.0  0.85767  0.68733  0.00711  1.0000
  H   H4830     1.0  0.65979  0.52922  0.11909  1.0000
  C   C4846     1.0  0.91046  0.59946  0.15750  1.0000
  S   S1620     1.0  0.98256  0.70120  0.99139  1.0000
  S   S1621     1.0  0.68329  0.72293  0.01447  1.0000
  H   H4831     1.0  0.90087  0.72348  0.98635  1.0000
  S   S1622     1.0  0.72202  0.50467  0.16077  1.0000
  C   C4847     1.0  0.76865  0.50599  0.15392  1.0000
  C   C4848     1.0  0.67775  0.67726  0.98817  1.0000
  S   S1623     1.0  0.60898  0.66879  0.15070  1.0000
  H   H4832     1.0  0.55032  0.48827  0.02436  1.0000
  C   C4849     1.0  0.73690  0.72517  0.08542  1.0000
  H   H4833     1.0  0.54128  0.49257  0.04324  1.0000
  H   H4834     1.0  0.77256  0.72136  0.03286  1.0000
  S   S1624     1.0  0.75140  0.57704  0.16448  1.0000
  C   C4850     1.0  0.80971  0.72378  0.14636  1.0000
  H   H4835     1.0  0.68327  0.48533  0.14261  1.0000
  C   C4851     1.0  0.76664  0.49755  0.14451  1.0000
  S   S1625     1.0  0.83163  0.71393  0.00749  1.0000
  H   H4836     1.0  0.60829  0.48130  0.06023  1.0000
  H   H4837     1.0  0.98123  0.50651  0.05152  1.0000
  H   H4838     1.0  0.98403  0.56273  0.15758  1.0000
  S   S1626     1.0  0.78632  0.59548  0.15971  1.0000
  H   H4839     1.0  0.77208  0.65336  0.14067  1.0000
  S   S1627     1.0  0.56548  0.69134  0.15978  1.0000
  H   H4840     1.0  0.81275  0.71245  0.14374  1.0000
  C   C4852     1.0  0.98281  0.50668  0.10102  1.0000
  H   H4841     1.0  0.96967  0.59305  0.15875  1.0000
  H   H4842     1.0  0.91433  0.72695  0.00434  1.0000
  H   H4843     1.0  0.63877  0.69459  0.11121  1.0000
  S   S1628     1.0  0.64822  0.72336  0.05250  1.0000
  H   H4844     1.0  0.60165  0.70250  0.13923  1.0000
  H   H4845     1.0  0.55959  0.49702  0.03355  1.0000
  C   C4853     1.0  0.59331  0.50256  0.97200  1.0000
  C   C4854     1.0  0.97965  0.65264  0.16649  1.0000
  C   C4855     1.0  0.67266  0.72070  0.00247  1.0000
  C   C4856     1.0  0.98036  0.48367  0.09442  1.0000
  S   S1629     1.0  0.48852  0.53965  0.05688  1.0000
  Fe  Fe813     1.0  0.72657  0.47855  0.16583  1.0000
  C   C4857     1.0  0.55142  0.63525  0.16048  1.0000
  C   C4858     1.0  0.53873  0.63314  0.15639  1.0000
  C   C4859     1.0  0.97800  0.60733  0.06684  1.0000
  H   H4846     1.0  0.97465  0.64058  0.03898  1.0000
  H   H4847     1.0  0.87244  0.71128  0.03807  1.0000
  H   H4848     1.0  0.97728  0.64666  0.15913  1.0000
  C   C4860     1.0  0.67946  0.72167  0.98677  1.0000
  H   H4849     1.0  0.58849  0.64736  0.16200  1.0000
  S   S1630     1.0  0.98118  0.69371  0.02829  1.0000
  C   C4861     1.0  0.77782  0.49866  0.16470  1.0000
  C   C4862     1.0  0.83679  0.72063  0.14693  1.0000
  C   C4863     1.0  0.78518  0.48299  0.16568  1.0000
  H   H4850     1.0  0.56262  0.62754  0.15806  1.0000
  H   H4851     1.0  0.88427  0.72000  0.02042  1.0000
  H   H4852     1.0  0.84411  0.72538  0.15135  1.0000
  H   H4853     1.0  0.68126  0.55101  0.16513  1.0000
  H   H4854     1.0  0.62769  0.71719  0.09405  1.0000
  C   C4864     1.0  0.61801  0.71952  0.10357  1.0000
  C   C4865     1.0  0.81562  0.72634  0.04866  1.0000
  C   C4866     1.0  0.48636  0.57279  0.10596  1.0000
  Fe  Fe814     1.0  0.66297  0.69162  0.26362  1.0000
  S   S1631     1.0  0.65055  0.69196  0.28810  1.0000
  S   S1632     1.0  0.68868  0.68244  0.25627  1.0000
  Fe  Fe815     1.0  0.63369  0.68188  0.28278  1.0000
  S   S1633     1.0  0.62688  0.66060  0.29908  1.0000
  S   S1634     1.0  0.64698  0.67998  0.25889  1.0000
  Fe  Fe816     1.0  0.55010  0.64052  0.31703  1.0000
  H   H4855     1.0  0.63567  0.69521  0.17585  1.0000
  S   S1635     1.0  0.56078  0.65679  0.29644  1.0000
  Fe  Fe817     1.0  0.55140  0.60874  0.33789  1.0000
  H   H4856     1.0  0.74897  0.50518  0.19944  1.0000
  C   C4867     1.0  0.82873  0.64303  0.24584  1.0000
  Fe  Fe818     1.0  0.52144  0.62713  0.32870  1.0000
  C   C4868     1.0  0.63160  0.67324  0.21224  1.0000
  H   H4857     1.0  0.51244  0.52175  0.27236  1.0000
  S   S1636     1.0  0.49816  0.61619  0.16941  1.0000
  S   S1637     1.0  0.54506  0.61893  0.31483  1.0000
  Fe  Fe819     1.0  0.84045  0.63475  0.17745  1.0000
  C   C4869     1.0  0.89927  0.66602  0.30133  1.0000
  H   H4858     1.0  0.81086  0.64085  0.26669  1.0000
  S   S1638     1.0  0.61822  0.70498  0.27547  1.0000
  H   H4859     1.0  0.58681  0.70257  0.20687  1.0000
  S   S1639     1.0  0.83241  0.63884  0.33931  1.0000
  S   S1640     1.0  0.83142  0.68310  0.34041  1.0000
  S   S1641     1.0  0.65043  0.71570  0.25417  1.0000
  S   S1642     1.0  0.58042  0.67273  0.22386  1.0000
  C   C4870     1.0  0.76761  0.48675  0.32422  1.0000
  C   C4871     1.0  0.59064  0.68470  0.22694  1.0000
  H   H4860     1.0  0.72977  0.49019  0.32469  1.0000
  H   H4861     1.0  0.59608  0.66935  0.24795  1.0000
  C   C4872     1.0  0.75159  0.49276  0.32679  1.0000
  C   C4873     1.0  0.96749  0.66154  0.17540  1.0000
  N   N403      1.0  0.58934  0.52093  0.35920  1.0000
  C   C4874     1.0  0.54953  0.64702  0.16820  1.0000
  N   N404      1.0  0.54485  0.65865  0.26619  1.0000
  H   H4862     1.0  0.54318  0.62588  0.25746  1.0000
  H   H4863     1.0  0.93023  0.59289  0.16793  1.0000
  H   H4864     1.0  0.96130  0.67605  0.19173  1.0000
  S   S1643     1.0  0.62302  0.71226  0.23077  1.0000
  Fe  Fe820     1.0  0.85557  0.68145  0.34247  1.0000
  Fe  Fe821     1.0  0.63655  0.71496  0.27837  1.0000
  H   H4865     1.0  0.89668  0.65619  0.17713  1.0000
  S   S1644     1.0  0.86250  0.61950  0.18360  1.0000
  H   H4866     1.0  0.86666  0.72346  0.33938  1.0000
  C   C4875     1.0  0.97082  0.66919  0.18478  1.0000
  C   C4876     1.0  0.74225  0.48591  0.32240  1.0000
  C   C4877     1.0  0.63558  0.68511  0.19982  1.0000
  Fe  Fe822     1.0  0.86829  0.64170  0.18363  1.0000
  S   S1645     1.0  0.87525  0.64364  0.20447  1.0000
  C   C4878     1.0  0.50547  0.59851  0.20914  1.0000
  S   S1646     1.0  0.81693  0.62982  0.18970  1.0000
  C   C4879     1.0  0.69749  0.68547  0.31772  1.0000
  H   H4867     1.0  0.63369  0.67258  0.22339  1.0000
  Fe  Fe823     1.0  0.92437  0.68275  0.25039  1.0000
  S   S1647     1.0  0.90881  0.69528  0.23388  1.0000
  S   S1648     1.0  0.91677  0.66613  0.27228  1.0000
  Fe  Fe824     1.0  0.95219  0.69470  0.22988  1.0000
  S   S1649     1.0  0.93923  0.70807  0.21145  1.0000
  C   C4880     1.0  0.68687  0.54844  0.17470  1.0000
  Fe  Fe825     1.0  0.91992  0.71508  0.23085  1.0000
  H   H4868     1.0  0.96405  0.70593  0.25289  1.0000
  Fe  Fe826     1.0  0.92933  0.68718  0.21595  1.0000
  S   S1650     1.0  0.92869  0.67850  0.19565  1.0000
  S   S1651     1.0  0.93372  0.70328  0.24908  1.0000
  S   S1652     1.0  0.94413  0.67307  0.23267  1.0000
  S   S1653     1.0  0.72484  0.57832  0.19682  1.0000
  S   S1654     1.0  0.76135  0.57421  0.19695  1.0000
  C   C4881     1.0  0.71893  0.58290  0.34182  1.0000
  H   H4869     1.0  0.73841  0.65683  0.30675  1.0000
  Fe  Fe827     1.0  0.73893  0.59107  0.20305  1.0000
  S   S1655     1.0  0.73064  0.59857  0.22582  1.0000
  Fe  Fe828     1.0  0.74766  0.62575  0.29967  1.0000
  S   S1656     1.0  0.76230  0.63803  0.27880  1.0000
  S   S1657     1.0  0.72164  0.63291  0.30655  1.0000
  Fe  Fe829     1.0  0.77558  0.60228  0.30979  1.0000
  S   S1658     1.0  0.79248  0.61248  0.28940  1.0000
  S   S1659     1.0  0.78389  0.58382  0.32943  1.0000
  Fe  Fe830     1.0  0.77810  0.63535  0.29427  1.0000
  S   S1660     1.0  0.78741  0.65572  0.29351  1.0000
  Fe  Fe831     1.0  0.77506  0.61410  0.27585  1.0000
  S   S1661     1.0  0.78240  0.60983  0.25179  1.0000
  S   S1662     1.0  0.76234  0.62519  0.31553  1.0000
  S   S1663     1.0  0.75933  0.60185  0.29579  1.0000
  S   S1664     1.0  0.49245  0.57471  0.19159  1.0000
  Fe  Fe832     1.0  0.56575  0.70708  0.17429  1.0000
  Fe  Fe833     1.0  0.82511  0.68364  0.36548  1.0000
  H   H4870     1.0  0.62068  0.65383  0.22027  1.0000
  S   S1665     1.0  0.76632  0.51967  0.33948  1.0000
  H   H4871     1.0  0.88649  0.68288  0.26233  1.0000
  C   C4882     1.0  0.78025  0.56551  0.33159  1.0000
  C   C4883     1.0  0.77320  0.56295  0.32127  1.0000
  C   C4884     1.0  0.76925  0.54871  0.32370  1.0000
  C   C4885     1.0  0.77242  0.53689  0.33641  1.0000
  Fe  Fe834     1.0  0.57455  0.68047  0.20043  1.0000
  C   C4886     1.0  0.74320  0.52788  0.18505  1.0000
  H   H4872     1.0  0.77076  0.57192  0.31141  1.0000
  H   H4873     1.0  0.76362  0.54689  0.31575  1.0000
  H   H4874     1.0  0.53076  0.66767  0.28571  1.0000
  H   H4875     1.0  0.69127  0.52363  0.17763  1.0000
  C   C4887     1.0  0.74488  0.60226  0.23278  1.0000
  C   C4888     1.0  0.75932  0.60388  0.22323  1.0000
  C   C4889     1.0  0.77054  0.60678  0.22903  1.0000
  C   C4890     1.0  0.76754  0.60770  0.24448  1.0000
  C   C4891     1.0  0.75298  0.60637  0.25396  1.0000
  C   C4892     1.0  0.74168  0.60366  0.24811  1.0000
  H   H4876     1.0  0.76179  0.60297  0.21137  1.0000
  H   H4877     1.0  0.78160  0.60819  0.22153  1.0000
  H   H4878     1.0  0.75052  0.60712  0.26587  1.0000
  H   H4879     1.0  0.73057  0.60227  0.25554  1.0000
  H   H4880     1.0  0.51242  0.63978  0.20085  1.0000
  H   H4881     1.0  0.50423  0.54732  0.27971  1.0000
  H   H4882     1.0  0.78925  0.55545  0.35218  1.0000
  C   C4893     1.0  0.49936  0.53757  0.28700  1.0000
  C   C4894     1.0  0.79443  0.60588  0.16751  1.0000
  C   C4895     1.0  0.85611  0.66254  0.30645  1.0000
  H   H4883     1.0  0.60748  0.53318  0.35343  1.0000
  S   S1666     1.0  0.58861  0.69384  0.17986  1.0000
  H   H4884     1.0  0.64066  0.69375  0.20136  1.0000
  S   S1667     1.0  0.86889  0.69774  0.32417  1.0000
  C   C4896     1.0  0.48835  0.53946  0.30054  1.0000
  H   H4885     1.0  0.60418  0.71749  0.20921  1.0000
  Fe  Fe835     1.0  0.55324  0.67813  0.18190  1.0000
  C   C4897     1.0  0.52882  0.59112  0.18975  1.0000
  C   C4898     1.0  0.80830  0.62114  0.18062  1.0000
  C   C4899     1.0  0.79280  0.62003  0.18663  1.0000
  C   C4900     1.0  0.78589  0.61236  0.18012  1.0000
  H   H4886     1.0  0.55745  0.64715  0.24792  1.0000
  H   H4887     1.0  0.55028  0.67913  0.26816  1.0000
  H   H4888     1.0  0.96314  0.57924  0.17573  1.0000
  H   H4889     1.0  0.78611  0.62508  0.19636  1.0000
  H   H4890     1.0  0.77394  0.61149  0.18483  1.0000
  C   C4901     1.0  0.53335  0.65869  0.27930  1.0000
  H   H4891     1.0  0.62152  0.48162  0.35734  1.0000
  C   C4902     1.0  0.87413  0.68509  0.26855  1.0000
  H   H4892     1.0  0.88335  0.63331  0.29250  1.0000
  H   H4893     1.0  0.61096  0.65509  0.18337  1.0000
  C   C4903     1.0  0.55362  0.67093  0.26037  1.0000
  C   C4904     1.0  0.88997  0.65360  0.20174  1.0000
  C   C4905     1.0  0.89886  0.65842  0.18709  1.0000
  C   C4906     1.0  0.91071  0.66606  0.18533  1.0000
  C   C4907     1.0  0.91360  0.66911  0.19818  1.0000
  C   C4908     1.0  0.90464  0.66438  0.21282  1.0000
  C   C4909     1.0  0.89292  0.65658  0.21459  1.0000
  H   H4894     1.0  0.69672  0.57644  0.34975  1.0000
  H   H4895     1.0  0.51086  0.66179  0.17091  1.0000
  H   H4896     1.0  0.90687  0.66656  0.22279  1.0000
  H   H4897     1.0  0.88613  0.65282  0.22595  1.0000
  H   H4898     1.0  0.53766  0.58392  0.19638  1.0000
  H   H4899     1.0  0.50357  0.58689  0.21157  1.0000
  H   H4900     1.0  0.91757  0.66972  0.17398  1.0000
  C   C4910     1.0  0.82147  0.64224  0.22303  1.0000
  Fe  Fe836     1.0  0.77118  0.50111  0.36023  1.0000
  C   C4911     1.0  0.79996  0.65117  0.30617  1.0000
  C   C4912     1.0  0.80645  0.63571  0.31208  1.0000
  C   C4913     1.0  0.81661  0.63215  0.32199  1.0000
  C   C4914     1.0  0.81998  0.64398  0.32645  1.0000
  C   C4915     1.0  0.81346  0.65947  0.32061  1.0000
  C   C4916     1.0  0.80359  0.66305  0.31034  1.0000
  H   H4901     1.0  0.80378  0.62648  0.30890  1.0000
  H   H4902     1.0  0.82183  0.62016  0.32621  1.0000
  C   C4917     1.0  0.48690  0.51270  0.30548  1.0000
  H   H4903     1.0  0.79858  0.67503  0.30580  1.0000
  H   H4904     1.0  0.56982  0.49304  0.36445  1.0000
  C   C4918     1.0  0.88884  0.69823  0.29601  1.0000
  C   C4919     1.0  0.89965  0.69132  0.28445  1.0000
  C   C4920     1.0  0.90472  0.67518  0.28706  1.0000
  H   H4905     1.0  0.79848  0.62726  0.22182  1.0000
  H   H4906     1.0  0.79588  0.64754  0.21253  1.0000
  H   H4907     1.0  0.88472  0.71069  0.29384  1.0000
  H   H4908     1.0  0.90378  0.69845  0.27342  1.0000
  C   C4921     1.0  0.59264  0.69851  0.21631  1.0000
  C   C4922     1.0  0.85953  0.67483  0.29417  1.0000
  H   H4909     1.0  0.58178  0.67297  0.31527  1.0000
  C   C4923     1.0  0.52076  0.61703  0.19559  1.0000
  C   C4924     1.0  0.88308  0.68901  0.31016  1.0000
  H   H4910     1.0  0.79191  0.63824  0.25373  1.0000
  C   C4925     1.0  0.69647  0.55706  0.19187  1.0000
  C   C4926     1.0  0.73738  0.50461  0.18240  1.0000
  C   C4927     1.0  0.80325  0.63990  0.24698  1.0000
  C   C4928     1.0  0.59765  0.67998  0.23962  1.0000
  C   C4929     1.0  0.52513  0.64685  0.28494  1.0000
  H   H4911     1.0  0.52254  0.58346  0.18763  1.0000
  C   C4930     1.0  0.52221  0.65442  0.16797  1.0000
  C   C4931     1.0  0.71439  0.55928  0.36012  1.0000
  C   C4932     1.0  0.97605  0.70679  0.24905  1.0000
  C   C4933     1.0  0.60717  0.68872  0.24124  1.0000
  C   C4934     1.0  0.51183  0.60362  0.30939  1.0000
  C   C4935     1.0  0.51112  0.59264  0.30183  1.0000
  H   H4912     1.0  0.77902  0.50508  0.17238  1.0000
  H   H4913     1.0  0.66260  0.72481  0.28025  1.0000
  S   S1668     1.0  0.55857  0.62978  0.33885  1.0000
  H   H4914     1.0  0.52240  0.60285  0.31276  1.0000
  H   H4915     1.0  0.52118  0.58352  0.29926  1.0000
  H   H4916     1.0  0.88438  0.66578  0.32380  1.0000
  H   H4917     1.0  0.90326  0.65355  0.30340  1.0000
  H   H4918     1.0  0.48892  0.63292  0.21996  1.0000
  H   H4919     1.0  0.81595  0.66866  0.32402  1.0000
  C   C4936     1.0  0.70881  0.57325  0.35049  1.0000
  H   H4920     1.0  0.98522  0.67046  0.25651  1.0000
  H   H4921     1.0  0.87186  0.69604  0.27248  1.0000
  C   C4937     1.0  0.86466  0.64752  0.30587  1.0000
  H   H4922     1.0  0.53871  0.67598  0.34866  1.0000
  H   H4923     1.0  0.74649  0.50248  0.33243  1.0000
  C   C4938     1.0  0.60977  0.70211  0.23013  1.0000
  C   C4939     1.0  0.87950  0.65744  0.28085  1.0000
  H   H4924     1.0  0.53474  0.59688  0.17824  1.0000
  Fe  Fe837     1.0  0.63312  0.70396  0.25189  1.0000
  H   H4925     1.0  0.68448  0.57246  0.17452  1.0000
  C   C4940     1.0  0.55100  0.67595  0.34537  1.0000
  H   H4926     1.0  0.86211  0.63795  0.31542  1.0000
  H   H4927     1.0  0.77478  0.49197  0.32790  1.0000
  N   N405      1.0  0.87115  0.67218  0.28161  1.0000
  S   S1669     1.0  0.74182  0.60768  0.18008  1.0000
  N   N406      1.0  0.51800  0.60256  0.19823  1.0000
  H   H4928     1.0  0.56621  0.66575  0.25950  1.0000
  C   C4941     1.0  0.60965  0.65806  0.29665  1.0000
  C   C4942     1.0  0.60309  0.64580  0.30631  1.0000
  C   C4943     1.0  0.58838  0.64478  0.30566  1.0000
  C   C4944     1.0  0.58021  0.65609  0.29544  1.0000
  C   C4945     1.0  0.58714  0.66786  0.28522  1.0000
  C   C4946     1.0  0.60185  0.66884  0.28585  1.0000
  H   H4929     1.0  0.60918  0.63731  0.31457  1.0000
  H   H4930     1.0  0.58329  0.63541  0.31326  1.0000
  H   H4931     1.0  0.58091  0.67658  0.27722  1.0000
  H   H4932     1.0  0.60694  0.67820  0.27827  1.0000
  C   C4947     1.0  0.69780  0.66910  0.27049  1.0000
  C   C4948     1.0  0.71357  0.66225  0.26649  1.0000
  C   C4949     1.0  0.72093  0.65095  0.27741  1.0000
  C   C4950     1.0  0.71265  0.64672  0.29250  1.0000
  C   C4951     1.0  0.69689  0.65359  0.29651  1.0000
  C   C4952     1.0  0.68948  0.66468  0.28552  1.0000
  H   H4933     1.0  0.72004  0.66548  0.25483  1.0000
  H   H4934     1.0  0.73289  0.64534  0.27400  1.0000
  H   H4935     1.0  0.69034  0.65023  0.30811  1.0000
  H   H4936     1.0  0.67728  0.66957  0.28866  1.0000
  H   H4937     1.0  0.82683  0.58735  0.18897  1.0000
  N   N407      1.0  0.62146  0.66360  0.19639  1.0000
  H   H4938     1.0  0.82618  0.71409  0.35014  1.0000
  C   C4953     1.0  0.62574  0.67494  0.18400  1.0000
  H   H4939     1.0  0.75164  0.56115  0.35342  1.0000
  H   H4940     1.0  0.78984  0.56769  0.21968  1.0000
  C   C4954     1.0  0.55945  0.67434  0.33063  1.0000
  H   H4941     1.0  0.74892  0.67194  0.29928  1.0000
  S   S1670     1.0  0.49612  0.57913  0.28910  1.0000
  H   H4942     1.0  0.50318  0.49719  0.27548  1.0000
  C   C4955     1.0  0.69985  0.53008  0.19387  1.0000
  H   H4943     1.0  0.71481  0.59375  0.33424  1.0000
  C   C4956     1.0  0.52866  0.63498  0.27706  1.0000
  C   C4957     1.0  0.71079  0.70625  0.30483  1.0000
  H   H4944     1.0  0.78366  0.64142  0.23086  1.0000
  H   H4945     1.0  0.60382  0.67664  0.34151  1.0000
  N   N408      1.0  0.80829  0.57675  0.20317  1.0000
  C   C4958     1.0  0.81398  0.64123  0.25439  1.0000
  C   C4959     1.0  0.54834  0.64710  0.25833  1.0000
  H   H4946     1.0  0.59005  0.50551  0.34545  1.0000
  H   H4947     1.0  0.82454  0.64256  0.21077  1.0000
  H   H4948     1.0  0.55930  0.64845  0.17154  1.0000
  S   S1671     1.0  0.56607  0.58468  0.34260  1.0000
  Fe  Fe838     1.0  0.49552  0.59268  0.16967  1.0000
  C   C4960     1.0  0.69239  0.53312  0.18175  1.0000
  C   C4961     1.0  0.63268  0.68598  0.18557  1.0000
  C   C4962     1.0  0.51035  0.62819  0.20331  1.0000
  S   S1672     1.0  0.52713  0.61496  0.35163  1.0000
  N   N409      1.0  0.70204  0.54199  0.19859  1.0000
  H   H4949     1.0  0.81306  0.59236  0.23586  1.0000
  H   H4950     1.0  0.60545  0.66070  0.33293  1.0000
  C   C4963     1.0  0.60230  0.70710  0.21780  1.0000
  C   C4964     1.0  0.49729  0.59324  0.29792  1.0000
  C   C4965     1.0  0.80615  0.57096  0.19086  1.0000
  S   S1673     1.0  0.84532  0.65655  0.17944  1.0000
  Fe  Fe839     1.0  0.83681  0.65720  0.34845  1.0000
  C   C4966     1.0  0.87648  0.64491  0.29301  1.0000
  C   C4967     1.0  0.58744  0.56761  0.35949  1.0000
  C   C4968     1.0  0.62433  0.66264  0.21038  1.0000
  H   H4951     1.0  0.59622  0.53739  0.33898  1.0000
  N   N410      1.0  0.80698  0.64067  0.23145  1.0000
  S   S1674     1.0  0.86161  0.65538  0.34846  1.0000
  C   C4969     1.0  0.88845  0.67293  0.31284  1.0000
  C   C4970     1.0  0.71110  0.67484  0.31305  1.0000
  C   C4971     1.0  0.50301  0.49583  0.28784  1.0000
  C   C4972     1.0  0.49721  0.62433  0.21403  1.0000
  S   S1675     1.0  0.49885  0.62874  0.32300  1.0000
  C   C4973     1.0  0.83255  0.64348  0.23006  1.0000
  N   N411      1.0  0.58273  0.67462  0.33740  1.0000
  S   S1676     1.0  0.52590  0.64964  0.32910  1.0000
  H   H4952     1.0  0.78232  0.53009  0.35643  1.0000
  H   H4953     1.0  0.75337  0.72713  0.35219  1.0000
  H   H4954     1.0  0.71753  0.54680  0.20905  1.0000
  H   H4955     1.0  0.96872  0.59573  0.17760  1.0000
  C   C4974     1.0  0.80079  0.57912  0.22957  1.0000
  S   S1677     1.0  0.55163  0.69514  0.19591  1.0000
  C   C4975     1.0  0.77979  0.53923  0.34662  1.0000
  C   C4976     1.0  0.78373  0.55356  0.34418  1.0000
  H   H4956     1.0  0.85296  0.68651  0.29486  1.0000
  H   H4957     1.0  0.86672  0.68667  0.26038  1.0000
  H   H4958     1.0  0.84692  0.66462  0.31640  1.0000
  H   H4959     1.0  0.70108  0.53980  0.22223  1.0000
  C   C4977     1.0  0.74373  0.51191  0.18985  1.0000
  H   H4960     1.0  0.71072  0.71856  0.30154  1.0000
  H   H4961     1.0  0.71739  0.52684  0.21280  1.0000
  H   H4962     1.0  0.69807  0.56654  0.19565  1.0000
  N   N412      1.0  0.49765  0.51095  0.29213  1.0000
  S   S1678     1.0  0.97772  0.69397  0.22482  1.0000
  H   H4963     1.0  0.55175  0.67755  0.24878  1.0000
  H   H4964     1.0  0.83721  0.64403  0.25141  1.0000
  C   C4978     1.0  0.81683  0.61473  0.16795  1.0000
  H   H4965     1.0  0.84403  0.64476  0.22330  1.0000
  C   C4979     1.0  0.79894  0.57388  0.21753  1.0000
  H   H4966     1.0  0.73769  0.49232  0.18628  1.0000
  C   C4980     1.0  0.79567  0.63919  0.22382  1.0000
  H   H4967     1.0  0.51620  0.64677  0.29549  1.0000
  C   C4981     1.0  0.97149  0.58697  0.17050  1.0000
  C   C4982     1.0  0.57456  0.67610  0.35192  1.0000
  N   N413      1.0  0.69715  0.63574  0.26188  1.0000
  C   C4983     1.0  0.68216  0.64401  0.26263  1.0000
  C   C4984     1.0  0.70133  0.62516  0.27450  1.0000
  C   C4985     1.0  0.67096  0.64194  0.27638  1.0000
  C   C4986     1.0  0.69045  0.62288  0.28844  1.0000
  C   C4987     1.0  0.67517  0.63135  0.28935  1.0000
  C   C4988     1.0  0.70867  0.63778  0.24731  1.0000
  H   H4968     1.0  0.67888  0.65256  0.25270  1.0000
  H   H4969     1.0  0.71323  0.61870  0.27396  1.0000
  H   H4970     1.0  0.65913  0.64868  0.27710  1.0000
  H   H4971     1.0  0.69395  0.61484  0.29853  1.0000
  H   H4972     1.0  0.66662  0.62989  0.30011  1.0000
  H   H4973     1.0  0.70891  0.62944  0.24051  1.0000
  H   H4974     1.0  0.70605  0.64983  0.24040  1.0000
  H   H4975     1.0  0.72048  0.63578  0.24938  1.0000
  H   H4976     1.0  0.60309  0.65172  0.20374  1.0000
  C   C4989     1.0  0.68875  0.56050  0.17990  1.0000
  C   C4990     1.0  0.73444  0.57850  0.34290  1.0000
  C   C4991     1.0  0.81948  0.58494  0.20036  1.0000
  H   H4977     1.0  0.74251  0.58580  0.33614  1.0000
  C   C4992     1.0  0.73052  0.51327  0.17008  1.0000
  H   H4978     1.0  0.56289  0.72309  0.19697  1.0000
  Fe  Fe840     1.0  0.72959  0.59347  0.17322  1.0000
  C   C4993     1.0  0.60141  0.52812  0.34786  1.0000
  H   H4979     1.0  0.82988  0.59766  0.20957  1.0000
  C   C4994     1.0  0.82136  0.59070  0.21203  1.0000
  C   C4995     1.0  0.49879  0.61536  0.31280  1.0000
  H   H4980     1.0  0.95552  0.66254  0.17512  1.0000
  C   C4996     1.0  0.57534  0.67394  0.32678  1.0000
  H   H4981     1.0  0.98583  0.66962  0.20755  1.0000
  H   H4982     1.0  0.73448  0.69929  0.29320  1.0000
  H   H4983     1.0  0.58038  0.67626  0.36056  1.0000
  C   C4997     1.0  0.98505  0.70213  0.23554  1.0000
  H   H4984     1.0  0.53096  0.62008  0.18733  1.0000
  C   C4998     1.0  0.81196  0.58773  0.22673  1.0000
  Fe  Fe841     1.0  0.53373  0.63684  0.35091  1.0000
  Fe  Fe842     1.0  0.74755  0.56282  0.18861  1.0000
  C   C4999     1.0  0.50391  0.52314  0.28293  1.0000
  N   N414      1.0  0.72424  0.67981  0.30452  1.0000
  C   C5000     1.0  0.54032  0.63509  0.26364  1.0000
  Fe  Fe843     1.0  0.76333  0.58988  0.17343  1.0000
  H   H4985     1.0  0.70431  0.51812  0.19912  1.0000
  H   H4986     1.0  0.60321  0.68022  0.32161  1.0000
  Fe  Fe844     1.0  0.58714  0.67694  0.16734  1.0000
  C   C5001     1.0  0.70980  0.53868  0.21134  1.0000
  H   H4987     1.0  0.70644  0.55184  0.36675  1.0000
  H   H4988     1.0  0.61295  0.68480  0.25074  1.0000
  S   S1679     1.0  0.57497  0.66229  0.18834  1.0000
  H   H4989     1.0  0.88885  0.65537  0.27097  1.0000
  C   C5002     1.0  0.61401  0.65217  0.19479  1.0000
  C   C5003     1.0  0.59960  0.67299  0.33324  1.0000
  C   C5004     1.0  0.55853  0.67722  0.35595  1.0000
  H   H4990     1.0  0.55380  0.67325  0.32227  1.0000
  H   H4991     1.0  0.48935  0.61158  0.35700  1.0000
  S   S1680     1.0  0.75086  0.53669  0.19494  1.0000
  H   H4992     1.0  0.68706  0.68150  0.32437  1.0000
  C   C5005     1.0  0.69740  0.70126  0.31366  1.0000
  H   H4993     1.0  0.52241  0.62570  0.28141  1.0000
  S   S1681     1.0  0.75961  0.48168  0.36361  1.0000
  H   H4994     1.0  0.71107  0.66258  0.31628  1.0000
  C   C5006     1.0  0.72416  0.69531  0.30022  1.0000
  H   H4995     1.0  0.79415  0.57580  0.18907  1.0000
  C   C5007     1.0  0.73823  0.66859  0.29920  1.0000
  C   C5008     1.0  0.57613  0.58129  0.35718  1.0000
  C   C5009     1.0  0.58462  0.50953  0.35606  1.0000
  H   H4996     1.0  0.62191  0.64052  0.19608  1.0000
  H   H4997     1.0  0.73863  0.66786  0.28733  1.0000
  H   H4998     1.0  0.61052  0.51931  0.34228  1.0000
  H   H4999     1.0  0.68696  0.70966  0.31729  1.0000
  H   H5000     1.0  0.73925  0.53102  0.36364  1.0000
  H   H5001     1.0  0.80017  0.57914  0.35927  1.0000
  S   S1682     1.0  0.53187  0.67026  0.18309  1.0000
  N   N415      1.0  0.81395  0.59124  0.36480  1.0000
  H   H5002     1.0  0.58991  0.55954  0.35217  1.0000
  H   H5003     1.0  0.80824  0.55811  0.19387  1.0000
  H   H5004     1.0  0.71173  0.52552  0.36346  1.0000
  H   H5005     1.0  0.79315  0.57714  0.24089  1.0000
  C   C5010     1.0  0.73632  0.53654  0.17274  1.0000
  C   C5011     1.0  0.49481  0.60935  0.21710  1.0000
  H   H5006     1.0  0.97584  0.71574  0.26835  1.0000
  C   C5012     1.0  0.53486  0.65647  0.17215  1.0000
  S   S1683     1.0  0.79429  0.48552  0.36308  1.0000
  C   C5013     1.0  0.80686  0.58837  0.35380  1.0000
  C   C5014     1.0  0.81970  0.72278  0.35673  1.0000
  H   H5007     1.0  0.62356  0.67565  0.17287  1.0000
  C   C5015     1.0  0.73959  0.56449  0.35268  1.0000
  H   H5008     1.0  0.81246  0.61524  0.35414  1.0000
  H   H5009     1.0  0.79858  0.59892  0.34922  1.0000
  H   H5010     1.0  0.49513  0.48789  0.29447  1.0000
  H   H5011     1.0  0.51481  0.49025  0.28997  1.0000
  H   H5012     1.0  0.81596  0.58474  0.34393  1.0000
  H   H5013     1.0  0.78017  0.72413  0.35532  1.0000
  H   H5014     1.0  0.73580  0.54887  0.16902  1.0000
  C   C5016     1.0  0.81621  0.60574  0.36321  1.0000
  H   H5015     1.0  0.81407  0.57446  0.17964  1.0000
  H   H5016     1.0  0.56414  0.60240  0.36495  1.0000
  N   N416      1.0  0.72962  0.55510  0.36114  1.0000
  H   H5017     1.0  0.98188  0.68801  0.19426  1.0000
  C   C5017     1.0  0.98275  0.71228  0.25780  1.0000
  H   H5018     1.0  0.48703  0.59642  0.33996  1.0000
  C   C5018     1.0  0.57301  0.59191  0.36652  1.0000
  N   N417      1.0  0.98582  0.66804  0.18524  1.0000
  C   C5019     1.0  0.57311  0.50251  0.36669  1.0000
  Fe  Fe845     1.0  0.58907  0.58814  0.53365  1.0000
  S   S1684     1.0  0.59854  0.56318  0.54355  1.0000
  S   S1685     1.0  0.57877  0.59389  0.51294  1.0000
  S   S1686     1.0  0.64248  0.56284  0.54159  1.0000
  S   S1687     1.0  0.60850  0.59691  0.53588  1.0000
  Fe  Fe846     1.0  0.57535  0.66341  0.44856  1.0000
  S   S1688     1.0  0.55420  0.68075  0.45655  1.0000
  S   S1689     1.0  0.59377  0.65291  0.46222  1.0000
  Fe  Fe847     1.0  0.56778  0.66739  0.41790  1.0000
  S   S1690     1.0  0.54619  0.68573  0.42274  1.0000
  S   S1691     1.0  0.57730  0.65704  0.39698  1.0000
  Fe  Fe848     1.0  0.56015  0.69506  0.43279  1.0000
  Fe  Fe849     1.0  0.54186  0.66994  0.44605  1.0000
  C   C5020     1.0  0.91664  0.59474  0.42148  1.0000
  S   S1692     1.0  0.58231  0.67847  0.42541  1.0000
  S   S1693     1.0  0.56247  0.65091  0.44051  1.0000
  H   H5019     1.0  0.84707  0.49870  0.50995  1.0000
  S   S1694     1.0  0.69322  0.49475  0.51111  1.0000
  S   S1695     1.0  0.76297  0.50347  0.38481  1.0000
  H   H5020     1.0  0.80453  0.72536  0.53072  1.0000
  S   S1696     1.0  0.61369  0.52615  0.40356  1.0000
  H   H5021     1.0  0.72651  0.53663  0.38091  1.0000
  S   S1697     1.0  0.63996  0.54220  0.40740  1.0000
  Fe  Fe850     1.0  0.63395  0.51881  0.41490  1.0000
  S   S1698     1.0  0.63208  0.50378  0.43881  1.0000
  C   C5021     1.0  0.80843  0.71914  0.37000  1.0000
  H   H5022     1.0  0.48945  0.70602  0.46232  1.0000
  C   C5022     1.0  0.60012  0.70796  0.43231  1.0000
  C   C5023     1.0  0.87711  0.48267  0.48530  1.0000
  H   H5023     1.0  0.79250  0.51523  0.50440  1.0000
  Fe  Fe851     1.0  0.83960  0.53731  0.42109  1.0000
  S   S1699     1.0  0.84580  0.68194  0.56252  1.0000
  C   C5024     1.0  0.80442  0.51157  0.50551  1.0000
  H   H5024     1.0  0.80551  0.49668  0.42797  1.0000
  S   S1700     1.0  0.89148  0.67130  0.54554  1.0000
  H   H5025     1.0  0.62692  0.62008  0.54486  1.0000
  C   C5025     1.0  0.81639  0.52425  0.38855  1.0000
  H   H5026     1.0  0.75842  0.52552  0.50388  1.0000
  H   H5027     1.0  0.51040  0.64545  0.41599  1.0000
  H   H5028     1.0  0.84003  0.49533  0.39982  1.0000
  C   C5026     1.0  0.80512  0.50239  0.40391  1.0000
  C   C5027     1.0  0.63440  0.61424  0.55293  1.0000
  S   S1701     1.0  0.86217  0.64098  0.39278  1.0000
  Fe  Fe852     1.0  0.90112  0.63699  0.47637  1.0000
  S   S1702     1.0  0.91544  0.61362  0.48469  1.0000
  S   S1703     1.0  0.88037  0.65034  0.49059  1.0000
  Fe  Fe853     1.0  0.91635  0.63673  0.44287  1.0000
  S   S1704     1.0  0.93250  0.61357  0.44844  1.0000
  S   S1705     1.0  0.91520  0.64993  0.41848  1.0000
  Fe  Fe854     1.0  0.91135  0.60666  0.46504  1.0000
  S   S1706     1.0  0.90627  0.58342  0.46715  1.0000
  Fe  Fe855     1.0  0.93547  0.62253  0.46752  1.0000
  S   S1707     1.0  0.95719  0.61569  0.47721  1.0000
  S   S1708     1.0  0.89517  0.62917  0.45842  1.0000
  S   S1709     1.0  0.92117  0.64653  0.46039  1.0000
  H   H5029     1.0  0.52353  0.66360  0.39465  1.0000
  S   S1710     1.0  0.79795  0.48609  0.40559  1.0000
  Fe  Fe856     1.0  0.59433  0.59949  0.55937  1.0000
  N   N418      1.0  0.60064  0.69854  0.45914  1.0000
  H   H5030     1.0  0.60439  0.60923  0.50495  1.0000
  C   C5028     1.0  0.82325  0.49860  0.52135  1.0000
  C   C5029     1.0  0.53538  0.65762  0.39102  1.0000
  C   C5030     1.0  0.63937  0.51791  0.55428  1.0000
  H   H5031     1.0  0.78733  0.51087  0.44820  1.0000
  Fe  Fe857     1.0  0.85152  0.55459  0.43766  1.0000
  H   H5032     1.0  0.60726  0.67522  0.47102  1.0000
  S   S1711     1.0  0.82765  0.55291  0.43759  1.0000
  S   S1712     1.0  0.85602  0.57823  0.43504  1.0000
  H   H5033     1.0  0.49813  0.65913  0.39387  1.0000
  C   C5031     1.0  0.56632  0.50734  0.38053  1.0000
  C   C5032     1.0  0.64645  0.49599  0.46285  1.0000
  H   H5034     1.0  0.55776  0.50161  0.38907  1.0000
  S   S1713     1.0  0.80465  0.70049  0.37586  1.0000
  C   C5033     1.0  0.56633  0.64349  0.38071  1.0000
  C   C5034     1.0  0.60286  0.71245  0.45972  1.0000
  C   C5035     1.0  0.71558  0.49656  0.39522  1.0000
  C   C5036     1.0  0.49092  0.65528  0.40500  1.0000
  C   C5037     1.0  0.89143  0.58224  0.45919  1.0000
  C   C5038     1.0  0.88186  0.59554  0.45227  1.0000
  C   C5039     1.0  0.87071  0.59416  0.44529  1.0000
  C   C5040     1.0  0.86908  0.57950  0.44514  1.0000
  C   C5041     1.0  0.87848  0.56621  0.45224  1.0000
  C   C5042     1.0  0.88959  0.56759  0.45926  1.0000
  H   H5035     1.0  0.88313  0.60687  0.45212  1.0000
  H   H5036     1.0  0.86343  0.60447  0.43986  1.0000
  H   H5037     1.0  0.87739  0.55486  0.45209  1.0000
  H   H5038     1.0  0.89695  0.55726  0.46457  1.0000
  C   C5043     1.0  0.97225  0.62590  0.47130  1.0000
  C   C5044     1.0  0.97465  0.63609  0.45695  1.0000
  H   H5039     1.0  0.86168  0.64825  0.55661  1.0000
  H   H5040     1.0  0.59695  0.62393  0.39589  1.0000
  H   H5041     1.0  0.70009  0.49348  0.43993  1.0000
  S   S1714     1.0  0.88629  0.50157  0.43905  1.0000
  H   H5042     1.0  0.96647  0.63879  0.44967  1.0000
  H   H5043     1.0  0.63357  0.59144  0.55210  1.0000
  S   S1715     1.0  0.65078  0.50935  0.39529  1.0000
  H   H5044     1.0  0.87748  0.49321  0.47583  1.0000
  C   C5045     1.0  0.88471  0.59541  0.40349  1.0000
  H   H5045     1.0  0.58051  0.61503  0.40168  1.0000
  C   C5046     1.0  0.82686  0.51907  0.55771  1.0000
  C   C5047     1.0  0.64025  0.55283  0.50797  1.0000
  S   S1716     1.0  0.60342  0.57144  0.39445  1.0000
  H   H5046     1.0  0.90767  0.68345  0.56280  1.0000
  H   H5047     1.0  0.50177  0.68533  0.40991  1.0000
  Fe  Fe858     1.0  0.63114  0.51869  0.38317  1.0000
  C   C5048     1.0  0.87673  0.64415  0.39959  1.0000
  C   C5049     1.0  0.88548  0.65521  0.39127  1.0000
  C   C5050     1.0  0.89737  0.65691  0.39708  1.0000
  C   C5051     1.0  0.90041  0.64764  0.41122  1.0000
  C   C5052     1.0  0.89160  0.63664  0.41941  1.0000
  C   C5053     1.0  0.87975  0.63499  0.41370  1.0000
  H   H5048     1.0  0.60082  0.68916  0.48309  1.0000
  H   H5049     1.0  0.90422  0.66539  0.39061  1.0000
  H   H5050     1.0  0.89428  0.62890  0.42983  1.0000
  H   H5051     1.0  0.87310  0.62634  0.42012  1.0000
  H   H5052     1.0  0.82581  0.54363  0.55030  1.0000
  C   C5054     1.0  0.60378  0.72446  0.44657  1.0000
  C   C5055     1.0  0.70855  0.51839  0.37476  1.0000
  C   C5056     1.0  0.60524  0.49344  0.39108  1.0000
  H   H5053     1.0  0.59318  0.63300  0.41864  1.0000
  H   H5054     1.0  0.57832  0.63825  0.37643  1.0000
  C   C5057     1.0  0.88845  0.66607  0.52985  1.0000
  C   C5058     1.0  0.87353  0.66886  0.52734  1.0000
  C   C5059     1.0  0.87123  0.66418  0.51513  1.0000
  C   C5060     1.0  0.88383  0.65667  0.50531  1.0000
  C   C5061     1.0  0.89880  0.65392  0.50770  1.0000
  C   C5062     1.0  0.90110  0.65867  0.51993  1.0000
  H   H5055     1.0  0.86376  0.67480  0.53467  1.0000
  H   H5056     1.0  0.85964  0.66636  0.51331  1.0000
  H   H5057     1.0  0.90861  0.64815  0.50014  1.0000
  H   H5058     1.0  0.91269  0.65654  0.52173  1.0000
  H   H5059     1.0  0.87412  0.60299  0.40904  1.0000
  C   C5063     1.0  0.78950  0.51342  0.45835  1.0000
  H   H5060     1.0  0.85573  0.51010  0.40420  1.0000
  C   C5064     1.0  0.48870  0.64310  0.43196  1.0000
  H   H5061     1.0  0.86762  0.61546  0.50956  1.0000
  C   C5065     1.0  0.49793  0.64759  0.41747  1.0000
  C   C5066     1.0  0.68904  0.51156  0.39756  1.0000
  C   C5067     1.0  0.70019  0.49916  0.40348  1.0000
  H   H5062     1.0  0.67727  0.51378  0.40421  1.0000
  H   H5063     1.0  0.87756  0.48546  0.49606  1.0000
  C   C5068     1.0  0.88285  0.62492  0.53422  1.0000
  C   C5069     1.0  0.66849  0.50571  0.46254  1.0000
  C   C5070     1.0  0.64595  0.50480  0.44794  1.0000
  C   C5071     1.0  0.65677  0.51397  0.44032  1.0000
  C   C5072     1.0  0.66792  0.51455  0.44767  1.0000
  H   H5064     1.0  0.65666  0.52057  0.42873  1.0000
  H   H5065     1.0  0.67625  0.52171  0.44170  1.0000
  C   C5073     1.0  0.81902  0.57923  0.37611  1.0000
  C   C5074     1.0  0.83518  0.50224  0.50869  1.0000
  C   C5075     1.0  0.54702  0.65942  0.39697  1.0000
  C   C5076     1.0  0.56254  0.65277  0.39146  1.0000
  H   H5066     1.0  0.79862  0.50040  0.52945  1.0000
  H   H5067     1.0  0.54401  0.66652  0.40528  1.0000
  H   H5068     1.0  0.62470  0.53972  0.55873  1.0000
  C   C5077     1.0  0.64694  0.54263  0.54417  1.0000
  Fe  Fe859     1.0  0.83170  0.53135  0.45594  1.0000
  C   C5078     1.0  0.88329  0.48264  0.44519  1.0000
  C   C5079     1.0  0.65375  0.51046  0.54663  1.0000
  C   C5080     1.0  0.66481  0.51909  0.53797  1.0000
  C   C5081     1.0  0.66145  0.53514  0.53684  1.0000
  H   H5069     1.0  0.67604  0.51339  0.53236  1.0000
  H   H5070     1.0  0.67003  0.54178  0.53009  1.0000
  C   C5082     1.0  0.58300  0.61040  0.49910  1.0000
  C   C5083     1.0  0.57292  0.61839  0.48922  1.0000
  C   C5084     1.0  0.57603  0.63164  0.47809  1.0000
  C   C5085     1.0  0.58946  0.63670  0.47653  1.0000
  C   C5086     1.0  0.59967  0.62861  0.48625  1.0000
  C   C5087     1.0  0.59640  0.61551  0.49759  1.0000
  H   H5071     1.0  0.56251  0.61450  0.49039  1.0000
  H   H5072     1.0  0.56795  0.63795  0.47084  1.0000
  H   H5073     1.0  0.61012  0.63245  0.48503  1.0000
  H   H5074     1.0  0.53014  0.71146  0.45157  1.0000
  H   H5075     1.0  0.88391  0.58314  0.40879  1.0000
  S   S1717     1.0  0.83103  0.53953  0.39978  1.0000
  C   C5088     1.0  0.50453  0.67169  0.44736  1.0000
  C   C5089     1.0  0.51849  0.70879  0.45684  1.0000
  H   H5076     1.0  0.98325  0.58290  0.47694  1.0000
  C   C5090     1.0  0.75667  0.48065  0.53538  1.0000
  H   H5077     1.0  0.87362  0.49949  0.39421  1.0000
  S   S1718     1.0  0.82760  0.48853  0.53923  1.0000
  H   H5078     1.0  0.55458  0.57285  0.56075  1.0000
  S   S1719     1.0  0.68296  0.50624  0.47118  1.0000
  H   H5079     1.0  0.56783  0.71713  0.47799  1.0000
  C   C5091     1.0  0.81999  0.52604  0.40162  1.0000
  C   C5092     1.0  0.59943  0.69615  0.44564  1.0000
  C   C5093     1.0  0.77303  0.52051  0.48232  1.0000
  C   C5094     1.0  0.85444  0.62526  0.52922  1.0000
  Fe  Fe860     1.0  0.80629  0.48281  0.55643  1.0000
  H   H5080     1.0  0.90558  0.48477  0.46894  1.0000
  H   H5081     1.0  0.85930  0.48917  0.45639  1.0000
  S   S1720     1.0  0.85456  0.53431  0.45759  1.0000
  H   H5082     1.0  0.88324  0.66229  0.38031  1.0000
  H   H5083     1.0  0.76854  0.47950  0.53579  1.0000
  C   C5095     1.0  0.65779  0.49636  0.47010  1.0000
  S   S1721     1.0  0.81155  0.52595  0.47524  1.0000
  C   C5096     1.0  0.71975  0.50617  0.38083  1.0000
  S   S1722     1.0  0.51822  0.66588  0.45887  1.0000
  N   N419      1.0  0.86942  0.63079  0.54368  1.0000
  Fe  Fe861     1.0  0.78506  0.48606  0.38819  1.0000
  C   C5097     1.0  0.56279  0.71870  0.45617  1.0000
  S   S1723     1.0  0.55770  0.72083  0.42766  1.0000
  H   H5084     1.0  0.81755  0.56763  0.37725  1.0000
  C   C5098     1.0  0.59888  0.68620  0.47305  1.0000
  Fe  Fe862     1.0  0.65530  0.53332  0.38670  1.0000
  C   C5099     1.0  0.75288  0.50712  0.49770  1.0000
  C   C5100     1.0  0.60227  0.72221  0.43282  1.0000
  H   H5085     1.0  0.84325  0.62559  0.52731  1.0000
  S   S1724     1.0  0.84193  0.51554  0.43940  1.0000
  H   H5086     1.0  0.52750  0.58743  0.56151  1.0000
  C   C5101     1.0  0.55462  0.64125  0.37516  1.0000
  C   C5102     1.0  0.61495  0.49266  0.37660  1.0000
  N   N420      1.0  0.50894  0.71263  0.44546  1.0000
  S   S1725     1.0  0.63701  0.54200  0.37279  1.0000
  H   H5087     1.0  0.77943  0.52931  0.48070  1.0000
  H   H5088     1.0  0.65822  0.48937  0.48146  1.0000
  C   C5103     1.0  0.82621  0.58170  0.38641  1.0000
  C   C5104     1.0  0.91701  0.61487  0.39834  1.0000
  C   C5105     1.0  0.50918  0.67552  0.43133  1.0000
  Fe  Fe863     1.0  0.62111  0.54881  0.39427  1.0000
  C   C5106     1.0  0.76113  0.51846  0.49545  1.0000
  H   H5089     1.0  0.58698  0.68405  0.47605  1.0000
  H   H5090     1.0  0.98120  0.61459  0.49174  1.0000
  C   C5107     1.0  0.85533  0.63082  0.54148  1.0000
  C   C5108     1.0  0.59446  0.48398  0.39742  1.0000
  C   C5109     1.0  0.63297  0.54046  0.51544  1.0000
  C   C5110     1.0  0.65267  0.52379  0.50110  1.0000
  C   C5111     1.0  0.92286  0.60699  0.41145  1.0000
  H   H5091     1.0  0.92145  0.62473  0.39074  1.0000
  S   S1726     1.0  0.82822  0.65784  0.37345  1.0000
  H   H5092     1.0  0.62340  0.51541  0.53094  1.0000
  Fe  Fe864     1.0  0.86447  0.52026  0.43936  1.0000
  C   C5112     1.0  0.49810  0.68192  0.42229  1.0000
  H   H5093     1.0  0.63083  0.51125  0.56110  1.0000
  H   H5094     1.0  0.60595  0.50135  0.39739  1.0000
  H   H5095     1.0  0.80646  0.51085  0.37954  1.0000
  C   C5113     1.0  0.80885  0.51248  0.38971  1.0000
  H   H5096     1.0  0.64015  0.50240  0.52312  1.0000
  H   H5097     1.0  0.52010  0.69621  0.46228  1.0000
  C   C5114     1.0  0.82607  0.53369  0.55991  1.0000
  S   S1727     1.0  0.72956  0.48146  0.40312  1.0000
  H   H5098     1.0  0.84095  0.51323  0.48466  1.0000
  N   N421      1.0  0.85923  0.48540  0.41066  1.0000
  H   H5099     1.0  0.73157  0.50412  0.37432  1.0000
  H   H5100     1.0  0.74360  0.50545  0.50782  1.0000
  C   C5115     1.0  0.65405  0.55046  0.49696  1.0000
  C   C5116     1.0  0.83173  0.51050  0.49440  1.0000
  H   H5101     1.0  0.67093  0.53388  0.48476  1.0000
  Fe  Fe865     1.0  0.68520  0.48877  0.49324  1.0000
  C   C5117     1.0  0.66027  0.53588  0.49340  1.0000
  C   C5118     1.0  0.86882  0.47973  0.45352  1.0000
  H   H5102     1.0  0.63537  0.56406  0.51098  1.0000
  C   C5119     1.0  0.80833  0.50450  0.41700  1.0000
  C   C5120     1.0  0.72924  0.49098  0.54379  1.0000
  H   H5103     1.0  0.60327  0.71463  0.47051  1.0000
  H   H5104     1.0  0.65753  0.51253  0.49818  1.0000
  C   C5121     1.0  0.86996  0.63685  0.55649  1.0000
  H   H5105     1.0  0.57892  0.59708  0.38521  1.0000
  H   H5106     1.0  0.51279  0.71557  0.46592  1.0000
  N   N422      1.0  0.59365  0.60967  0.41864  1.0000
  C   C5122     1.0  0.59376  0.59491  0.42719  1.0000
  C   C5123     1.0  0.59356  0.62123  0.42534  1.0000
  C   C5124     1.0  0.59392  0.59137  0.44287  1.0000
  C   C5125     1.0  0.59384  0.61807  0.44095  1.0000
  C   C5126     1.0  0.59392  0.60307  0.44978  1.0000
  H   H5107     1.0  0.59995  0.60362  0.39674  1.0000
  H   H5108     1.0  0.59368  0.58578  0.42188  1.0000
  C   C5127     1.0  0.88237  0.61915  0.52195  1.0000
  H   H5109     1.0  0.59396  0.57966  0.44961  1.0000
  H   H5110     1.0  0.59383  0.62725  0.44622  1.0000
  H   H5111     1.0  0.59389  0.60057  0.46197  1.0000
  C   C5128     1.0  0.82346  0.60857  0.37325  1.0000
  N   N423      1.0  0.89855  0.59871  0.40566  1.0000
  C   C5129     1.0  0.90466  0.61066  0.39570  1.0000
  C   C5130     1.0  0.90453  0.59063  0.41829  1.0000
  H   H5112     1.0  0.74566  0.54028  0.37473  1.0000
  S   S1728     1.0  0.67949  0.53705  0.37586  1.0000
  Fe  Fe866     1.0  0.85270  0.65789  0.37296  1.0000
  H   H5113     1.0  0.58689  0.48468  0.40860  1.0000
  H   H5114     1.0  0.71068  0.48270  0.45433  1.0000
  H   H5115     1.0  0.89971  0.58116  0.42620  1.0000
  S   S1729     1.0  0.57393  0.59326  0.55599  1.0000
  C   C5131     1.0  0.86807  0.61946  0.51936  1.0000
  H   H5116     1.0  0.67894  0.48502  0.43773  1.0000
  H   H5117     1.0  0.88163  0.63879  0.55547  1.0000
  C   C5132     1.0  0.64000  0.62283  0.55956  1.0000
  H   H5118     1.0  0.79120  0.52552  0.45497  1.0000
  C   C5133     1.0  0.81632  0.51528  0.49283  1.0000
  H   H5119     1.0  0.59762  0.68513  0.44529  1.0000
  S   S1730     1.0  0.65746  0.49048  0.54766  1.0000
  H   H5120     1.0  0.52679  0.71939  0.42631  1.0000
  C   C5134     1.0  0.63589  0.53401  0.55293  1.0000
  H   H5121     1.0  0.71408  0.48517  0.53331  1.0000
  H   H5122     1.0  0.56586  0.52300  0.39426  1.0000
  C   C5135     1.0  0.69322  0.52123  0.38321  1.0000
  H   H5123     1.0  0.69694  0.49164  0.41447  1.0000
  C   C5136     1.0  0.75677  0.49781  0.48701  1.0000
  C   C5137     1.0  0.58135  0.58885  0.37804  1.0000
  C   C5138     1.0  0.81550  0.51644  0.41590  1.0000
  C   C5139     1.0  0.61397  0.48228  0.36854  1.0000
  H   H5124     1.0  0.56168  0.70686  0.45898  1.0000
  C   C5140     1.0  0.59273  0.61325  0.40245  1.0000
  C   C5141     1.0  0.74458  0.48913  0.54477  1.0000
  H   H5125     1.0  0.62238  0.54235  0.52415  1.0000
  C   C5142     1.0  0.63154  0.51326  0.51997  1.0000
  H   H5126     1.0  0.81772  0.51806  0.42610  1.0000
  H   H5127     1.0  0.65992  0.55990  0.49123  1.0000
  H   H5128     1.0  0.89402  0.62509  0.53583  1.0000
  C   C5143     1.0  0.84605  0.48513  0.40677  1.0000
  C   C5144     1.0  0.82843  0.59647  0.38496  1.0000
  H   H5129     1.0  0.83406  0.59851  0.39284  1.0000
  H   H5130     1.0  0.93190  0.61066  0.41402  1.0000
  C   C5145     1.0  0.57096  0.51923  0.38349  1.0000
  H   H5131     1.0  0.75056  0.48879  0.48882  1.0000
  C   C5146     1.0  0.50585  0.72140  0.41930  1.0000
  Fe  Fe867     1.0  0.58481  0.56888  0.56620  1.0000
  H   H5132     1.0  0.62508  0.51151  0.51235  1.0000
  C   C5147     1.0  0.53920  0.64872  0.37992  1.0000
  H   H5133     1.0  0.82736  0.51751  0.54637  1.0000
  Fe  Fe868     1.0  0.87051  0.67564  0.56477  1.0000
  H   H5134     1.0  0.84284  0.71750  0.54878  1.0000
  C   C5148     1.0  0.48873  0.67329  0.45430  1.0000
  H   H5135     1.0  0.81977  0.53167  0.37746  1.0000
  Fe  Fe869     1.0  0.61687  0.57233  0.54761  1.0000
  H   H5136     1.0  0.84472  0.63534  0.54915  1.0000
  C   C5149     1.0  0.80788  0.50320  0.51973  1.0000
  H   H5137     1.0  0.63786  0.47947  0.42414  1.0000
  H   H5138     1.0  0.51072  0.72530  0.40717  1.0000
  C   C5150     1.0  0.51491  0.71794  0.43019  1.0000
  H   H5139     1.0  0.71599  0.47746  0.43574  1.0000
  H   H5140     1.0  0.77191  0.49268  0.46589  1.0000
  H   H5141     1.0  0.71984  0.49758  0.55101  1.0000
  H   H5142     1.0  0.92086  0.58868  0.43190  1.0000
  H   H5143     1.0  0.88476  0.59753  0.39109  1.0000
  N   N424      1.0  0.85758  0.66645  0.43020  1.0000
  C   C5151     1.0  0.85459  0.65959  0.44553  1.0000
  C   C5152     1.0  0.86969  0.67376  0.42399  1.0000
  C   C5153     1.0  0.86384  0.65993  0.45507  1.0000
  C   C5154     1.0  0.87935  0.67406  0.43314  1.0000
  C   C5155     1.0  0.87632  0.66717  0.44879  1.0000
  C   C5156     1.0  0.84748  0.66616  0.42057  1.0000
  H   H5144     1.0  0.84507  0.65369  0.45043  1.0000
  H   H5145     1.0  0.87224  0.67904  0.41181  1.0000
  H   H5146     1.0  0.86161  0.65434  0.46721  1.0000
  H   H5147     1.0  0.88938  0.67922  0.42805  1.0000
  H   H5148     1.0  0.88382  0.66715  0.45602  1.0000
  H   H5149     1.0  0.84636  0.65409  0.42197  1.0000
  H   H5150     1.0  0.83581  0.67358  0.42377  1.0000
  H   H5151     1.0  0.85222  0.67034  0.40810  1.0000
  S   S1731     1.0  0.86323  0.54076  0.41944  1.0000
  N   N425      1.0  0.77664  0.51148  0.47176  1.0000
  C   C5157     1.0  0.76883  0.50009  0.47407  1.0000
  N   N426      1.0  0.63934  0.52611  0.51214  1.0000
  H   H5152     1.0  0.83013  0.57216  0.39543  1.0000
  C   C5158     1.0  0.72597  0.48399  0.53376  1.0000
  H   H5153     1.0  0.82531  0.62009  0.37183  1.0000
  H   H5154     1.0  0.52130  0.67359  0.42589  1.0000
  H   H5155     1.0  0.89954  0.61746  0.38600  1.0000
  H   H5156     1.0  0.81789  0.70018  0.54445  1.0000
  H   H5157     1.0  0.87120  0.50061  0.41396  1.0000
  H   H5158     1.0  0.63814  0.48881  0.46876  1.0000
  Fe  Fe870     1.0  0.75334  0.48261  0.38847  1.0000
  C   C5159     1.0  0.70615  0.48160  0.44485  1.0000
  C   C5160     1.0  0.49056  0.71961  0.42415  1.0000
  C   C5161     1.0  0.86526  0.49957  0.40546  1.0000
  S   S1732     1.0  0.84888  0.68384  0.36710  1.0000
  C   C5162     1.0  0.59278  0.57518  0.38024  1.0000
  H   H5159     1.0  0.59856  0.70623  0.42177  1.0000
  C   C5163     1.0  0.49401  0.71070  0.45029  1.0000
  H   H5160     1.0  0.49396  0.63760  0.44182  1.0000
  H   H5161     1.0  0.63687  0.63540  0.55674  1.0000
  S   S1733     1.0  0.74831  0.49705  0.55814  1.0000
  H   H5162     1.0  0.89301  0.61496  0.51419  1.0000
  H   H5163     1.0  0.80045  0.50561  0.46117  1.0000
  C   C5164     1.0  0.56628  0.72455  0.46695  1.0000
  S   S1734     1.0  0.52472  0.64817  0.37131  1.0000
  C   C5165     1.0  0.58252  0.52597  0.37261  1.0000
  C   C5166     1.0  0.80824  0.70748  0.55076  1.0000
  C   C5167     1.0  0.63796  0.59805  0.55726  1.0000
  H   H5164     1.0  0.58620  0.53505  0.37510  1.0000
  C   C5168     1.0  0.98302  0.62243  0.48061  1.0000
  C   C5169     1.0  0.80067  0.72175  0.54309  1.0000
  S   S1735     1.0  0.66614  0.47830  0.50996  1.0000
  H   H5165     1.0  0.60442  0.55392  0.37268  1.0000
  C   C5170     1.0  0.59571  0.56451  0.37101  1.0000
  Fe  Fe871     1.0  0.67557  0.48223  0.52799  1.0000
  H   H5166     1.0  0.86577  0.47972  0.48689  1.0000
  H   H5167     1.0  0.53722  0.61373  0.56432  1.0000
  H   H5168     1.0  0.61051  0.47993  0.45147  1.0000
  Fe  Fe872     1.0  0.77150  0.48622  0.56419  1.0000
  H   H5169     1.0  0.55206  0.67854  0.36741  1.0000
  S   S1736     1.0  0.78651  0.50132  0.56474  1.0000
  C   C5171     1.0  0.73552  0.54005  0.37059  1.0000
  H   H5170     1.0  0.65905  0.56870  0.56347  1.0000
  S   S1737     1.0  0.62807  0.50480  0.36813  1.0000
  C   C5172     1.0  0.80366  0.70297  0.56672  1.0000
  H   H5171     1.0  0.55762  0.63396  0.36704  1.0000
  Fe  Fe873     1.0  0.63440  0.67148  0.60818  1.0000
  S   S1738     1.0  0.63784  0.67207  0.63098  1.0000
  N   N427      1.0  0.50969  0.53391  0.58889  1.0000
  Fe  Fe874     1.0  0.63586  0.63688  0.61713  1.0000
  S   S1739     1.0  0.63965  0.63452  0.64062  1.0000
  S   S1740     1.0  0.63567  0.61507  0.61083  1.0000
  Fe  Fe875     1.0  0.62121  0.65629  0.64106  1.0000
  S   S1741     1.0  0.60236  0.65758  0.66247  1.0000
  Fe  Fe876     1.0  0.65593  0.65032  0.62855  1.0000
  S   S1742     1.0  0.67844  0.64891  0.63432  1.0000
  S   S1743     1.0  0.61599  0.65755  0.61842  1.0000
  S   S1744     1.0  0.65393  0.65077  0.60491  1.0000
  H   H5172     1.0  0.78863  0.52020  0.58158  1.0000
  H   H5173     1.0  0.55708  0.71515  0.76264  1.0000
  H   H5174     1.0  0.54418  0.50203  0.60128  1.0000
  H   H5175     1.0  0.91850  0.66055  0.62527  1.0000
  C   C5173     1.0  0.63011  0.72504  0.61134  1.0000
  C   C5174     1.0  0.62939  0.71137  0.60793  1.0000
  S   S1745     1.0  0.50474  0.62981  0.71613  1.0000
  C   C5175     1.0  0.64986  0.57365  0.57259  1.0000
  S   S1746     1.0  0.62363  0.66923  0.71661  1.0000
  C   C5176     1.0  0.50778  0.51912  0.59555  1.0000
  Fe  Fe877     1.0  0.90981  0.66699  0.69537  1.0000
  S   S1747     1.0  0.89386  0.65118  0.71000  1.0000
  H   H5176     1.0  0.92833  0.64380  0.61700  1.0000
  C   C5177     1.0  0.74355  0.55523  0.61457  1.0000
  Fe  Fe878     1.0  0.91531  0.68844  0.66371  1.0000
  S   S1748     1.0  0.91047  0.69746  0.63985  1.0000
  S   S1749     1.0  0.89610  0.68976  0.68461  1.0000
  S   S1750     1.0  0.92288  0.67792  0.70496  1.0000
  H   H5177     1.0  0.90771  0.64716  0.62536  1.0000
  S   S1751     1.0  0.87103  0.66211  0.62152  1.0000
  S   S1752     1.0  0.83623  0.67671  0.60039  1.0000
  Fe  Fe879     1.0  0.77889  0.57477  0.61989  1.0000
  S   S1753     1.0  0.79095  0.58283  0.63314  1.0000
  S   S1754     1.0  0.79042  0.56488  0.59879  1.0000
  Fe  Fe880     1.0  0.74728  0.58366  0.64014  1.0000
  S   S1755     1.0  0.75633  0.59241  0.65549  1.0000
  S   S1756     1.0  0.72278  0.58236  0.64218  1.0000
  Fe  Fe881     1.0  0.77077  0.60326  0.63337  1.0000
  S   S1757     1.0  0.77365  0.62736  0.63087  1.0000
  Fe  Fe882     1.0  0.77569  0.57131  0.65412  1.0000
  S   S1758     1.0  0.78697  0.55632  0.67352  1.0000
  S   S1759     1.0  0.76002  0.59634  0.61812  1.0000
  S   S1760     1.0  0.76532  0.56149  0.64085  1.0000
  C   C5178     1.0  0.63739  0.72212  0.58075  1.0000
  S   S1761     1.0  0.82503  0.71923  0.57983  1.0000
  S   S1762     1.0  0.74739  0.56135  0.74039  1.0000
  C   C5179     1.0  0.77566  0.55713  0.69210  1.0000
  C   C5180     1.0  0.78267  0.55082  0.70475  1.0000
  C   C5181     1.0  0.77412  0.55225  0.71961  1.0000
  C   C5182     1.0  0.75845  0.55974  0.72188  1.0000
  C   C5183     1.0  0.75138  0.56583  0.70926  1.0000
  C   C5184     1.0  0.75998  0.56457  0.69438  1.0000
  H   H5178     1.0  0.79482  0.54508  0.70303  1.0000
  H   H5179     1.0  0.77970  0.54765  0.72926  1.0000
  H   H5180     1.0  0.73923  0.57156  0.71100  1.0000
  H   H5181     1.0  0.75446  0.56932  0.68470  1.0000
  C   C5185     1.0  0.78896  0.54568  0.60175  1.0000
  C   C5186     1.0  0.78817  0.53588  0.61636  1.0000
  C   C5187     1.0  0.78708  0.52051  0.61851  1.0000
  C   C5188     1.0  0.78710  0.51480  0.60600  1.0000
  H   H5182     1.0  0.50165  0.53211  0.74326  1.0000
  H   H5183     1.0  0.66506  0.68094  0.59249  1.0000
  H   H5184     1.0  0.78876  0.54003  0.62595  1.0000
  H   H5185     1.0  0.78635  0.51301  0.62987  1.0000
  H   H5186     1.0  0.91923  0.72631  0.64143  1.0000
  C   C5189     1.0  0.94559  0.71468  0.70037  1.0000
  C   C5190     1.0  0.81619  0.63926  0.59449  1.0000
  H   H5187     1.0  0.84164  0.61537  0.73319  1.0000
  C   C5191     1.0  0.79799  0.62235  0.60637  1.0000
  C   C5192     1.0  0.79000  0.63186  0.61681  1.0000
  C   C5193     1.0  0.79514  0.64504  0.61612  1.0000
  C   C5194     1.0  0.80828  0.64870  0.60503  1.0000
  C   C5195     1.0  0.49657  0.54608  0.58439  1.0000
  H   H5188     1.0  0.79400  0.61223  0.60675  1.0000
  H   H5189     1.0  0.78898  0.65242  0.62418  1.0000
  C   C5196     1.0  0.89779  0.68881  0.63570  1.0000
  C   C5197     1.0  0.89314  0.69449  0.62161  1.0000
  C   C5198     1.0  0.88417  0.68687  0.61746  1.0000
  C   C5199     1.0  0.87995  0.67346  0.62734  1.0000
  C   C5200     1.0  0.88413  0.66812  0.64166  1.0000
  C   C5201     1.0  0.89300  0.67580  0.64587  1.0000
  H   H5190     1.0  0.89671  0.70463  0.61376  1.0000
  H   H5191     1.0  0.88095  0.69108  0.60643  1.0000
  H   H5192     1.0  0.88083  0.65779  0.64938  1.0000
  H   H5193     1.0  0.89648  0.67138  0.65679  1.0000
  C   C5202     1.0  0.63331  0.70976  0.59267  1.0000
  H   H5194     1.0  0.82004  0.48661  0.59641  1.0000
  C   C5203     1.0  0.90733  0.60724  0.74561  1.0000
  C   C5204     1.0  0.89190  0.61528  0.74652  1.0000
  C   C5205     1.0  0.88806  0.62886  0.73562  1.0000
  C   C5206     1.0  0.89960  0.63458  0.72372  1.0000
  C   C5207     1.0  0.91511  0.62673  0.72283  1.0000
  C   C5208     1.0  0.91894  0.61297  0.73371  1.0000
  H   H5195     1.0  0.92407  0.63106  0.71359  1.0000
  H   H5196     1.0  0.93092  0.60676  0.73289  1.0000
  C   C5209     1.0  0.55060  0.56281  0.58506  1.0000
  C   C5210     1.0  0.60205  0.61954  0.58114  1.0000
  S   S1763     1.0  0.78544  0.49560  0.60910  1.0000
  C   C5211     1.0  0.51969  0.57867  0.58580  1.0000
  C   C5212     1.0  0.52392  0.56891  0.59923  1.0000
  C   C5213     1.0  0.53942  0.56098  0.59885  1.0000
  C   C5214     1.0  0.55339  0.61029  0.58593  1.0000
  S   S1764     1.0  0.91223  0.59001  0.75912  1.0000
  H   H5197     1.0  0.51543  0.56790  0.60998  1.0000
  H   H5198     1.0  0.54284  0.55379  0.60930  1.0000
  Fe  Fe883     1.0  0.91055  0.70049  0.69255  1.0000
  S   S1765     1.0  0.60421  0.57547  0.57132  1.0000
  C   C5215     1.0  0.62161  0.61713  0.60053  1.0000
  C   C5216     1.0  0.61840  0.60380  0.59882  1.0000
  H   H5199     1.0  0.78975  0.54750  0.57789  1.0000
  H   H5200     1.0  0.67845  0.66970  0.60457  1.0000
  C   C5217     1.0  0.60475  0.63293  0.58333  1.0000
  C   C5218     1.0  0.61460  0.63173  0.59296  1.0000
  H   H5201     1.0  0.62372  0.59249  0.60474  1.0000
  H   H5202     1.0  0.67555  0.70984  0.58090  1.0000
  H   H5203     1.0  0.82451  0.54684  0.57651  1.0000
  H   H5204     1.0  0.61717  0.64207  0.59408  1.0000
  C   C5219     1.0  0.60862  0.60501  0.58917  1.0000
  H   H5205     1.0  0.90407  0.65861  0.73707  1.0000
  H   H5206     1.0  0.62561  0.70219  0.61713  1.0000
  H   H5207     1.0  0.53176  0.64641  0.70467  1.0000
  C   C5220     1.0  0.69099  0.63055  0.63543  1.0000
  C   C5221     1.0  0.68619  0.61780  0.63441  1.0000
  C   C5222     1.0  0.69598  0.60297  0.63655  1.0000
  C   C5223     1.0  0.71070  0.60095  0.63929  1.0000
  C   C5224     1.0  0.71563  0.61377  0.63992  1.0000
  C   C5225     1.0  0.70572  0.62853  0.63813  1.0000
  H   H5208     1.0  0.67490  0.61932  0.63217  1.0000
  H   H5209     1.0  0.69219  0.59308  0.63596  1.0000
  H   H5210     1.0  0.72701  0.61231  0.64195  1.0000
  H   H5211     1.0  0.70949  0.63837  0.63888  1.0000
  C   C5226     1.0  0.60818  0.66127  0.67734  1.0000
  C   C5227     1.0  0.59814  0.66095  0.69187  1.0000
  C   C5228     1.0  0.60269  0.66379  0.70388  1.0000
  C   C5229     1.0  0.61732  0.66687  0.70141  1.0000
  C   C5230     1.0  0.62731  0.66729  0.68687  1.0000
  C   C5231     1.0  0.62279  0.66438  0.67489  1.0000
  H   H5212     1.0  0.58691  0.65836  0.69392  1.0000
  H   H5213     1.0  0.59492  0.66348  0.71507  1.0000
  H   H5214     1.0  0.63858  0.66981  0.68487  1.0000
  H   H5215     1.0  0.63065  0.66452  0.66379  1.0000
  C   C5232     1.0  0.87161  0.60813  0.72331  1.0000
  Fe  Fe884     1.0  0.50228  0.58799  0.73792  1.0000
  H   H5216     1.0  0.49755  0.55765  0.58507  1.0000
  H   H5217     1.0  0.51873  0.61498  0.57743  1.0000
  C   C5233     1.0  0.75388  0.51888  0.73813  1.0000
  S   S1766     1.0  0.60918  0.67492  0.75836  1.0000
  C   C5234     1.0  0.79164  0.71271  0.57481  1.0000
  C   C5235     1.0  0.91744  0.65281  0.61847  1.0000
  H   H5218     1.0  0.49921  0.50326  0.63903  1.0000
  H   H5219     1.0  0.55925  0.61701  0.57544  1.0000
  H   H5220     1.0  0.86599  0.61905  0.71692  1.0000
  H   H5221     1.0  0.73865  0.55017  0.63935  1.0000
  H   H5222     1.0  0.81987  0.49843  0.60870  1.0000
  H   H5223     1.0  0.80061  0.57476  0.68942  1.0000
  H   H5224     1.0  0.76885  0.52272  0.71551  1.0000
  C   C5236     1.0  0.79398  0.58560  0.68392  1.0000
  N   N428      1.0  0.65696  0.63167  0.69487  1.0000
  C   C5237     1.0  0.67136  0.62671  0.68627  1.0000
  C   C5238     1.0  0.64399  0.63015  0.69147  1.0000
  C   C5239     1.0  0.67309  0.61954  0.67423  1.0000
  C   C5240     1.0  0.64528  0.62326  0.67935  1.0000
  C   C5241     1.0  0.65995  0.61782  0.67077  1.0000
  C   C5242     1.0  0.65542  0.63936  0.70728  1.0000
  H   H5225     1.0  0.68163  0.62830  0.68864  1.0000
  H   H5226     1.0  0.63252  0.63446  0.69799  1.0000
  H   H5227     1.0  0.68453  0.61553  0.66748  1.0000
  H   H5228     1.0  0.63494  0.62236  0.67650  1.0000
  H   H5229     1.0  0.66115  0.61247  0.66132  1.0000
  H   H5230     1.0  0.66506  0.63401  0.71339  1.0000
  H   H5231     1.0  0.65537  0.65187  0.70247  1.0000
  H   H5232     1.0  0.64440  0.63855  0.71599  1.0000
  N   N429      1.0  0.74970  0.53332  0.60289  1.0000
  S   S1767     1.0  0.63368  0.69226  0.58826  1.0000
  N   N430      1.0  0.74551  0.50915  0.74906  1.0000
  C   C5243     1.0  0.56729  0.64422  0.67073  1.0000
  C   C5244     1.0  0.54169  0.64598  0.69505  1.0000
  H   H5233     1.0  0.60627  0.59468  0.58796  1.0000
  C   C5245     1.0  0.75274  0.52705  0.58914  1.0000
  S   S1768     1.0  0.81546  0.53781  0.76658  1.0000
  H   H5234     1.0  0.56044  0.58688  0.61988  1.0000
  H   H5235     1.0  0.65886  0.59318  0.58341  1.0000
  N   N431      1.0  0.89599  0.64727  0.76049  1.0000
  C   C5246     1.0  0.91914  0.67515  0.59665  1.0000
  C   C5247     1.0  0.77089  0.60606  0.68516  1.0000
  C   C5248     1.0  0.53037  0.61760  0.57508  1.0000
  S   S1769     1.0  0.57016  0.55409  0.58474  1.0000
  Fe  Fe885     1.0  0.86173  0.67136  0.59980  1.0000
  H   H5236     1.0  0.81704  0.61880  0.58700  1.0000
  N   N432      1.0  0.64654  0.59064  0.56815  1.0000
  H   H5237     1.0  0.74873  0.55671  0.59022  1.0000
  S   S1770     1.0  0.96579  0.67139  0.68268  1.0000
  Fe  Fe886     1.0  0.60405  0.67227  0.73713  1.0000
  H   H5238     1.0  0.74163  0.52723  0.58651  1.0000
  C   C5249     1.0  0.54569  0.63220  0.73126  1.0000
  H   H5239     1.0  0.53272  0.58650  0.62337  1.0000
  C   C5250     1.0  0.54616  0.57201  0.57157  1.0000
  N   N433      1.0  0.79911  0.59200  0.66874  1.0000
  H   H5240     1.0  0.76941  0.62309  0.66391  1.0000
  C   C5251     1.0  0.97735  0.68514  0.67314  1.0000
  H   H5241     1.0  0.81217  0.65889  0.60455  1.0000
  H   H5242     1.0  0.54777  0.52879  0.58807  1.0000
  H   H5243     1.0  0.74180  0.56763  0.61351  1.0000
  S   S1771     1.0  0.54653  0.67345  0.74890  1.0000
  C   C5252     1.0  0.74188  0.54539  0.62912  1.0000
  C   C5253     1.0  0.81359  0.58402  0.66001  1.0000
  C   C5254     1.0  0.52396  0.53726  0.58578  1.0000
  Fe  Fe887     1.0  0.78773  0.48650  0.58822  1.0000
  C   C5255     1.0  0.74746  0.54896  0.60149  1.0000
  S   S1772     1.0  0.59112  0.62117  0.56773  1.0000
  H   H5244     1.0  0.88363  0.66018  0.74307  1.0000
  S   S1773     1.0  0.54582  0.61533  0.72594  1.0000
  C   C5256     1.0  0.90741  0.65559  0.59578  1.0000
  H   H5245     1.0  0.51841  0.49581  0.60586  1.0000
  H   H5246     1.0  0.97551  0.72159  0.65079  1.0000
  C   C5257     1.0  0.81100  0.62611  0.59516  1.0000
  C   C5258     1.0  0.78829  0.52450  0.59133  1.0000
  Fe  Fe888     1.0  0.58731  0.69349  0.75915  1.0000
  H   H5247     1.0  0.56165  0.62360  0.66911  1.0000
  C   C5259     1.0  0.74829  0.52358  0.61713  1.0000
  C   C5260     1.0  0.82550  0.53546  0.57456  1.0000
  C   C5261     1.0  0.55976  0.63630  0.72924  1.0000
  N   N434      1.0  0.67288  0.69425  0.60283  1.0000
  C   C5262     1.0  0.89405  0.65996  0.74701  1.0000
  H   H5248     1.0  0.73849  0.48761  0.75506  1.0000
  S   S1774     1.0  0.58335  0.69218  0.73677  1.0000
  C   C5263     1.0  0.74492  0.49547  0.74633  1.0000
  C   C5264     1.0  0.87080  0.58695  0.74491  1.0000
  S   S1775     1.0  0.83243  0.64373  0.58021  1.0000
  H   H5249     1.0  0.65360  0.56928  0.58372  1.0000
  N   N435      1.0  0.53834  0.60957  0.58771  1.0000
  C   C5265     1.0  0.89505  0.58881  0.72662  1.0000
  H   H5250     1.0  0.95988  0.70172  0.66222  1.0000
  C   C5266     1.0  0.53656  0.52592  0.59026  1.0000
  C   C5267     1.0  0.90925  0.63583  0.76008  1.0000
  C   C5268     1.0  0.75324  0.49106  0.73250  1.0000
  C   C5269     1.0  0.79052  0.60539  0.66164  1.0000
  Fe  Fe889     1.0  0.56993  0.67427  0.75137  1.0000
  H   H5251     1.0  0.90748  0.58461  0.72311  1.0000
  C   C5270     1.0  0.76219  0.51493  0.72410  1.0000
  H   H5252     1.0  0.92017  0.69430  0.57685  1.0000
  Fe  Fe890     1.0  0.94022  0.67783  0.68233  1.0000
  S   S1776     1.0  0.50085  0.58978  0.58600  1.0000
  C   C5271     1.0  0.88668  0.58099  0.74010  1.0000
  H   H5253     1.0  0.91843  0.63594  0.74976  1.0000
  C   C5272     1.0  0.66610  0.70560  0.62492  1.0000
  S   S1777     1.0  0.92869  0.70132  0.67068  1.0000
  N   N436      1.0  0.82602  0.50830  0.58465  1.0000
  H   H5254     1.0  0.87604  0.63486  0.73629  1.0000
  Fe  Fe891     1.0  0.75997  0.55021  0.75970  1.0000
  C   C5273     1.0  0.82692  0.50641  0.57027  1.0000
  H   H5255     1.0  0.84042  0.59730  0.74670  1.0000
  H   H5256     1.0  0.75960  0.51488  0.59086  1.0000
  Fe  Fe892     1.0  0.84171  0.69602  0.58009  1.0000
  H   H5257     1.0  0.53864  0.62515  0.69094  1.0000
  C   C5274     1.0  0.54551  0.63392  0.68728  1.0000
  H   H5258     1.0  0.58336  0.60588  0.76022  1.0000
  H   H5259     1.0  0.92455  0.67994  0.60274  1.0000
  Fe  Fe893     1.0  0.52226  0.61163  0.72757  1.0000
  H   H5260     1.0  0.76853  0.49754  0.71062  1.0000
  H   H5261     1.0  0.57007  0.66478  0.67530  1.0000
  H   H5262     1.0  0.57091  0.65238  0.73252  1.0000
  C   C5275     1.0  0.76193  0.50087  0.72134  1.0000
  C   C5276     1.0  0.82615  0.49488  0.59765  1.0000
  C   C5277     1.0  0.66923  0.69269  0.61847  1.0000
  C   C5278     1.0  0.55844  0.63301  0.67509  1.0000
  C   C5279     1.0  0.49176  0.60483  0.66264  1.0000
  C   C5280     1.0  0.88749  0.60245  0.71811  1.0000
  C   C5281     1.0  0.67050  0.72161  0.59932  1.0000
  C   C5282     1.0  0.57194  0.61228  0.76480  1.0000
  C   C5283     1.0  0.97713  0.71261  0.69559  1.0000
  H   H5263     1.0  0.81194  0.57307  0.65846  1.0000
  H   H5264     1.0  0.52089  0.63825  0.73935  1.0000
  C   C5284     1.0  0.54684  0.66914  0.69931  1.0000
  C   C5285     1.0  0.73695  0.51368  0.76361  1.0000
  C   C5286     1.0  0.82558  0.52254  0.58686  1.0000
  H   H5265     1.0  0.62732  0.72609  0.62320  1.0000
  C   C5287     1.0  0.56312  0.65612  0.67876  1.0000
  H   H5266     1.0  0.54361  0.68061  0.69163  1.0000
  C   C5288     1.0  0.65228  0.59896  0.57457  1.0000
  H   H5267     1.0  0.93324  0.71557  0.70211  1.0000
  C   C5289     1.0  0.53081  0.60149  0.60114  1.0000
  H   H5268     1.0  0.89259  0.57063  0.74701  1.0000
  S   S1778     1.0  0.50315  0.56263  0.74814  1.0000
  H   H5269     1.0  0.78842  0.70951  0.58728  1.0000
  H   H5270     1.0  0.90338  0.64494  0.60121  1.0000
  H   H5271     1.0  0.53707  0.66779  0.70948  1.0000
  H   H5272     1.0  0.77858  0.49534  0.76542  1.0000
  H   H5273     1.0  0.77558  0.58711  0.70427  1.0000
  H   H5274     1.0  0.89401  0.60895  0.70794  1.0000
  C   C5290     1.0  0.84701  0.60668  0.74230  1.0000
  H   H5275     1.0  0.79451  0.61045  0.64959  1.0000
  S   S1779     1.0  0.50524  0.60507  0.74953  1.0000
  N   N437      1.0  0.91437  0.66154  0.60338  1.0000
  S   S1780     1.0  0.92819  0.66473  0.67365  1.0000
  C   C5291     1.0  0.77981  0.59251  0.69236  1.0000
  H   H5276     1.0  0.51878  0.60113  0.60269  1.0000
  C   C5292     1.0  0.53455  0.51094  0.59764  1.0000
  S   S1781     1.0  0.89879  0.71991  0.70494  1.0000
  H   H5277     1.0  0.59963  0.64422  0.57720  1.0000
  H   H5278     1.0  0.52142  0.66108  0.74835  1.0000
  C   C5293     1.0  0.67330  0.70850  0.59327  1.0000
  C   C5294     1.0  0.78900  0.53998  0.58924  1.0000
  Fe  Fe894     1.0  0.48730  0.62177  0.73710  1.0000
  C   C5295     1.0  0.77630  0.61263  0.66973  1.0000
  H   H5279     1.0  0.74349  0.52170  0.64171  1.0000
  C   C5296     1.0  0.95514  0.70058  0.70564  1.0000
  H   H5280     1.0  0.52891  0.63032  0.57321  1.0000
  C   C5297     1.0  0.55723  0.72685  0.76270  1.0000
  H   H5281     1.0  0.83827  0.48882  0.59834  1.0000
  H   H5282     1.0  0.80972  0.69216  0.57291  1.0000
  C   C5298     1.0  0.74444  0.52945  0.63045  1.0000
  S   S1782     1.0  0.77839  0.52822  0.76034  1.0000
  C   C5299     1.0  0.91670  0.68334  0.58203  1.0000
  H   H5283     1.0  0.55700  0.66895  0.70366  1.0000
  C   C5300     1.0  0.53863  0.59322  0.61291  1.0000
  H   H5284     1.0  0.84570  0.61223  0.75197  1.0000
  S   S1783     1.0  0.86690  0.69160  0.58061  1.0000
  C   C5301     1.0  0.97138  0.69934  0.66415  1.0000
  C   C5302     1.0  0.54629  0.65797  0.74147  1.0000
  N   N438      1.0  0.96771  0.72635  0.69026  1.0000
  H   H5285     1.0  0.89279  0.67127  0.74985  1.0000
  Fe  Fe895     1.0  0.50168  0.61082  0.70732  1.0000
  H   H5286     1.0  0.57361  0.60254  0.59581  1.0000
  S   S1784     1.0  0.52083  0.59323  0.71685  1.0000
  H   H5287     1.0  0.95036  0.69036  0.71114  1.0000
  H   H5288     1.0  0.75036  0.51115  0.61824  1.0000
  H   H5289     1.0  0.75972  0.61135  0.69146  1.0000
  S   S1785     1.0  0.86758  0.65504  0.58406  1.0000
  H   H5290     1.0  0.81729  0.59120  0.64839  1.0000
  N   N439      1.0  0.86347  0.60031  0.73650  1.0000
  C   C5303     1.0  0.98032  0.71059  0.65761  1.0000
  C   C5304     1.0  0.53213  0.65421  0.74295  1.0000
  H   H5291     1.0  0.82306  0.58122  0.66623  1.0000
  Fe  Fe896     1.0  0.84262  0.66218  0.58279  1.0000
  H   H5292     1.0  0.57048  0.62941  0.72390  1.0000
  C   C5305     1.0  0.66678  0.72014  0.61524  1.0000
  C   C5306     1.0  0.90511  0.66329  0.58103  1.0000
  C   C5307     1.0  0.56005  0.64919  0.73431  1.0000
  H   H5293     1.0  0.57744  0.64365  0.66130  1.0000
  H   H5294     1.0  0.86438  0.58098  0.75554  1.0000
  H   H5295     1.0  0.89973  0.65850  0.57496  1.0000
  C   C5308     1.0  0.53181  0.64133  0.73783  1.0000
  N   N440      1.0  0.55061  0.65675  0.69089  1.0000
  C   C5309     1.0  0.48978  0.58951  0.68869  1.0000
  C   C5310     1.0  0.55415  0.59344  0.61096  1.0000
  H   H5296     1.0  0.64040  0.72092  0.56893  1.0000
  C   C5311     1.0  0.67560  0.68077  0.59617  1.0000
  S   S1786     1.0  0.59035  0.65418  0.74984  1.0000
  C   C5312     1.0  0.56156  0.60215  0.59745  1.0000
  H   H5297     1.0  0.88284  0.61078  0.75529  1.0000
  H   H5298     1.0  0.75426  0.52971  0.74030  1.0000
  H   H5299     1.0  0.66858  0.68146  0.62608  1.0000
  C   C5313     1.0  0.90968  0.67730  0.57417  1.0000
  H   H5300     1.0  0.82473  0.52411  0.59827  1.0000
  H   H5301     1.0  0.68552  0.68085  0.58606  1.0000
  H   H5302     1.0  0.75959  0.53386  0.57901  1.0000
  C   C5314     1.0  0.52011  0.50745  0.60020  1.0000
  C   C5315     1.0  0.53078  0.58007  0.57197  1.0000
  H   H5303     1.0  0.49127  0.58759  0.70029  1.0000
  H   H5304     1.0  0.75323  0.47991  0.73067  1.0000
  C   C5316     1.0  0.48818  0.49130  0.62970  1.0000
  H   H5305     1.0  0.97855  0.68851  0.70710  1.0000
  H   H5306     1.0  0.66295  0.70433  0.63732  1.0000
  S   S1787     1.0  0.58782  0.71574  0.76442  1.0000
  H   H5307     1.0  0.89352  0.71887  0.65958  1.0000
  H   H5308     1.0  0.49664  0.51629  0.59745  1.0000
  C   C5317     1.0  0.55875  0.60944  0.76246  1.0000
  H   H5309     1.0  0.65308  0.62173  0.57600  1.0000
  C   C5318     1.0  0.49360  0.60253  0.67766  1.0000
  C   C5319     1.0  0.97098  0.69955  0.70342  1.0000
  H   H5310     1.0  0.63932  0.56931  0.57399  1.0000
  H   H5311     1.0  0.48796  0.50743  0.76506  1.0000
  C   C5320     1.0  0.49034  0.50442  0.63295  1.0000
  C   C5321     1.0  0.48940  0.53307  0.74302  1.0000
  H   H5312     1.0  0.72685  0.52338  0.76169  1.0000
  H   H5313     1.0  0.52566  0.54879  0.57984  1.0000
  H   H5314     1.0  0.55981  0.60098  0.75585  1.0000
  S   S1788     1.0  0.50014  0.61635  0.68255  1.0000
  H   H5315     1.0  0.82760  0.49508  0.56841  1.0000
  H   H5316     1.0  0.49612  0.54648  0.57243  1.0000
  C   C5322     1.0  0.64914  0.61516  0.57033  1.0000
  H   H5317     1.0  0.86664  0.62875  0.56760  1.0000
  H   H5318     1.0  0.49468  0.61489  0.65408  1.0000
  H   H5319     1.0  0.48880  0.52376  0.73789  1.0000
  C   C5323     1.0  0.78427  0.72687  0.56678  1.0000
  H   H5320     1.0  0.53387  0.61610  0.76602  1.0000
  H   H5321     1.0  0.87384  0.72676  0.68201  1.0000
  C   C5324     1.0  0.48615  0.59415  0.65861  1.0000
  S   S1789     1.0  0.52828  0.47753  0.85031  1.0000
  S   S1790     1.0  0.59919  0.63738  0.78936  1.0000
  H   H5322     1.0  0.53160  0.63644  0.77981  1.0000
  H   H5323     1.0  0.50692  0.49412  0.87310  1.0000
  Fe  Fe897     1.0  0.88220  0.55909  0.80679  1.0000
  H   H5324     1.0  0.89920  0.52094  0.85168  1.0000
  Fe  Fe898     1.0  0.85908  0.58373  0.79065  1.0000
  C   C5325     1.0  0.74914  0.67266  0.88429  1.0000
  C   C5326     1.0  0.76184  0.48457  0.78335  1.0000
  C   C5327     1.0  0.83852  0.71892  0.91249  1.0000
  H   H5325     1.0  0.78932  0.64484  0.88355  1.0000
  N   N441      1.0  0.53100  0.52065  0.83730  1.0000
  H   H5326     1.0  0.50917  0.53291  0.76807  1.0000
  H   H5327     1.0  0.95792  0.68012  0.94851  1.0000
  C   C5328     1.0  0.51588  0.52680  0.83627  1.0000
  C   C5329     1.0  0.58699  0.50878  0.95884  1.0000
  H   H5328     1.0  0.78274  0.72128  0.92048  1.0000
  C   C5330     1.0  0.83679  0.55011  0.77193  1.0000
  Fe  Fe899     1.0  0.56377  0.50577  0.90054  1.0000
  S   S1791     1.0  0.89754  0.57540  0.80359  1.0000
  C   C5331     1.0  0.96685  0.72215  0.95830  1.0000
  C   C5332     1.0  0.93943  0.49451  0.84068  1.0000
  S   S1792     1.0  0.87205  0.60234  0.78633  1.0000
  C   C5333     1.0  0.53643  0.49916  0.88544  1.0000
  H   H5329     1.0  0.63562  0.61551  0.79063  1.0000
  Fe  Fe900     1.0  0.87542  0.59255  0.81041  1.0000
  S   S1793     1.0  0.87675  0.60897  0.82395  1.0000
  S   S1794     1.0  0.53921  0.50701  0.89949  1.0000
  S   S1795     1.0  0.86027  0.57557  0.81557  1.0000
  Fe  Fe901     1.0  0.66243  0.70575  0.94792  1.0000
  H   H5330     1.0  0.64568  0.70028  0.89302  1.0000
  H   H5331     1.0  0.85956  0.69717  0.87131  1.0000
  C   C5334     1.0  0.54415  0.61796  0.76817  1.0000
  H   H5332     1.0  0.94425  0.52689  0.81406  1.0000
  H   H5333     1.0  0.98271  0.70001  0.95819  1.0000
  C   C5335     1.0  0.63895  0.64413  0.78356  1.0000
  C   C5336     1.0  0.66760  0.56431  0.84231  1.0000
  Fe  Fe902     1.0  0.82630  0.70186  0.86031  1.0000
  S   S1796     1.0  0.80826  0.69460  0.85359  1.0000
  C   C5337     1.0  0.64374  0.66343  0.79368  1.0000
  Fe  Fe903     1.0  0.81999  0.68372  0.89292  1.0000
  S   S1797     1.0  0.80141  0.67441  0.88939  1.0000
  S   S1798     1.0  0.82700  0.67854  0.91563  1.0000
  Fe  Fe904     1.0  0.81754  0.67085  0.86679  1.0000
  S   S1799     1.0  0.81658  0.65049  0.85816  1.0000
  Fe  Fe905     1.0  0.79335  0.69853  0.87646  1.0000
  H   H5334     1.0  0.86385  0.67369  0.90956  1.0000
  S   S1800     1.0  0.83703  0.67778  0.87159  1.0000
  H   H5335     1.0  0.95618  0.50786  0.81495  1.0000
  S   S1801     1.0  0.77772  0.53044  0.79536  1.0000
  C   C5338     1.0  0.53666  0.52357  0.84814  1.0000
  C   C5339     1.0  0.83145  0.57575  0.77716  1.0000
  H   H5336     1.0  0.76740  0.64006  0.90593  1.0000
  Fe  Fe906     1.0  0.69320  0.69356  0.92787  1.0000
  S   S1802     1.0  0.67445  0.68198  0.94391  1.0000
  S   S1803     1.0  0.71784  0.68226  0.92982  1.0000
  Fe  Fe907     1.0  0.66365  0.68882  0.92345  1.0000
  S   S1804     1.0  0.65008  0.67417  0.91910  1.0000
  S   S1805     1.0  0.68348  0.69839  0.90687  1.0000
  H   H5337     1.0  0.75621  0.68529  0.85024  1.0000
  Fe  Fe908     1.0  0.63952  0.62716  0.85154  1.0000
  S   S1806     1.0  0.64354  0.61791  0.87562  1.0000
  S   S1807     1.0  0.62107  0.64761  0.84389  1.0000
  Fe  Fe909     1.0  0.66911  0.60682  0.83734  1.0000
  S   S1808     1.0  0.67603  0.59592  0.85989  1.0000
  S   S1809     1.0  0.68059  0.60064  0.81439  1.0000
  Fe  Fe910     1.0  0.65107  0.59462  0.86913  1.0000
  S   S1810     1.0  0.64742  0.57145  0.88421  1.0000
  Fe  Fe911     1.0  0.66814  0.61992  0.86456  1.0000
  S   S1811     1.0  0.68334  0.63027  0.87233  1.0000
  S   S1812     1.0  0.64476  0.60373  0.84610  1.0000
  S   S1813     1.0  0.66354  0.63093  0.84102  1.0000
  Fe  Fe912     1.0  0.58973  0.52301  0.88968  1.0000
  S   S1814     1.0  0.59421  0.54612  0.87523  1.0000
  S   S1815     1.0  0.56954  0.52296  0.91006  1.0000
  C   C5340     1.0  0.53117  0.48637  0.86354  1.0000
  S   S1816     1.0  0.81044  0.70814  0.88184  1.0000
  S   S1817     1.0  0.75758  0.49806  0.79497  1.0000
  H   H5338     1.0  0.74148  0.65811  0.90633  1.0000
  S   S1818     1.0  0.87988  0.56622  0.78219  1.0000
  C   C5341     1.0  0.97118  0.70666  0.95695  1.0000
  C   C5342     1.0  0.70436  0.55299  0.85659  1.0000
  H   H5339     1.0  0.56541  0.64416  0.78891  1.0000
  H   H5340     1.0  0.87653  0.69295  0.91097  1.0000
  C   C5343     1.0  0.81642  0.57853  0.77489  1.0000
  C   C5344     1.0  0.88437  0.64695  0.77349  1.0000
  C   C5345     1.0  0.54898  0.49203  0.87531  1.0000
  H   H5341     1.0  0.64214  0.61005  0.80822  1.0000
  C   C5346     1.0  0.70049  0.59243  0.81262  1.0000
  C   C5347     1.0  0.70800  0.59178  0.82405  1.0000
  C   C5348     1.0  0.72360  0.58406  0.82312  1.0000
  C   C5349     1.0  0.73171  0.57692  0.81077  1.0000
  C   C5350     1.0  0.72437  0.57808  0.79904  1.0000
  C   C5351     1.0  0.70876  0.58580  0.79998  1.0000
  H   H5342     1.0  0.70181  0.59715  0.83366  1.0000
  H   H5343     1.0  0.72927  0.58330  0.83215  1.0000
  C   C5352     1.0  0.73883  0.71045  0.89279  1.0000
  H   H5344     1.0  0.70305  0.58642  0.79102  1.0000
  C   C5353     1.0  0.63336  0.56420  0.88062  1.0000
  C   C5354     1.0  0.63304  0.54846  0.88623  1.0000
  C   C5355     1.0  0.62125  0.54267  0.88437  1.0000
  C   C5356     1.0  0.60983  0.55259  0.87677  1.0000
  C   C5357     1.0  0.61043  0.56822  0.87076  1.0000
  C   C5358     1.0  0.62212  0.57404  0.87274  1.0000
  H   H5345     1.0  0.64177  0.54078  0.89226  1.0000
  H   H5346     1.0  0.62096  0.53057  0.88890  1.0000
  H   H5347     1.0  0.60160  0.57594  0.86488  1.0000
  H   H5348     1.0  0.62216  0.58622  0.86853  1.0000
  C   C5359     1.0  0.66006  0.66070  0.90751  1.0000
  C   C5360     1.0  0.67564  0.65995  0.90009  1.0000
  C   C5361     1.0  0.68286  0.65016  0.88967  1.0000
  C   C5362     1.0  0.67453  0.64110  0.88666  1.0000
  C   C5363     1.0  0.65912  0.64151  0.89448  1.0000
  C   C5364     1.0  0.65190  0.65130  0.90487  1.0000
  H   H5349     1.0  0.68206  0.66705  0.90219  1.0000
  H   H5350     1.0  0.69484  0.64978  0.88372  1.0000
  H   H5351     1.0  0.65267  0.63444  0.89241  1.0000
  H   H5352     1.0  0.63987  0.65177  0.91068  1.0000
  C   C5365     1.0  0.75457  0.70444  0.89294  1.0000
  S   S1819     1.0  0.57197  0.67738  0.77390  1.0000
  C   C5366     1.0  0.72742  0.70396  0.90432  1.0000
  C   C5367     1.0  0.73175  0.69148  0.91608  1.0000
  C   C5368     1.0  0.74746  0.68582  0.91652  1.0000
  C   C5369     1.0  0.75886  0.69227  0.90495  1.0000
  H   H5353     1.0  0.85329  0.55925  0.77729  1.0000
  Fe  Fe913     1.0  0.59352  0.65866  0.77114  1.0000
  H   H5354     1.0  0.75084  0.67623  0.92566  1.0000
  H   H5355     1.0  0.77093  0.68773  0.90532  1.0000
  C   C5370     1.0  0.83272  0.69337  0.91986  1.0000
  C   C5371     1.0  0.83738  0.69080  0.93370  1.0000
  C   C5372     1.0  0.84279  0.70221  0.93685  1.0000
  C   C5373     1.0  0.80858  0.54805  0.80954  1.0000
  H   H5356     1.0  0.57172  0.54563  0.96437  1.0000
  C   C5374     1.0  0.83334  0.70747  0.90928  1.0000
  H   H5357     1.0  0.83698  0.67989  0.94194  1.0000
  H   H5358     1.0  0.84661  0.70005  0.94743  1.0000
  H   H5359     1.0  0.83555  0.53727  0.82458  1.0000
  H   H5360     1.0  0.79978  0.56921  0.77005  1.0000
  H   H5361     1.0  0.70043  0.67347  0.96346  1.0000
  S   S1820     1.0  0.58960  0.49662  0.94607  1.0000
  Fe  Fe914     1.0  0.78964  0.53993  0.77130  1.0000
  C   C5375     1.0  0.92919  0.49802  0.80687  1.0000
  C   C5376     1.0  0.92798  0.51364  0.79917  1.0000
  C   C5377     1.0  0.91419  0.52472  0.80253  1.0000
  C   C5378     1.0  0.90150  0.52020  0.81358  1.0000
  C   C5379     1.0  0.80137  0.57786  0.81451  1.0000
  C   C5380     1.0  0.91629  0.49339  0.81745  1.0000
  H   H5362     1.0  0.93789  0.51725  0.79087  1.0000
  H   H5363     1.0  0.91353  0.53681  0.79688  1.0000
  C   C5381     1.0  0.77238  0.48611  0.76914  1.0000
  H   H5364     1.0  0.85721  0.67524  0.89288  1.0000
  H   H5365     1.0  0.57372  0.52913  0.94640  1.0000
  H   H5366     1.0  0.54603  0.51914  0.81550  1.0000
  N   N442      1.0  0.76137  0.67544  0.87228  1.0000
  H   H5367     1.0  0.57792  0.56272  0.92119  1.0000
  C   C5382     1.0  0.69478  0.55598  0.82989  1.0000
  H   H5368     1.0  0.73064  0.57288  0.78932  1.0000
  H   H5369     1.0  0.55610  0.47986  0.85680  1.0000
  C   C5383     1.0  0.85987  0.62071  0.83300  1.0000
  C   C5384     1.0  0.84508  0.61895  0.83373  1.0000
  C   C5385     1.0  0.83190  0.62822  0.84142  1.0000
  C   C5386     1.0  0.83341  0.63943  0.84823  1.0000
  C   C5387     1.0  0.84820  0.64138  0.84725  1.0000
  C   C5388     1.0  0.86139  0.63198  0.83972  1.0000
  H   H5370     1.0  0.84380  0.61029  0.82861  1.0000
  H   H5371     1.0  0.82049  0.62665  0.84215  1.0000
  H   H5372     1.0  0.84949  0.64993  0.85249  1.0000
  H   H5373     1.0  0.87281  0.63337  0.83921  1.0000
  H   H5374     1.0  0.74463  0.51751  0.76846  1.0000
  C   C5389     1.0  0.91059  0.51347  0.84899  1.0000
  H   H5375     1.0  0.50360  0.54470  0.86645  1.0000
  C   C5390     1.0  0.94905  0.51635  0.82213  1.0000
  S   S1821     1.0  0.75050  0.56553  0.81087  1.0000
  C   C5391     1.0  0.60368  0.64068  0.80522  1.0000
  C   C5392     1.0  0.60829  0.62798  0.81668  1.0000
  C   C5393     1.0  0.61324  0.63012  0.82878  1.0000
  C   C5394     1.0  0.61351  0.64499  0.82956  1.0000
  C   C5395     1.0  0.60830  0.65780  0.81842  1.0000
  C   C5396     1.0  0.60348  0.65564  0.80619  1.0000
  H   H5376     1.0  0.60821  0.61641  0.81612  1.0000
  H   H5377     1.0  0.61660  0.62028  0.83765  1.0000
  H   H5378     1.0  0.60838  0.66934  0.81904  1.0000
  H   H5379     1.0  0.59984  0.66552  0.79741  1.0000
  H   H5380     1.0  0.56070  0.49116  0.87606  1.0000
  H   H5381     1.0  0.81132  0.53652  0.80726  1.0000
  S   S1822     1.0  0.50590  0.49741  0.81860  1.0000
  C   C5397     1.0  0.94637  0.70819  0.95299  1.0000
  C   C5398     1.0  0.55424  0.64414  0.78650  1.0000
  C   C5399     1.0  0.68863  0.55764  0.85613  1.0000
  C   C5400     1.0  0.50251  0.54116  0.77512  1.0000
  H   H5382     1.0  0.69120  0.55752  0.81927  1.0000
  C   C5401     1.0  0.83518  0.54387  0.81262  1.0000
  N   N443      1.0  0.81967  0.55374  0.81206  1.0000
  C   C5402     1.0  0.52127  0.49997  0.88450  1.0000
  S   S1823     1.0  0.57754  0.48522  0.91429  1.0000
  H   H5383     1.0  0.51153  0.50542  0.89236  1.0000
  H   H5384     1.0  0.59164  0.47950  0.86549  1.0000
  S   S1824     1.0  0.64991  0.71171  0.92883  1.0000
  Fe  Fe915     1.0  0.58525  0.50252  0.92190  1.0000
  C   C5403     1.0  0.77556  0.66545  0.87184  1.0000
  H   H5385     1.0  0.73544  0.71996  0.88359  1.0000
  H   H5386     1.0  0.65629  0.61087  0.79022  1.0000
  H   H5387     1.0  0.63447  0.66870  0.77347  1.0000
  S   S1825     1.0  0.88490  0.53405  0.81976  1.0000
  H   H5388     1.0  0.84416  0.55092  0.80863  1.0000
  H   H5389     1.0  0.91709  0.48137  0.82339  1.0000
  C   C5404     1.0  0.94162  0.72368  0.95435  1.0000
  C   C5405     1.0  0.71056  0.55095  0.83007  1.0000
  H   H5390     1.0  0.82500  0.57296  0.81655  1.0000
  S   S1826     1.0  0.94745  0.48508  0.80420  1.0000
  H   H5391     1.0  0.51148  0.52488  0.82741  1.0000
  H   H5392     1.0  0.87384  0.65597  0.77384  1.0000
  N   N444      1.0  0.55592  0.63203  0.77834  1.0000
  C   C5406     1.0  0.81145  0.56700  0.77154  1.0000
  H   H5393     1.0  0.58062  0.62579  0.77465  1.0000
  H   H5394     1.0  0.68012  0.56014  0.86643  1.0000
  H   H5395     1.0  0.73786  0.68053  0.88464  1.0000
  H   H5396     1.0  0.66590  0.57368  0.83195  1.0000
  C   C5407     1.0  0.51864  0.49366  0.87354  1.0000
  N   N445      1.0  0.68407  0.55933  0.84279  1.0000
  C   C5408     1.0  0.71537  0.54966  0.84344  1.0000
  H   H5397     1.0  0.93811  0.70276  0.95127  1.0000
  H   H5398     1.0  0.55104  0.50316  0.83119  1.0000
  H   H5399     1.0  0.54868  0.51884  0.84890  1.0000
  C   C5409     1.0  0.57901  0.52431  0.95623  1.0000
  C   C5410     1.0  0.64916  0.65171  0.80540  1.0000
  C   C5411     1.0  0.87053  0.72422  0.88186  1.0000
  H   H5400     1.0  0.87659  0.63461  0.79681  1.0000
  C   C5412     1.0  0.75111  0.65993  0.89658  1.0000
  H   H5401     1.0  0.95055  0.48693  0.83721  1.0000
  C   C5413     1.0  0.92250  0.51942  0.83786  1.0000
  C   C5414     1.0  0.79361  0.55718  0.80943  1.0000
  C   C5415     1.0  0.92781  0.48818  0.85192  1.0000
  H   H5402     1.0  0.71530  0.70847  0.90398  1.0000
  H   H5403     1.0  0.72766  0.54637  0.84346  1.0000
  C   C5416     1.0  0.90248  0.50447  0.82078  1.0000
  H   H5404     1.0  0.87782  0.66954  0.89220  1.0000
  H   H5405     1.0  0.54584  0.64236  0.79772  1.0000
  N   N446      1.0  0.64411  0.63273  0.79524  1.0000
  S   S1827     1.0  0.74553  0.54204  0.78295  1.0000
  C   C5417     1.0  0.57528  0.72710  0.80032  1.0000
  Fe  Fe916     1.0  0.76483  0.52084  0.78428  1.0000
  N   N447      1.0  0.64910  0.68588  0.87718  1.0000
  C   C5418     1.0  0.63428  0.68360  0.88238  1.0000
  C   C5419     1.0  0.65960  0.67782  0.86687  1.0000
  C   C5420     1.0  0.62968  0.67299  0.87726  1.0000
  C   C5421     1.0  0.65540  0.66710  0.86154  1.0000
  C   C5422     1.0  0.64033  0.66472  0.86675  1.0000
  C   C5423     1.0  0.65369  0.69736  0.88225  1.0000
  H   H5406     1.0  0.62605  0.68974  0.89081  1.0000
  H   H5407     1.0  0.67145  0.67931  0.86306  1.0000
  H   H5408     1.0  0.61803  0.67098  0.88158  1.0000
  H   H5409     1.0  0.66396  0.66026  0.85387  1.0000
  H   H5410     1.0  0.63699  0.65625  0.86291  1.0000
  H   H5411     1.0  0.66537  0.69265  0.88493  1.0000
  H   H5412     1.0  0.65381  0.70816  0.87317  1.0000
  C   C5424     1.0  0.79002  0.57218  0.81188  1.0000
  N   N448      1.0  0.60114  0.54982  0.91764  1.0000
  C   C5425     1.0  0.61176  0.55741  0.91811  1.0000
  C   C5426     1.0  0.60302  0.53417  0.92329  1.0000
  C   C5427     1.0  0.62483  0.54923  0.92411  1.0000
  C   C5428     1.0  0.61584  0.52565  0.92953  1.0000
  C   C5429     1.0  0.62682  0.53326  0.92992  1.0000
  C   C5430     1.0  0.58728  0.55863  0.91173  1.0000
  H   H5413     1.0  0.61040  0.56979  0.91346  1.0000
  H   H5414     1.0  0.65288  0.65453  0.81421  1.0000
  H   H5415     1.0  0.63344  0.55526  0.92404  1.0000
  H   H5416     1.0  0.61713  0.51324  0.93410  1.0000
  H   H5417     1.0  0.63685  0.52677  0.93468  1.0000
  C   C5431     1.0  0.49014  0.56756  0.77750  1.0000
  H   H5418     1.0  0.48705  0.57976  0.77228  1.0000
  C   C5432     1.0  0.49871  0.55694  0.76831  1.0000
  H   H5419     1.0  0.89266  0.50090  0.82929  1.0000
  S   S1828     1.0  0.68199  0.71690  0.93348  1.0000
  H   H5420     1.0  0.83023  0.70947  0.89842  1.0000
  C   C5433     1.0  0.88584  0.63493  0.78650  1.0000
  H   H5421     1.0  0.59456  0.52813  0.92306  1.0000
  S   S1829     1.0  0.60593  0.50374  0.90210  1.0000
  C   C5434     1.0  0.76565  0.64988  0.89639  1.0000
  H   H5422     1.0  0.92123  0.61413  0.77220  1.0000
  C   C5435     1.0  0.82158  0.55271  0.77014  1.0000
  H   H5423     1.0  0.71909  0.54857  0.81974  1.0000
  H   H5424     1.0  0.63460  0.64133  0.77516  1.0000
  C   C5436     1.0  0.50580  0.53556  0.84670  1.0000
  C   C5437     1.0  0.54132  0.51141  0.82631  1.0000
  C   C5438     1.0  0.86507  0.71765  0.87311  1.0000
  S   S1830     1.0  0.84084  0.71911  0.84664  1.0000
  H   H5425     1.0  0.69608  0.69419  0.96157  1.0000
  Fe  Fe917     1.0  0.89309  0.58422  0.77971  1.0000
  C   C5439     1.0  0.51134  0.53816  0.85812  1.0000
  H   H5426     1.0  0.57947  0.72164  0.81113  1.0000
  Fe  Fe918     1.0  0.67050  0.72086  0.91387  1.0000
  H   H5427     1.0  0.74976  0.69843  0.86332  1.0000
  C   C5440     1.0  0.81619  0.56837  0.81471  1.0000
  C   C5441     1.0  0.84168  0.56156  0.77555  1.0000
  H   H5428     1.0  0.78520  0.66750  0.86221  1.0000
  C   C5442     1.0  0.48839  0.54640  0.80015  1.0000
  C   C5443     1.0  0.91329  0.49773  0.85603  1.0000
  H   H5429     1.0  0.79882  0.58960  0.81617  1.0000
  H   H5430     1.0  0.92013  0.53159  0.83217  1.0000
  C   C5444     1.0  0.64945  0.63631  0.80589  1.0000
  H   H5431     1.0  0.77846  0.57936  0.81159  1.0000
  C   C5445     1.0  0.86395  0.70211  0.87815  1.0000
  H   H5432     1.0  0.55001  0.65570  0.77943  1.0000
  N   N449      1.0  0.86797  0.69343  0.89164  1.0000
  H   H5433     1.0  0.53499  0.50416  0.82363  1.0000
  C   C5446     1.0  0.64459  0.61648  0.79603  1.0000
  C   C5447     1.0  0.75913  0.68878  0.85944  1.0000
  H   H5434     1.0  0.70797  0.55212  0.86704  1.0000
  H   H5435     1.0  0.67740  0.71916  0.96507  1.0000
  H   H5436     1.0  0.66048  0.56903  0.85251  1.0000
  S   S1831     1.0  0.58271  0.50744  0.87925  1.0000
  S   S1832     1.0  0.83686  0.59012  0.78240  1.0000
  H   H5437     1.0  0.58986  0.56872  0.90233  1.0000
  H   H5438     1.0  0.66318  0.55435  0.84209  1.0000
  Fe  Fe919     1.0  0.50514  0.48524  0.84330  1.0000
  H   H5439     1.0  0.76980  0.69349  0.85463  1.0000
  C   C5448     1.0  0.87490  0.71520  0.89542  1.0000
  C   C5449     1.0  0.63873  0.65964  0.78259  1.0000
  Fe  Fe920     1.0  0.48959  0.48320  0.81889  1.0000
  C   C5450     1.0  0.87359  0.69972  0.90015  1.0000
  C   C5451     1.0  0.54634  0.48560  0.86442  1.0000
  C   C5452     1.0  0.77793  0.65256  0.88389  1.0000
  C   C5453     1.0  0.52690  0.53223  0.85880  1.0000
  C   C5454     1.0  0.49728  0.53590  0.79096  1.0000
  H   H5440     1.0  0.53131  0.53396  0.86778  1.0000
  C   C5455     1.0  0.86676  0.67716  0.89677  1.0000
  H   H5441     1.0  0.49376  0.54022  0.84590  1.0000
  C   C5456     1.0  0.96555  0.68340  0.95389  1.0000
  H   H5442     1.0  0.90405  0.49291  0.86444  1.0000
  H   H5443     1.0  0.97766  0.68047  0.94717  1.0000
  H   H5444     1.0  0.65371  0.62723  0.81498  1.0000
  S   S1833     1.0  0.77231  0.56262  0.76850  1.0000
  Fe  Fe921     1.0  0.59700  0.48802  0.89359  1.0000
  Fe  Fe922     1.0  0.75960  0.55238  0.79187  1.0000
  H   H5445     1.0  0.83842  0.53557  0.80492  1.0000
  H   H5446     1.0  0.78485  0.55279  0.80727  1.0000
  S   S1834     1.0  0.76861  0.71187  0.87762  1.0000
  H   H5447     1.0  0.90037  0.61358  0.79599  1.0000
  H   H5448     1.0  0.57171  0.71815  0.79694  1.0000
  C   C5457     1.0  0.89922  0.62313  0.78608  1.0000
  N   N450      1.0  0.96099  0.69989  0.95433  1.0000
  H   H5449     1.0  0.49983  0.52368  0.79591  1.0000
  H   H5450     1.0  0.64327  0.67544  0.79327  1.0000
  C   C5458     1.0  0.84348  0.71626  0.92616  1.0000
  H   H5451     1.0  0.58306  0.55139  0.90666  1.0000
  C   C5459     1.0  0.54295  0.62943  0.77595  1.0000
  C   C5460     1.0  0.57030  0.62364  0.77288  1.0000
  N   N451      1.0  0.93663  0.50992  0.83372  1.0000
  H   H5452     1.0  0.80845  0.58951  0.77607  1.0000
  H   H5453     1.0  0.95660  0.51929  0.82785  1.0000
  H   H5454     1.0  0.87866  0.72034  0.90260  1.0000
  H   H5455     1.0  0.73292  0.50384  0.77247  1.0000
  H   H5456     1.0  0.84470  0.53909  0.77081  1.0000
  H   H5457     1.0  0.86151  0.72455  0.86258  1.0000
  C   C5461     1.0  0.91099  0.62352  0.77279  1.0000
  C   C5462     1.0  0.57778  0.53359  0.96650  1.0000
  H   H5458     1.0  0.96505  0.67626  0.96581  1.0000
  H   H5459     1.0  0.97495  0.72740  0.96053  1.0000
  H   H5460     1.0  0.58252  0.83019  0.01659  1.0000
  Fe  Fe923     1.0  0.89462  0.89494  0.06338  1.0000
  S   S1835     1.0  0.89949  0.90791  0.03887  1.0000
  S   S1836     1.0  0.87339  0.88514  0.07034  1.0000
  Fe  Fe924     1.0  0.92254  0.90075  0.07018  1.0000
  S   S1837     1.0  0.92978  0.91415  0.04619  1.0000
  S   S1838     1.0  0.93799  0.89642  0.08653  1.0000
  Fe  Fe925     1.0  0.90451  0.92520  0.04857  1.0000
  S   S1839     1.0  0.89646  0.95069  0.03968  1.0000
  Fe  Fe926     1.0  0.92407  0.89549  0.03900  1.0000
  S   S1840     1.0  0.93919  0.88565  0.01887  1.0000
  S   S1841     1.0  0.89752  0.91330  0.07330  1.0000
  S   S1842     1.0  0.91894  0.88100  0.06282  1.0000
  Fe  Fe927     1.0  0.97472  0.94666  0.13750  1.0000
  S   S1843     1.0  0.91850  0.81582  0.97915  1.0000
  H   H5461     1.0  0.74717  0.83253  0.11884  1.0000
  H   H5462     1.0  0.67560  0.92101  0.09234  1.0000
  C   C5463     1.0  0.63992  0.96447  0.10111  1.0000
  C   C5464     1.0  0.89759  0.75856  0.96981  1.0000
  Fe  Fe928     1.0  0.93460  0.81932  0.99136  1.0000
  S   S1844     1.0  0.92476  0.82411  0.01513  1.0000
  C   C5465     1.0  0.85831  0.89684  0.11637  1.0000
  C   C5466     1.0  0.97931  0.88026  0.01004  1.0000
  Fe  Fe929     1.0  0.80714  0.84326  0.15173  1.0000
  S   S1845     1.0  0.58953  0.94369  0.00088  1.0000
  Fe  Fe930     1.0  0.76188  0.74832  0.08831  1.0000
  C   C5467     1.0  0.56713  0.94627  0.96807  1.0000
  C   C5468     1.0  0.80189  0.77562  0.11891  1.0000
  S   S1846     1.0  0.62111  0.96876  0.98395  1.0000
  Fe  Fe931     1.0  0.69105  0.90571  0.12946  1.0000
  C   C5469     1.0  0.93641  0.77016  0.01698  1.0000
  Fe  Fe932     1.0  0.70522  0.87249  0.14320  1.0000
  H   H5463     1.0  0.94816  0.76623  0.01876  1.0000
  H   H5464     1.0  0.60938  0.74266  0.09134  1.0000
  S   S1847     1.0  0.78237  0.72872  0.08420  1.0000
  C   C5470     1.0  0.81184  0.78820  0.13276  1.0000
  H   H5465     1.0  0.50965  0.85644  0.01934  1.0000
  S   S1848     1.0  0.70579  0.89532  0.14703  1.0000
  S   S1849     1.0  0.69680  0.92512  0.10930  1.0000
  C   C5471     1.0  0.79364  0.74910  0.02209  1.0000
  C   C5472     1.0  0.90858  0.86084  0.98715  1.0000
  N   N452      1.0  0.65739  0.94117  0.09470  1.0000
  Fe  Fe933     1.0  0.62339  0.84114  0.05850  1.0000
  S   S1850     1.0  0.62073  0.86685  0.05127  1.0000
  S   S1851     1.0  0.63768  0.82507  0.04291  1.0000
  Fe  Fe934     1.0  0.60359  0.84249  0.09025  1.0000
  S   S1852     1.0  0.59875  0.86857  0.08603  1.0000
  S   S1853     1.0  0.59746  0.82414  0.11138  1.0000
  Fe  Fe935     1.0  0.59572  0.86806  0.06289  1.0000
  S   S1854     1.0  0.57991  0.88692  0.04945  1.0000
  Fe  Fe936     1.0  0.62399  0.86566  0.07465  1.0000
  S   S1855     1.0  0.63913  0.88040  0.07600  1.0000
  S   S1856     1.0  0.59806  0.84229  0.06815  1.0000
  S   S1857     1.0  0.62919  0.83974  0.08073  1.0000
  S   S1858     1.0  0.93462  0.77301  0.97147  1.0000
  S   S1859     1.0  0.52093  0.90357  0.99182  1.0000
  N   N453      1.0  0.84749  0.90075  0.10759  1.0000
  C   C5473     1.0  0.91234  0.78935  0.01836  1.0000
  C   C5474     1.0  0.55090  0.96780  0.01045  1.0000
  H   H5466     1.0  0.79461  0.72988  0.01252  1.0000
  H   H5467     1.0  0.97701  0.83488  0.00476  1.0000
  H   H5468     1.0  0.60417  0.82218  0.04520  1.0000
  Fe  Fe937     1.0  0.53485  0.87929  0.99709  1.0000
  S   S1860     1.0  0.53746  0.86490  0.02054  1.0000
  C   C5475     1.0  0.88616  0.77226  0.96846  1.0000
  H   H5469     1.0  0.57974  0.96044  0.97246  1.0000
  S   S1861     1.0  0.63696  0.75527  0.07653  1.0000
  H   H5470     1.0  0.87148  0.81482  0.16392  1.0000
  H   H5471     1.0  0.93502  0.74230  0.00041  1.0000
  C   C5476     1.0  0.91243  0.75883  0.97083  1.0000
  H   H5472     1.0  0.75153  0.83161  0.09877  1.0000
  H   H5473     1.0  0.63326  0.77960  0.10358  1.0000
  H   H5474     1.0  0.53204  0.94496  0.02224  1.0000
  H   H5475     1.0  0.71503  0.97046  0.09036  1.0000
  N   N454      1.0  0.83032  0.95992  0.01261  1.0000
  C   C5477     1.0  0.85976  0.96394  0.99630  1.0000
  C   C5478     1.0  0.63739  0.80562  0.05197  1.0000
  C   C5479     1.0  0.64789  0.79361  0.04544  1.0000
  C   C5480     1.0  0.64778  0.77804  0.05276  1.0000
  C   C5481     1.0  0.63694  0.77450  0.06646  1.0000
  C   C5482     1.0  0.62619  0.78652  0.07272  1.0000
  C   C5483     1.0  0.62657  0.80202  0.06565  1.0000
  H   H5476     1.0  0.65628  0.79634  0.03484  1.0000
  H   H5477     1.0  0.65610  0.76881  0.04784  1.0000
  H   H5478     1.0  0.61771  0.78384  0.08326  1.0000
  H   H5479     1.0  0.61847  0.81116  0.07083  1.0000
  C   C5484     1.0  0.56744  0.88094  0.04212  1.0000
  C   C5485     1.0  0.56062  0.89117  0.03027  1.0000
  C   C5486     1.0  0.55132  0.88635  0.02362  1.0000
  C   C5487     1.0  0.54849  0.87141  0.02911  1.0000
  C   C5488     1.0  0.55495  0.86133  0.04124  1.0000
  C   C5489     1.0  0.56455  0.86602  0.04763  1.0000
  H   H5480     1.0  0.56272  0.90275  0.02608  1.0000
  H   H5481     1.0  0.54632  0.89420  0.01428  1.0000
  H   H5482     1.0  0.55272  0.84979  0.04556  1.0000
  H   H5483     1.0  0.56955  0.85817  0.05693  1.0000
  C   C5490     1.0  0.58014  0.93893  0.98927  1.0000
  C   C5491     1.0  0.83417  0.89527  0.11307  1.0000
  S   S1862     1.0  0.93812  0.95982  0.10068  1.0000
  Fe  Fe938     1.0  0.82440  0.81094  0.14837  1.0000
  C   C5492     1.0  0.96303  0.88359  0.05109  1.0000
  C   C5493     1.0  0.57566  0.92467  0.99381  1.0000
  C   C5494     1.0  0.80193  0.82705  0.10638  1.0000
  C   C5495     1.0  0.92730  0.78399  0.02103  1.0000
  Fe  Fe939     1.0  0.68321  0.89356  0.16389  1.0000
  S   S1863     1.0  0.81690  0.75021  0.06050  1.0000
  C   C5496     1.0  0.68590  0.94400  0.11010  1.0000
  H   H5484     1.0  0.80568  0.96649  0.01574  1.0000
  H   H5485     1.0  0.80779  0.80670  0.09693  1.0000
  H   H5486     1.0  0.84989  0.97152  0.97617  1.0000
  S   S1864     1.0  0.67907  0.73534  0.05228  1.0000
  H   H5487     1.0  0.62867  0.91332  0.06396  1.0000
  C   C5497     1.0  0.64736  0.87542  0.12374  1.0000
  C   C5498     1.0  0.63648  0.86829  0.12210  1.0000
  C   C5499     1.0  0.63397  0.86962  0.10746  1.0000
  C   C5500     1.0  0.64227  0.87819  0.09443  1.0000
  C   C5501     1.0  0.65315  0.88530  0.09607  1.0000
  C   C5502     1.0  0.65575  0.88386  0.11068  1.0000
  H   H5488     1.0  0.63001  0.86171  0.13216  1.0000
  H   H5489     1.0  0.62551  0.86416  0.10627  1.0000
  H   H5490     1.0  0.65968  0.89182  0.08600  1.0000
  H   H5491     1.0  0.66418  0.88932  0.11187  1.0000
  C   C5503     1.0  0.58495  0.83028  0.12778  1.0000
  C   C5504     1.0  0.58052  0.84595  0.12837  1.0000
  C   C5505     1.0  0.57064  0.85055  0.14165  1.0000
  C   C5506     1.0  0.56510  0.83951  0.15434  1.0000
  C   C5507     1.0  0.56957  0.82382  0.15380  1.0000
  C   C5508     1.0  0.57954  0.81921  0.14053  1.0000
  H   H5492     1.0  0.58465  0.85453  0.11859  1.0000
  H   H5493     1.0  0.56715  0.86271  0.14202  1.0000
  C   C5509     1.0  0.66754  0.97409  0.11005  1.0000
  H   H5494     1.0  0.58298  0.80706  0.14011  1.0000
  H   H5495     1.0  0.70028  0.73726  0.06826  1.0000
  H   H5496     1.0  0.61262  0.84788  0.03142  1.0000
  C   C5510     1.0  0.90655  0.78070  0.01194  1.0000
  H   H5497     1.0  0.92183  0.96088  0.05181  1.0000
  H   H5498     1.0  0.66437  0.92091  0.11137  1.0000
  H   H5499     1.0  0.95556  0.86594  0.07036  1.0000
  C   C5511     1.0  0.78413  0.79246  0.13523  1.0000
  H   H5500     1.0  0.50506  0.88121  0.02709  1.0000
  H   H5501     1.0  0.84562  0.90787  0.08412  1.0000
  C   C5512     1.0  0.73167  0.74069  0.07854  1.0000
  S   S1865     1.0  0.82394  0.84629  0.16348  1.0000
  C   C5513     1.0  0.78672  0.78246  0.12533  1.0000
  Fe  Fe940     1.0  0.86518  0.74820  0.96824  1.0000
  Fe  Fe941     1.0  0.65467  0.73626  0.06623  1.0000
  Fe  Fe942     1.0  0.51221  0.89494  0.97610  1.0000
  C   C5514     1.0  0.68799  0.95594  0.09700  1.0000
  H   H5502     1.0  0.71441  0.75694  0.06697  1.0000
  H   H5503     1.0  0.75379  0.81408  0.11367  1.0000
  H   H5504     1.0  0.80401  0.76818  0.11102  1.0000
  S   S1866     1.0  0.77605  0.76625  0.08228  1.0000
  S   S1867     1.0  0.69235  0.88291  0.12414  1.0000
  C   C5515     1.0  0.56200  0.93236  0.97301  1.0000
  H   H5505     1.0  0.86893  0.90108  0.11199  1.0000
  C   C5516     1.0  0.93790  0.91384  0.09094  1.0000
  C   C5517     1.0  0.92680  0.92725  0.08695  1.0000
  C   C5518     1.0  0.92670  0.94113  0.09048  1.0000
  C   C5519     1.0  0.93800  0.94186  0.09755  1.0000
  C   C5520     1.0  0.94909  0.92844  0.10161  1.0000
  C   C5521     1.0  0.94897  0.91441  0.09841  1.0000
  H   H5506     1.0  0.91817  0.92693  0.08128  1.0000
  H   H5507     1.0  0.89885  0.83645  0.16642  1.0000
  H   H5508     1.0  0.95775  0.92883  0.10721  1.0000
  H   H5509     1.0  0.95754  0.90404  0.10158  1.0000
  C   C5522     1.0  0.87626  0.95618  0.04546  1.0000
  C   C5523     1.0  0.86773  0.94511  0.05436  1.0000
  C   C5524     1.0  0.85155  0.94938  0.05856  1.0000
  H   H5510     1.0  0.50418  0.84369  0.00219  1.0000
  H   H5511     1.0  0.97093  0.82177  0.98787  1.0000
  C   C5525     1.0  0.84985  0.91138  0.09248  1.0000
  H   H5512     1.0  0.87357  0.93319  0.05781  1.0000
  H   H5513     1.0  0.84497  0.94074  0.06523  1.0000
  H   H5514     1.0  0.95136  0.75041  0.99741  1.0000
  H   H5515     1.0  0.91141  0.76025  0.00307  1.0000
  C   C5526     1.0  0.93682  0.86725  0.01939  1.0000
  C   C5527     1.0  0.94544  0.85975  0.00747  1.0000
  C   C5528     1.0  0.94232  0.84602  0.00662  1.0000
  C   C5529     1.0  0.93053  0.83976  0.01757  1.0000
  C   C5530     1.0  0.92254  0.84674  0.03002  1.0000
  C   C5531     1.0  0.92563  0.86052  0.03090  1.0000
  H   H5516     1.0  0.95427  0.86475  0.99863  1.0000
  H   H5517     1.0  0.94903  0.84035  0.99743  1.0000
  H   H5518     1.0  0.91356  0.84181  0.03869  1.0000
  H   H5519     1.0  0.91890  0.86621  0.04014  1.0000
  S   S1868     1.0  0.48652  0.90399  0.97688  1.0000
  C   C5532     1.0  0.88095  0.86006  0.11202  1.0000
  C   C5533     1.0  0.88290  0.86955  0.09717  1.0000
  C   C5534     1.0  0.87167  0.87268  0.08856  1.0000
  C   C5535     1.0  0.85856  0.86631  0.09476  1.0000
  C   C5536     1.0  0.85658  0.85693  0.10962  1.0000
  H   H5520     1.0  0.89304  0.87450  0.09244  1.0000
  H   H5521     1.0  0.84986  0.86874  0.08812  1.0000
  H   H5522     1.0  0.84634  0.85228  0.11438  1.0000
  S   S1869     1.0  0.97931  0.94346  0.11333  1.0000
  S   S1870     1.0  0.65010  0.87389  0.14220  1.0000
  C   C5537     1.0  0.91817  0.88267  0.98713  1.0000
  H   H5523     1.0  0.65605  0.91793  0.09716  1.0000
  C   C5538     1.0  0.54250  0.94412  0.01273  1.0000
  H   H5524     1.0  0.55279  0.93740  0.01760  1.0000
  C   C5539     1.0  0.49647  0.87904  0.02244  1.0000
  C   C5540     1.0  0.83311  0.96498  0.99695  1.0000
  H   H5525     1.0  0.96284  0.84590  0.05459  1.0000
  C   C5541     1.0  0.84383  0.96465  0.05360  1.0000
  H   H5526     1.0  0.95989  0.89236  0.05787  1.0000
  S   S1871     1.0  0.86745  0.77205  0.96761  1.0000
  S   S1872     1.0  0.82356  0.96913  0.05725  1.0000
  H   H5527     1.0  0.54115  0.93743  0.00505  1.0000
  H   H5528     1.0  0.97413  0.85272  0.02664  1.0000
  C   C5542     1.0  0.71849  0.74495  0.07231  1.0000
  N   N455      1.0  0.97291  0.87621  0.02663  1.0000
  H   H5529     1.0  0.92582  0.89066  0.98171  1.0000
  H   H5530     1.0  0.79238  0.84749  0.11594  1.0000
  C   C5543     1.0  0.94079  0.74768  0.00596  1.0000
  C   C5544     1.0  0.65602  0.96502  0.07556  1.0000
  H   H5531     1.0  0.58678  0.74811  0.11287  1.0000
  S   S1873     1.0  0.84278  0.81098  0.15986  1.0000
  C   C5545     1.0  0.53974  0.96631  0.99083  1.0000
  H   H5532     1.0  0.75962  0.73592  0.05371  1.0000
  S   S1874     1.0  0.84288  0.74314  0.96778  1.0000
  C   C5546     1.0  0.83157  0.88529  0.12756  1.0000
  C   C5547     1.0  0.56652  0.92140  0.98574  1.0000
  N   N456      1.0  0.61430  0.91836  0.03263  1.0000
  C   C5548     1.0  0.61859  0.93186  0.02419  1.0000
  C   C5549     1.0  0.61765  0.91185  0.04685  1.0000
  C   C5550     1.0  0.62671  0.93905  0.02981  1.0000
  C   C5551     1.0  0.62585  0.91868  0.05277  1.0000
  C   C5552     1.0  0.63039  0.93237  0.04417  1.0000
  C   C5553     1.0  0.60535  0.91127  0.02678  1.0000
  H   H5533     1.0  0.61578  0.93716  0.01302  1.0000
  H   H5534     1.0  0.61405  0.90128  0.05370  1.0000
  H   H5535     1.0  0.63009  0.94976  0.02305  1.0000
  C   C5554     1.0  0.92436  0.97698  0.06365  1.0000
  H   H5536     1.0  0.63673  0.93784  0.04861  1.0000
  H   H5537     1.0  0.60773  0.89849  0.03100  1.0000
  H   H5538     1.0  0.59274  0.91601  0.03066  1.0000
  H   H5539     1.0  0.60826  0.91367  0.01399  1.0000
  N   N457      1.0  0.93072  0.76183  0.01055  1.0000
  H   H5540     1.0  0.76134  0.88442  0.13640  1.0000
  C   C5555     1.0  0.75953  0.87272  0.13967  1.0000
  H   H5541     1.0  0.83591  0.75439  0.03010  1.0000
  H   H5542     1.0  0.97069  0.89888  0.02981  1.0000
  H   H5543     1.0  0.89231  0.85321  0.00765  1.0000
  N   N458      1.0  0.82073  0.72964  0.14873  1.0000
  N   N459      1.0  0.78674  0.75674  0.03385  1.0000
  H   H5544     1.0  0.58265  0.87862  0.00235  1.0000
  C   C5556     1.0  0.71049  0.73379  0.07297  1.0000
  C   C5557     1.0  0.67483  0.94719  0.12329  1.0000
  Fe  Fe943     1.0  0.67070  0.88235  0.14273  1.0000
  C   C5558     1.0  0.97102  0.86144  0.03348  1.0000
  C   C5559     1.0  0.79669  0.79545  0.13884  1.0000
  H   H5545     1.0  0.90714  0.79739  0.96823  1.0000
  H   H5546     1.0  0.82118  0.88062  0.13175  1.0000
  C   C5560     1.0  0.85694  0.95822  0.01220  1.0000
  Fe  Fe944     1.0  0.54076  0.90736  0.97169  1.0000
  C   C5561     1.0  0.83123  0.74429  0.03202  1.0000
  C   C5562     1.0  0.81480  0.95781  0.02124  1.0000
  Fe  Fe945     1.0  0.95656  0.96032  0.11212  1.0000
  C   C5563     1.0  0.85232  0.97576  0.04468  1.0000
  C   C5564     1.0  0.91598  0.77287  0.97016  1.0000
  N   N460      1.0  0.48853  0.86244  0.01158  1.0000
  H   H5547     1.0  0.88868  0.86209  0.03145  1.0000
  H   H5548     1.0  0.86491  0.88339  0.13762  1.0000
  H   H5549     1.0  0.82388  0.96752  0.99088  1.0000
  S   S1875     1.0  0.94506  0.83601  0.97116  1.0000
  H   H5550     1.0  0.89495  0.74778  0.97006  1.0000
  C   C5565     1.0  0.79039  0.74689  0.15076  1.0000
  N   N461      1.0  0.77131  0.82693  0.10818  1.0000
  C   C5566     1.0  0.77457  0.83855  0.11244  1.0000
  C   C5567     1.0  0.78307  0.81600  0.10203  1.0000
  C   C5568     1.0  0.78990  0.83864  0.11188  1.0000
  H   H5551     1.0  0.89243  0.83004  0.15309  1.0000
  H   H5552     1.0  0.57252  0.85638  0.00213  1.0000
  C   C5569     1.0  0.91591  0.76679  0.00824  1.0000
  H   H5553     1.0  0.76529  0.84767  0.11657  1.0000
  H   H5554     1.0  0.78049  0.80692  0.09840  1.0000
  H   H5555     1.0  0.90534  0.80028  0.02111  1.0000
  H   H5556     1.0  0.55497  0.96249  0.02103  1.0000
  H   H5557     1.0  0.82563  0.74890  0.15371  1.0000
  H   H5558     1.0  0.76884  0.75851  0.05409  1.0000
  H   H5559     1.0  0.56266  0.91062  0.98957  1.0000
  Fe  Fe946     1.0  0.79654  0.74629  0.08022  1.0000
  N   N462      1.0  0.64344  0.81084  0.10714  1.0000
  C   C5570     1.0  0.63507  0.79981  0.10997  1.0000
  C   C5571     1.0  0.65689  0.81057  0.09604  1.0000
  C   C5572     1.0  0.64002  0.78822  0.10147  1.0000
  C   C5573     1.0  0.66205  0.79927  0.08718  1.0000
  C   C5574     1.0  0.65356  0.78802  0.08996  1.0000
  C   C5575     1.0  0.63826  0.82262  0.11648  1.0000
  H   H5560     1.0  0.62435  0.80007  0.11869  1.0000
  H   H5561     1.0  0.66355  0.81930  0.09377  1.0000
  C   C5576     1.0  0.57616  0.94955  0.97619  1.0000
  H   H5562     1.0  0.67250  0.79928  0.07812  1.0000
  H   H5563     1.0  0.65735  0.77924  0.08310  1.0000
  H   H5564     1.0  0.62538  0.82640  0.11904  1.0000
  H   H5565     1.0  0.64218  0.81786  0.12749  1.0000
  H   H5566     1.0  0.64283  0.83321  0.11033  1.0000
  C   C5577     1.0  0.90455  0.78656  0.96875  1.0000
  N   N463      1.0  0.59818  0.83750  0.02484  1.0000
  C   C5578     1.0  0.60386  0.84969  0.02497  1.0000
  C   C5579     1.0  0.58716  0.83977  0.01664  1.0000
  C   C5580     1.0  0.59838  0.86464  0.01689  1.0000
  C   C5581     1.0  0.58154  0.85454  0.00831  1.0000
  C   C5582     1.0  0.58721  0.86704  0.00845  1.0000
  C   C5583     1.0  0.60434  0.82193  0.03323  1.0000
  S   S1876     1.0  0.72524  0.85161  0.14332  1.0000
  C   C5584     1.0  0.82162  0.73940  0.04625  1.0000
  C   C5585     1.0  0.84209  0.95613  0.02019  1.0000
  Fe  Fe947     1.0  0.59624  0.96693  0.99300  1.0000
  C   C5586     1.0  0.90861  0.88336  0.00173  1.0000
  H   H5567     1.0  0.91778  0.95130  0.08776  1.0000
  H   H5568     1.0  0.73652  0.87975  0.13535  1.0000
  H   H5569     1.0  0.67329  0.93808  0.13349  1.0000
  C   C5587     1.0  0.84783  0.96717  0.98856  1.0000
  C   C5588     1.0  0.81442  0.77836  0.12275  1.0000
  C   C5589     1.0  0.86773  0.85381  0.11831  1.0000
  H   H5570     1.0  0.83998  0.95157  0.03251  1.0000
  C   C5590     1.0  0.80160  0.75263  0.15359  1.0000
  C   C5591     1.0  0.66359  0.92444  0.09906  1.0000
  S   S1877     1.0  0.82556  0.83423  0.13271  1.0000
  H   H5571     1.0  0.82559  0.89839  0.10612  1.0000
  H   H5572     1.0  0.60418  0.86333  0.15263  1.0000
  C   C5592     1.0  0.66566  0.96223  0.12327  1.0000
  H   H5573     1.0  0.88960  0.85772  0.11871  1.0000
  H   H5574     1.0  0.82614  0.77280  0.11796  1.0000
  H   H5575     1.0  0.61657  0.81769  0.02747  1.0000
  C   C5593     1.0  0.79854  0.81583  0.10112  1.0000
  C   C5594     1.0  0.98187  0.82520  0.98478  1.0000
  H   H5576     1.0  0.57888  0.91634  0.00384  1.0000
  C   C5595     1.0  0.77454  0.75224  0.04497  1.0000
  S   S1878     1.0  0.66831  0.90600  0.14670  1.0000
  H   H5577     1.0  0.59749  0.81347  0.03398  1.0000
  H   H5578     1.0  0.86616  0.95552  0.01835  1.0000
  C   C5596     1.0  0.60758  0.73392  0.10191  1.0000
  H   H5579     1.0  0.93192  0.79072  0.02590  1.0000
  S   S1879     1.0  0.74156  0.75503  0.07706  1.0000
  S   S1880     1.0  0.95276  0.79826  0.98627  1.0000
  H   H5580     1.0  0.63164  0.97051  0.10960  1.0000
  C   C5597     1.0  0.74293  0.85506  0.14353  1.0000
  C   C5598     1.0  0.89935  0.86170  0.00185  1.0000
  H   H5581     1.0  0.89382  0.87962  0.03057  1.0000
  S   S1881     1.0  0.82777  0.79052  0.13800  1.0000
  C   C5599     1.0  0.88934  0.87384  0.02418  1.0000
  C   C5600     1.0  0.85606  0.88693  0.13092  1.0000
  C   C5601     1.0  0.96064  0.86870  0.05811  1.0000
  H   H5582     1.0  0.79106  0.77085  0.04624  1.0000
  H   H5583     1.0  0.92107  0.74814  0.97228  1.0000
  C   C5602     1.0  0.79444  0.73234  0.14714  1.0000
  C   C5603     1.0  0.49156  0.84786  0.00664  1.0000
  S   S1882     1.0  0.78837  0.86409  0.14570  1.0000
  H   H5584     1.0  0.94416  0.73898  0.01616  1.0000
  H   H5585     1.0  0.84369  0.92342  0.09350  1.0000
  C   C5604     1.0  0.84264  0.88110  0.13649  1.0000
  C   C5605     1.0  0.75478  0.84254  0.14794  1.0000
  H   H5586     1.0  0.81384  0.82667  0.10630  1.0000
  C   C5606     1.0  0.77126  0.86027  0.14436  1.0000
  H   H5587     1.0  0.77866  0.75383  0.15110  1.0000
  H   H5588     1.0  0.77800  0.83547  0.15189  1.0000
  C   C5607     1.0  0.88907  0.83275  0.16471  1.0000
  S   S1883     1.0  0.68367  0.86994  0.16142  1.0000
  S   S1884     1.0  0.95090  0.96147  0.13700  1.0000
  C   C5608     1.0  0.96919  0.88718  0.03524  1.0000
  C   C5609     1.0  0.76895  0.84515  0.14836  1.0000
  S   S1885     1.0  0.97983  0.92600  0.15664  1.0000
  H   H5589     1.0  0.77239  0.79790  0.14011  1.0000
  H   H5590     1.0  0.79465  0.80306  0.14658  1.0000
  S   S1886     1.0  0.86484  0.84300  0.13735  1.0000
  C   C5610     1.0  0.91808  0.87136  0.97979  1.0000
  C   C5611     1.0  0.74540  0.87011  0.13923  1.0000
  N   N464      1.0  0.89950  0.87284  0.00897  1.0000
  S   S1887     1.0  0.77088  0.77901  0.12085  1.0000
  C   C5612     1.0  0.75516  0.82632  0.10988  1.0000
  N   N465      1.0  0.54465  0.95968  0.00432  1.0000
  H   H5591     1.0  0.80328  0.75267  0.01323  1.0000
  C   C5613     1.0  0.64629  0.94859  0.10516  1.0000
  Fe  Fe948     1.0  0.84229  0.83511  0.14584  1.0000
  H   H5592     1.0  0.89500  0.78483  0.00962  1.0000
  H   H5593     1.0  0.87752  0.88049  0.02294  1.0000
  H   H5594     1.0  0.69650  0.95349  0.08674  1.0000
  S   S1888     1.0  0.52451  0.87016  0.98315  1.0000
  C   C5614     1.0  0.81689  0.74397  0.15218  1.0000
  C   C5615     1.0  0.86856  0.97154  0.04069  1.0000
  S   S1889     1.0  0.76032  0.74399  0.11366  1.0000
  Fe  Fe949     1.0  0.77623  0.76039  0.10736  1.0000
  C   C5616     1.0  0.60133  0.86229  0.16501  1.0000
  C   C5617     1.0  0.66220  0.94913  0.08002  1.0000
  S   S1890     1.0  0.79804  0.74190  0.10492  1.0000
  H   H5595     1.0  0.75295  0.83084  0.15113  1.0000
  C   C5618     1.0  0.64485  0.97271  0.08623  1.0000
  H   H5596     1.0  0.87118  0.96580  0.98999  1.0000
  H   H5597     1.0  0.78464  0.78107  0.02858  1.0000
  S   S1891     1.0  0.80464  0.81982  0.16665  1.0000
  H   H5598     1.0  0.60254  0.87435  0.01746  1.0000
  H   H5599     1.0  0.80427  0.76970  0.02825  1.0000
  H   H5600     1.0  0.86237  0.91114  0.08748  1.0000
  H   H5601     1.0  0.84140  0.74068  0.00899  1.0000
  H   H5602     1.0  0.67105  0.94327  0.07174  1.0000
  S   S1892     1.0  0.86985  0.72855  0.98816  1.0000
  C   C5619     1.0  0.96469  0.85751  0.04928  1.0000
  S   S1893     1.0  0.56148  0.73284  0.16482  1.0000
  H   H5603     1.0  0.58285  0.72776  0.13683  1.0000
  C   C5620     1.0  0.59492  0.73697  0.11398  1.0000
  S   S1894     1.0  0.55554  0.88383  0.97845  1.0000
  H   H5604     1.0  0.92547  0.87060  0.96849  1.0000
  C   C5621     1.0  0.79189  0.77031  0.03418  1.0000
  H   H5605     1.0  0.56538  0.81525  0.16359  1.0000
  H   H5606     1.0  0.65696  0.96465  0.13342  1.0000
  H   H5607     1.0  0.90856  0.85192  0.98156  1.0000
  H   H5608     1.0  0.88083  0.79688  0.96691  1.0000
  H   H5609     1.0  0.53497  0.95981  0.98583  1.0000
  Fe  Fe950     1.0  0.93771  0.79635  0.97186  1.0000
  H   H5610     1.0  0.84103  0.87301  0.14755  1.0000
  C   C5622     1.0  0.49902  0.86504  0.01798  1.0000
  H   H5611     1.0  0.64260  0.94231  0.11683  1.0000
  H   H5612     1.0  0.90898  0.89204  0.00744  1.0000
  H   H5613     1.0  0.87879  0.84259  0.16495  1.0000
  H   H5614     1.0  0.97671  0.87280  0.00391  1.0000
  C   C5623     1.0  0.83443  0.73647  0.02009  1.0000
  H   H5615     1.0  0.97401  0.89240  0.00504  1.0000
  H   H5616     1.0  0.81365  0.94599  0.02177  1.0000
  H   H5617     1.0  0.49493  0.87450  0.96758  1.0000
  C   C5624     1.0  0.77647  0.73137  0.03305  1.0000
  H   H5618     1.0  0.98121  0.95442  0.16366  1.0000
  C   C5625     1.0  0.91775  0.97244  0.05418  1.0000
  C   C5626     1.0  0.67883  0.97097  0.09698  1.0000
  C   C5627     1.0  0.88966  0.78627  0.96795  1.0000
  H   H5619     1.0  0.66006  0.97142  0.06401  1.0000
  H   H5620     1.0  0.79860  0.76397  0.15633  1.0000
  H   H5621     1.0  0.93374  0.96882  0.06853  1.0000
  H   H5622     1.0  0.81256  0.95952  0.03318  1.0000
  C   C5628     1.0  0.78871  0.73622  0.02158  1.0000
  H   H5623     1.0  0.55656  0.76549  0.16285  1.0000
  C   C5629     1.0  0.49314  0.79963  0.16372  1.0000
  C   C5630     1.0  0.76926  0.73947  0.04478  1.0000
  C   C5631     1.0  0.48780  0.78654  0.16473  1.0000
  H   H5624     1.0  0.48724  0.83888  0.01646  1.0000
  H   H5625     1.0  0.62325  0.86595  0.16569  1.0000
  H   H5626     1.0  0.48629  0.81114  0.16011  1.0000
  H   H5627     1.0  0.74777  0.89992  0.16530  1.0000
  C   C5632     1.0  0.98537  0.83251  0.99440  1.0000
  H   H5628     1.0  0.78589  0.72776  0.14477  1.0000
  C   C5633     1.0  0.60004  0.75343  0.25952  1.0000
  H   H5629     1.0  0.93723  0.75349  0.21871  1.0000
  H   H5630     1.0  0.53359  0.86890  0.29384  1.0000
  H   H5631     1.0  0.90986  0.73022  0.25852  1.0000
  N   N466      1.0  0.94841  0.75150  0.23673  1.0000
  C   C5634     1.0  0.49446  0.91493  0.29546  1.0000
  N   N467      1.0  0.52197  0.89259  0.29189  1.0000
  S   S1895     1.0  0.82442  0.81428  0.20184  1.0000
  C   C5635     1.0  0.75095  0.86191  0.17941  1.0000
  H   H5632     1.0  0.79215  0.86728  0.32512  1.0000
  C   C5636     1.0  0.84054  0.95625  0.35583  1.0000
  C   C5637     1.0  0.52083  0.93335  0.29830  1.0000
  C   C5638     1.0  0.96262  0.74676  0.24049  1.0000
  C   C5639     1.0  0.90213  0.75004  0.24141  1.0000
  H   H5633     1.0  0.51029  0.94873  0.35178  1.0000
  C   C5640     1.0  0.72737  0.93038  0.30426  1.0000
  C   C5641     1.0  0.87567  0.81137  0.17448  1.0000
  Fe  Fe951     1.0  0.59896  0.86978  0.28423  1.0000
  S   S1896     1.0  0.61598  0.86534  0.26247  1.0000
  S   S1897     1.0  0.60241  0.85510  0.30743  1.0000
  Fe  Fe952     1.0  0.57649  0.89475  0.26730  1.0000
  S   S1898     1.0  0.59172  0.89236  0.24411  1.0000
  S   S1899     1.0  0.55342  0.91169  0.26724  1.0000
  Fe  Fe953     1.0  0.59509  0.86683  0.25382  1.0000
  S   S1900     1.0  0.59613  0.84987  0.23993  1.0000
  Fe  Fe954     1.0  0.61115  0.89127  0.25477  1.0000
  S   S1901     1.0  0.63074  0.90269  0.24009  1.0000
  S   S1902     1.0  0.57832  0.86916  0.27624  1.0000
  S   S1903     1.0  0.59566  0.89576  0.27734  1.0000
  H   H5634     1.0  0.65223  0.75322  0.32171  1.0000
  S   S1904     1.0  0.52104  0.80461  0.22769  1.0000
  S   S1905     1.0  0.53223  0.83408  0.24439  1.0000
  C   C5642     1.0  0.94523  0.74481  0.22561  1.0000
  H   H5635     1.0  0.52632  0.78163  0.17622  1.0000
  H   H5636     1.0  0.94658  0.92083  0.17264  1.0000
  S   S1906     1.0  0.84531  0.91626  0.29114  1.0000
  C   C5643     1.0  0.51447  0.89524  0.30623  1.0000
  S   S1907     1.0  0.77584  0.96471  0.28195  1.0000
  C   C5644     1.0  0.85970  0.78189  0.30711  1.0000
  S   S1908     1.0  0.69484  0.95614  0.26492  1.0000
  Fe  Fe955     1.0  0.70423  0.94673  0.22450  1.0000
  S   S1909     1.0  0.70421  0.92796  0.24597  1.0000
  S   S1910     1.0  0.70959  0.94355  0.20017  1.0000
  Fe  Fe956     1.0  0.68259  0.94366  0.25606  1.0000
  S   S1911     1.0  0.66207  0.93460  0.27173  1.0000
  Fe  Fe957     1.0  0.71652  0.94186  0.25305  1.0000
  S   S1912     1.0  0.73585  0.92869  0.26521  1.0000
  S   S1913     1.0  0.68144  0.96131  0.23396  1.0000
  S   S1914     1.0  0.71858  0.95929  0.23062  1.0000
  H   H5637     1.0  0.89338  0.77176  0.22707  1.0000
  C   C5645     1.0  0.81401  0.74922  0.36012  1.0000
  S   S1915     1.0  0.67841  0.89627  0.18835  1.0000
  C   C5646     1.0  0.82148  0.97175  0.34081  1.0000
  C   C5647     1.0  0.71895  0.95852  0.29570  1.0000
  S   S1916     1.0  0.78276  0.95036  0.32267  1.0000
  Fe  Fe958     1.0  0.65626  0.77653  0.35083  1.0000
  H   H5638     1.0  0.64764  0.91321  0.20593  1.0000
  C   C5648     1.0  0.89252  0.77456  0.24965  1.0000
  H   H5639     1.0  0.93961  0.73493  0.23183  1.0000
  Fe  Fe959     1.0  0.67358  0.79667  0.32384  1.0000
  S   S1917     1.0  0.65781  0.78146  0.32539  1.0000
  S   S1918     1.0  0.67194  0.81973  0.30717  1.0000
  C   C5649     1.0  0.90175  0.75110  0.26740  1.0000
  H   H5640     1.0  0.86287  0.79321  0.18454  1.0000
  C   C5650     1.0  0.89569  0.76599  0.23833  1.0000
  Fe  Fe960     1.0  0.67913  0.76232  0.32512  1.0000
  H   H5641     1.0  0.95566  0.76708  0.26821  1.0000
  S   S1919     1.0  0.80711  0.97343  0.33085  1.0000
  H   H5642     1.0  0.80131  0.84008  0.32528  1.0000
  S   S1920     1.0  0.69526  0.77796  0.32142  1.0000
  H   H5643     1.0  0.80942  0.89330  0.33676  1.0000
  C   C5651     1.0  0.59042  0.74498  0.22648  1.0000
  Fe  Fe961     1.0  0.88820  0.80358  0.26828  1.0000
  S   S1921     1.0  0.90270  0.81376  0.24598  1.0000
  S   S1922     1.0  0.89265  0.77786  0.27809  1.0000
  Fe  Fe962     1.0  0.86987  0.83518  0.27449  1.0000
  S   S1923     1.0  0.88285  0.84801  0.25260  1.0000
  S   S1924     1.0  0.85128  0.84573  0.29280  1.0000
  Fe  Fe963     1.0  0.88021  0.83000  0.24192  1.0000
  S   S1925     1.0  0.87534  0.83739  0.21809  1.0000
  Fe  Fe964     1.0  0.90402  0.83070  0.25867  1.0000
  S   S1926     1.0  0.92705  0.83494  0.25838  1.0000
  S   S1927     1.0  0.86548  0.81844  0.26337  1.0000
  S   S1928     1.0  0.89126  0.81917  0.28140  1.0000
  Fe  Fe965     1.0  0.96583  0.92321  0.27271  1.0000
  H   H5644     1.0  0.72329  0.81702  0.33931  1.0000
  S   S1929     1.0  0.79230  0.80898  0.34905  1.0000
  N   N468      1.0  0.66946  0.87969  0.25006  1.0000
  Fe  Fe966     1.0  0.95333  0.90669  0.25591  1.0000
  S   S1930     1.0  0.93123  0.90380  0.25223  1.0000
  S   S1931     1.0  0.95543  0.93119  0.25194  1.0000
  H   H5645     1.0  0.97076  0.97006  0.31663  1.0000
  C   C5652     1.0  0.97045  0.94534  0.29532  1.0000
  H   H5646     1.0  0.87730  0.72904  0.31122  1.0000
  S   S1932     1.0  0.62947  0.73516  0.28992  1.0000
  C   C5653     1.0  0.73182  0.77654  0.36624  1.0000
  C   C5654     1.0  0.66030  0.73102  0.28929  1.0000
  H   H5647     1.0  0.52473  0.75467  0.18887  1.0000
  H   H5648     1.0  0.54301  0.88209  0.27802  1.0000
  S   S1933     1.0  0.97663  0.89925  0.24098  1.0000
  H   H5649     1.0  0.88768  0.78691  0.24713  1.0000
  C   C5655     1.0  0.92855  0.85421  0.25549  1.0000
  C   C5656     1.0  0.94144  0.85706  0.25858  1.0000
  C   C5657     1.0  0.94255  0.87231  0.25723  1.0000
  C   C5658     1.0  0.93077  0.88475  0.25272  1.0000
  C   C5659     1.0  0.91809  0.88195  0.24920  1.0000
  C   C5660     1.0  0.91695  0.86669  0.25065  1.0000
  H   H5650     1.0  0.95045  0.84743  0.26232  1.0000
  H   H5651     1.0  0.95235  0.87440  0.25999  1.0000
  H   H5652     1.0  0.90897  0.89157  0.24566  1.0000
  H   H5653     1.0  0.90706  0.86461  0.24810  1.0000
  H   H5654     1.0  0.75705  0.93561  0.32360  1.0000
  C   C5661     1.0  0.82232  0.73784  0.35170  1.0000
  C   C5662     1.0  0.65250  0.78011  0.28496  1.0000
  H   H5655     1.0  0.68080  0.77470  0.28902  1.0000
  H   H5656     1.0  0.60725  0.74760  0.26787  1.0000
  H   H5657     1.0  0.63057  0.77480  0.28682  1.0000
  C   C5663     1.0  0.89568  0.76714  0.26415  1.0000
  H   H5658     1.0  0.88180  0.90688  0.28727  1.0000
  N   N469      1.0  0.65991  0.79102  0.28509  1.0000
  H   H5659     1.0  0.62280  0.80834  0.35610  1.0000
  H   H5660     1.0  0.55301  0.78055  0.18253  1.0000
  H   H5661     1.0  0.93392  0.95654  0.21019  1.0000
  C   C5664     1.0  0.55495  0.76805  0.18574  1.0000
  H   H5662     1.0  0.95079  0.95888  0.19475  1.0000
  H   H5663     1.0  0.94544  0.89892  0.22036  1.0000
  H   H5664     1.0  0.65776  0.81457  0.28544  1.0000
  C   C5665     1.0  0.62794  0.79853  0.28809  1.0000
  H   H5665     1.0  0.64787  0.88132  0.28599  1.0000
  H   H5666     1.0  0.78661  0.77501  0.34421  1.0000
  S   S1934     1.0  0.55447  0.81382  0.20866  1.0000
  C   C5666     1.0  0.68097  0.88644  0.25001  1.0000
  C   C5667     1.0  0.52979  0.92923  0.28449  1.0000
  C   C5668     1.0  0.70149  0.92991  0.19701  1.0000
  C   C5669     1.0  0.70260  0.92896  0.18187  1.0000
  H   H5667     1.0  0.55883  0.86147  0.19205  1.0000
  C   C5670     1.0  0.68783  0.90889  0.19140  1.0000
  C   C5671     1.0  0.68695  0.90967  0.20650  1.0000
  C   C5672     1.0  0.69369  0.92021  0.20933  1.0000
  H   H5668     1.0  0.59090  0.85825  0.20907  1.0000
  C   C5673     1.0  0.89723  0.96673  0.35747  1.0000
  H   H5669     1.0  0.68088  0.90224  0.21599  1.0000
  H   H5670     1.0  0.69283  0.92088  0.22101  1.0000
  C   C5674     1.0  0.84592  0.89710  0.29092  1.0000
  C   C5675     1.0  0.85666  0.89016  0.27939  1.0000
  C   C5676     1.0  0.85816  0.87448  0.27972  1.0000
  C   C5677     1.0  0.84911  0.86561  0.29169  1.0000
  C   C5678     1.0  0.83839  0.87258  0.30325  1.0000
  C   C5679     1.0  0.83664  0.88835  0.30276  1.0000
  H   H5671     1.0  0.86393  0.89688  0.27026  1.0000
  H   H5672     1.0  0.86655  0.86927  0.27085  1.0000
  H   H5673     1.0  0.83162  0.86573  0.31277  1.0000
  C   C5680     1.0  0.76570  0.95474  0.27585  1.0000
  C   C5681     1.0  0.75423  0.96305  0.26750  1.0000
  C   C5682     1.0  0.74535  0.95517  0.26352  1.0000
  C   C5683     1.0  0.74791  0.93898  0.26796  1.0000
  C   C5684     1.0  0.75966  0.93073  0.27588  1.0000
  C   C5685     1.0  0.76847  0.93857  0.27982  1.0000
  H   H5674     1.0  0.76331  0.85846  0.17907  1.0000
  H   H5675     1.0  0.73629  0.96160  0.25739  1.0000
  H   H5676     1.0  0.76170  0.91821  0.27927  1.0000
  H   H5677     1.0  0.77726  0.93207  0.28614  1.0000
  C   C5686     1.0  0.62180  0.84587  0.30782  1.0000
  C   C5687     1.0  0.63388  0.85122  0.29644  1.0000
  C   C5688     1.0  0.64932  0.84344  0.29662  1.0000
  C   C5689     1.0  0.65269  0.83022  0.30809  1.0000
  C   C5690     1.0  0.64062  0.82493  0.31956  1.0000
  C   C5691     1.0  0.62519  0.83282  0.31947  1.0000
  H   H5678     1.0  0.63128  0.86142  0.28760  1.0000
  H   H5679     1.0  0.65866  0.84749  0.28773  1.0000
  H   H5680     1.0  0.64317  0.81470  0.32841  1.0000
  H   H5681     1.0  0.61585  0.82864  0.32825  1.0000
  C   C5692     1.0  0.63880  0.91215  0.24895  1.0000
  C   C5693     1.0  0.65245  0.91716  0.24090  1.0000
  C   C5694     1.0  0.65938  0.92452  0.24766  1.0000
  C   C5695     1.0  0.65283  0.92660  0.26267  1.0000
  C   C5696     1.0  0.63914  0.92163  0.27076  1.0000
  C   C5697     1.0  0.63209  0.91445  0.26388  1.0000
  H   H5682     1.0  0.65769  0.91536  0.22939  1.0000
  H   H5683     1.0  0.66994  0.92833  0.24139  1.0000
  H   H5684     1.0  0.63405  0.92325  0.28240  1.0000
  H   H5685     1.0  0.62156  0.91063  0.27019  1.0000
  C   C5698     1.0  0.57830  0.84537  0.24175  1.0000
  C   C5699     1.0  0.56437  0.85380  0.24909  1.0000
  C   C5700     1.0  0.55024  0.85014  0.25009  1.0000
  C   C5701     1.0  0.55002  0.83819  0.24358  1.0000
  C   C5702     1.0  0.56398  0.82971  0.23636  1.0000
  C   C5703     1.0  0.57808  0.83332  0.23539  1.0000
  H   H5686     1.0  0.56445  0.86326  0.25382  1.0000
  H   H5687     1.0  0.53948  0.85674  0.25569  1.0000
  H   H5688     1.0  0.56397  0.82017  0.23178  1.0000
  H   H5689     1.0  0.58884  0.82672  0.22978  1.0000
  C   C5704     1.0  0.54361  0.91790  0.28439  1.0000
  C   C5705     1.0  0.54870  0.91098  0.29811  1.0000
  C   C5706     1.0  0.53970  0.91510  0.31196  1.0000
  C   C5707     1.0  0.52564  0.92614  0.31211  1.0000
  C   C5708     1.0  0.55869  0.74412  0.20488  1.0000
  H   H5690     1.0  0.63034  0.74971  0.31333  1.0000
  H   H5691     1.0  0.55941  0.90227  0.29809  1.0000
  H   H5692     1.0  0.54353  0.90955  0.32260  1.0000
  C   C5709     1.0  0.65771  0.87780  0.26281  1.0000
  C   C5710     1.0  0.58186  0.76792  0.23798  1.0000
  H   H5693     1.0  0.59150  0.77441  0.26815  1.0000
  C   C5711     1.0  0.83783  0.82139  0.20683  1.0000
  C   C5712     1.0  0.84527  0.83260  0.19624  1.0000
  C   C5713     1.0  0.85621  0.83791  0.20016  1.0000
  C   C5714     1.0  0.86006  0.83183  0.21458  1.0000
  C   C5715     1.0  0.85260  0.82066  0.22526  1.0000
  C   C5716     1.0  0.84143  0.81553  0.22141  1.0000
  H   H5694     1.0  0.84273  0.83711  0.18497  1.0000
  H   H5695     1.0  0.86193  0.84656  0.19189  1.0000
  H   H5696     1.0  0.85562  0.81577  0.23633  1.0000
  H   H5697     1.0  0.83575  0.80681  0.22963  1.0000
  H   H5698     1.0  0.64986  0.96580  0.22621  1.0000
  H   H5699     1.0  0.60640  0.73422  0.24848  1.0000
  C   C5717     1.0  0.96547  0.75230  0.25184  1.0000
  C   C5718     1.0  0.73653  0.91730  0.31196  1.0000
  S   S1935     1.0  0.51388  0.93009  0.32974  1.0000
  Fe  Fe967     1.0  0.80638  0.95301  0.32218  1.0000
  H   H5700     1.0  0.90684  0.84621  0.28830  1.0000
  C   C5719     1.0  0.72001  0.78026  0.35819  1.0000
  H   H5701     1.0  0.79173  0.74705  0.34743  1.0000
  H   H5702     1.0  0.94184  0.96284  0.35921  1.0000
  C   C5720     1.0  0.50714  0.79783  0.16775  1.0000
  H   H5703     1.0  0.75440  0.90919  0.32508  1.0000
  C   C5721     1.0  0.63567  0.80974  0.28767  1.0000
  H   H5704     1.0  0.61543  0.80143  0.28948  1.0000
  C   C5722     1.0  0.79487  0.88524  0.30475  1.0000
  C   C5723     1.0  0.65454  0.74721  0.31254  1.0000
  C   C5724     1.0  0.84172  0.96957  0.35959  1.0000
  S   S1936     1.0  0.53088  0.80957  0.18947  1.0000
  Fe  Fe968     1.0  0.54148  0.79609  0.20979  1.0000
  C   C5725     1.0  0.75863  0.73710  0.34873  1.0000
  H   H5705     1.0  0.95601  0.74056  0.21745  1.0000
  H   H5706     1.0  0.66180  0.88528  0.22923  1.0000
  S   S1937     1.0  0.95708  0.93843  0.29012  1.0000
  H   H5707     1.0  0.71926  0.92880  0.29859  1.0000
  C   C5726     1.0  0.89013  0.81531  0.19008  1.0000
  C   C5727     1.0  0.59122  0.76846  0.25966  1.0000
  C   C5728     1.0  0.66904  0.87549  0.23604  1.0000
  S   S1938     1.0  0.55268  0.77069  0.21520  1.0000
  H   H5708     1.0  0.82170  0.85246  0.28510  1.0000
  H   H5709     1.0  0.97188  0.95276  0.25769  1.0000
  C   C5729     1.0  0.63640  0.78363  0.28661  1.0000
  H   H5710     1.0  0.94648  0.94559  0.17814  1.0000
  H   H5711     1.0  0.92557  0.76549  0.24105  1.0000
  H   H5712     1.0  0.52202  0.89885  0.26792  1.0000
  H   H5713     1.0  0.76959  0.78712  0.33808  1.0000
  S   S1939     1.0  0.80023  0.92384  0.30224  1.0000
  H   H5714     1.0  0.68083  0.87275  0.22869  1.0000
  C   C5730     1.0  0.93921  0.76752  0.25541  1.0000
  N   N470      1.0  0.77173  0.76282  0.34067  1.0000
  C   C5731     1.0  0.98282  0.94500  0.17347  1.0000
  H   H5715     1.0  0.68979  0.89720  0.26279  1.0000
  H   H5716     1.0  0.66747  0.93905  0.19134  1.0000
  H   H5717     1.0  0.82852  0.89359  0.31183  1.0000
  S   S1940     1.0  0.96164  0.89919  0.27794  1.0000
  C   C5732     1.0  0.65741  0.88249  0.27604  1.0000
  Fe  Fe969     1.0  0.51141  0.81940  0.20741  1.0000
  N   N471      1.0  0.94614  0.93614  0.20204  1.0000
  C   C5733     1.0  0.94605  0.93544  0.18751  1.0000
  C   C5734     1.0  0.94575  0.92327  0.21376  1.0000
  C   C5735     1.0  0.94590  0.90820  0.19616  1.0000
  C   C5736     1.0  0.94567  0.90910  0.21100  1.0000
  C   C5737     1.0  0.74869  0.93408  0.31822  1.0000
  H   H5718     1.0  0.98456  0.95964  0.18721  1.0000
  C   C5738     1.0  0.97999  0.96048  0.25114  1.0000
  H   H5719     1.0  0.69623  0.91818  0.16735  1.0000
  Fe  Fe970     1.0  0.76863  0.80859  0.36405  1.0000
  H   H5720     1.0  0.49501  0.90885  0.31955  1.0000
  C   C5739     1.0  0.55981  0.74329  0.17865  1.0000
  C   C5740     1.0  0.75045  0.75167  0.34245  1.0000
  N   N472      1.0  0.51001  0.77015  0.17429  1.0000
  H   H5721     1.0  0.49294  0.96949  0.26200  1.0000
  H   H5722     1.0  0.86424  0.86276  0.31876  1.0000
  H   H5723     1.0  0.66393  0.86518  0.23889  1.0000
  H   H5724     1.0  0.78768  0.89439  0.31057  1.0000
  C   C5741     1.0  0.65178  0.80579  0.28596  1.0000
  H   H5725     1.0  0.58581  0.73439  0.23233  1.0000
  H   H5726     1.0  0.81741  0.87942  0.27001  1.0000
  C   C5742     1.0  0.81149  0.87682  0.28202  1.0000
  S   S1941     1.0  0.52171  0.83916  0.20609  1.0000
  C   C5743     1.0  0.89859  0.85553  0.29326  1.0000
  H   H5727     1.0  0.57470  0.77370  0.22962  1.0000
  Fe  Fe971     1.0  0.80009  0.78645  0.36477  1.0000
  H   H5728     1.0  0.64819  0.87316  0.26260  1.0000
  C   C5744     1.0  0.68097  0.89137  0.26301  1.0000
  H   H5729     1.0  0.73543  0.90577  0.31229  1.0000
  H   H5730     1.0  0.97672  0.96666  0.23998  1.0000
  C   C5745     1.0  0.93900  0.96865  0.34778  1.0000
  S   S1942     1.0  0.68555  0.74480  0.31024  1.0000
  H   H5731     1.0  0.82934  0.94696  0.34390  1.0000
  C   C5746     1.0  0.90123  0.87055  0.28863  1.0000
  H   H5732     1.0  0.51012  0.94192  0.29826  1.0000
  H   H5733     1.0  0.87399  0.75622  0.29635  1.0000
  C   C5747     1.0  0.63358  0.94144  0.21732  1.0000
  C   C5748     1.0  0.73763  0.80194  0.35478  1.0000
  H   H5734     1.0  0.77772  0.85395  0.36342  1.0000
  C   C5749     1.0  0.83045  0.95732  0.34644  1.0000
  H   H5735     1.0  0.90420  0.74532  0.27862  1.0000
  N   N473      1.0  0.89049  0.88255  0.29410  1.0000
  H   H5736     1.0  0.62610  0.95516  0.23466  1.0000
  H   H5737     1.0  0.95525  0.97409  0.26957  1.0000
  C   C5750     1.0  0.97513  0.96221  0.30887  1.0000
  H   H5738     1.0  0.85290  0.74537  0.35255  1.0000
  N   N474      1.0  0.88517  0.81928  0.17660  1.0000
  C   C5751     1.0  0.67676  0.78707  0.28356  1.0000
  H   H5739     1.0  0.65902  0.76855  0.28372  1.0000
  H   H5740     1.0  0.68270  0.78918  0.27122  1.0000
  H   H5741     1.0  0.68029  0.79407  0.28951  1.0000
  Fe  Fe972     1.0  0.53312  0.82354  0.22484  1.0000
  C   C5752     1.0  0.51047  0.94257  0.36359  1.0000
  S   S1943     1.0  0.67626  0.75597  0.35075  1.0000
  H   H5742     1.0  0.94602  0.89725  0.19382  1.0000
  C   C5753     1.0  0.88565  0.80303  0.20183  1.0000
  H   H5743     1.0  0.63185  0.92611  0.19771  1.0000
  C   C5754     1.0  0.87590  0.79494  0.19979  1.0000
  C   C5755     1.0  0.94597  0.95089  0.20532  1.0000
  H   H5744     1.0  0.51132  0.80795  0.16714  1.0000
  C   C5756     1.0  0.94605  0.92144  0.18432  1.0000
  H   H5745     1.0  0.88908  0.80039  0.21273  1.0000
  H   H5746     1.0  0.54403  0.88128  0.29713  1.0000
  N   N475      1.0  0.58322  0.85824  0.18936  1.0000
  C   C5757     1.0  0.53630  0.88057  0.29016  1.0000
  H   H5747     1.0  0.49282  0.83751  0.23145  1.0000
  H   H5748     1.0  0.82216  0.86539  0.34262  1.0000
  C   C5758     1.0  0.67268  0.73331  0.29379  1.0000
  H   H5749     1.0  0.72040  0.84600  0.18381  1.0000
  C   C5759     1.0  0.90504  0.74255  0.25601  1.0000
  H   H5750     1.0  0.49820  0.84173  0.25448  1.0000
  C   C5760     1.0  0.80079  0.85781  0.35343  1.0000
  H   H5751     1.0  0.62349  0.93631  0.22152  1.0000
  H   H5752     1.0  0.81330  0.83368  0.30825  1.0000
  H   H5753     1.0  0.90082  0.89983  0.27677  1.0000
  Fe  Fe973     1.0  0.69056  0.77333  0.34719  1.0000
  C   C5761     1.0  0.74721  0.91920  0.31902  1.0000
  Fe  Fe974     1.0  0.69572  0.97249  0.24182  1.0000
  C   C5762     1.0  0.69570  0.91853  0.17905  1.0000
  C   C5763     1.0  0.96494  0.95527  0.30566  1.0000
  H   H5754     1.0  0.62923  0.82140  0.28872  1.0000
  C   C5764     1.0  0.50208  0.91202  0.28091  1.0000
  H   H5755     1.0  0.83054  0.74071  0.34104  1.0000
  H   H5756     1.0  0.80036  0.90066  0.28270  1.0000
  H   H5757     1.0  0.52587  0.93463  0.27388  1.0000
  Fe  Fe975     1.0  0.54216  0.82817  0.18995  1.0000
  H   H5758     1.0  0.74850  0.83828  0.18414  1.0000
  C   C5765     1.0  0.80199  0.88873  0.28917  1.0000
  H   H5759     1.0  0.92985  0.77555  0.26123  1.0000
  H   H5760     1.0  0.70856  0.93654  0.17231  1.0000
  C   C5766     1.0  0.62413  0.81521  0.36362  1.0000
  H   H5761     1.0  0.97674  0.74836  0.25488  1.0000
  H   H5762     1.0  0.88269  0.84122  0.30748  1.0000
  C   C5767     1.0  0.66909  0.88939  0.27608  1.0000
  C   C5768     1.0  0.55560  0.76035  0.20093  1.0000
  H   H5763     1.0  0.70727  0.87387  0.17962  1.0000
  H   H5764     1.0  0.89817  0.90130  0.29641  1.0000
  Fe  Fe976     1.0  0.79165  0.94966  0.29779  1.0000
  Fe  Fe977     1.0  0.82332  0.82203  0.17677  1.0000
  H   H5765     1.0  0.66863  0.89371  0.28600  1.0000
  C   C5769     1.0  0.81384  0.86156  0.29062  1.0000
  H   H5766     1.0  0.95271  0.95788  0.31091  1.0000
  H   H5767     1.0  0.69004  0.88842  0.23978  1.0000
  S   S1944     1.0  0.81462  0.95420  0.29679  1.0000
  H   H5768     1.0  0.55928  0.73811  0.21660  1.0000
  H   H5769     1.0  0.97183  0.73859  0.23479  1.0000
  C   C5770     1.0  0.63503  0.95202  0.22486  1.0000
  C   C5771     1.0  0.58205  0.77579  0.24884  1.0000
  N   N476      1.0  0.80698  0.85827  0.30594  1.0000
  C   C5772     1.0  0.64842  0.95790  0.22019  1.0000
  C   C5773     1.0  0.79750  0.86986  0.31298  1.0000
  Fe  Fe978     1.0  0.82240  0.92832  0.30366  1.0000
  H   H5770     1.0  0.91184  0.87259  0.28051  1.0000
  S   S1945     1.0  0.90723  0.74010  0.22647  1.0000
  H   H5771     1.0  0.73876  0.75313  0.34106  1.0000
  C   C5774     1.0  0.66012  0.95325  0.20801  1.0000
  C   C5775     1.0  0.65823  0.94274  0.20066  1.0000
  H   H5772     1.0  0.89699  0.82206  0.19216  1.0000
  H   H5773     1.0  0.86988  0.78643  0.30654  1.0000
  H   H5774     1.0  0.85900  0.78267  0.29511  1.0000
  N   N477      1.0  0.64512  0.93692  0.20539  1.0000
  N   N478      1.0  0.92214  0.97344  0.34935  1.0000
  C   C5776     1.0  0.81088  0.84252  0.31517  1.0000
  H   H5775     1.0  0.82138  0.84119  0.31955  1.0000
  C   C5777     1.0  0.87131  0.73852  0.31700  1.0000
  C   C5778     1.0  0.85777  0.74764  0.34025  1.0000
  Fe  Fe979     1.0  0.79286  0.92479  0.32715  1.0000
  C   C5779     1.0  0.88515  0.85271  0.30409  1.0000
  C   C5780     1.0  0.78636  0.88946  0.34682  1.0000
  H   H5776     1.0  0.95332  0.94895  0.21368  1.0000
  S   S1946     1.0  0.81581  0.92729  0.32918  1.0000
  C   C5781     1.0  0.80968  0.86898  0.34593  1.0000
  H   H5777     1.0  0.49192  0.76173  0.17124  1.0000
  C   C5782     1.0  0.87760  0.87978  0.30519  1.0000
  C   C5783     1.0  0.56072  0.73560  0.19377  1.0000
  C   C5784     1.0  0.77360  0.73542  0.35053  1.0000
  H   H5778     1.0  0.60237  0.74154  0.21969  1.0000
  C   C5785     1.0  0.72821  0.88159  0.17675  1.0000
  C   C5786     1.0  0.80248  0.88477  0.34256  1.0000
  C   C5787     1.0  0.59371  0.85944  0.19668  1.0000
  C   C5788     1.0  0.64395  0.92480  0.19859  1.0000
  H   H5779     1.0  0.72480  0.96842  0.29078  1.0000
  C   C5789     1.0  0.87476  0.86482  0.31039  1.0000
  C   C5790     1.0  0.72687  0.85474  0.18221  1.0000
  C   C5791     1.0  0.86542  0.73539  0.33287  1.0000
  C   C5792     1.0  0.51592  0.90075  0.27932  1.0000
  C   C5793     1.0  0.77863  0.77637  0.33661  1.0000
  C   C5794     1.0  0.72573  0.80569  0.34680  1.0000
  C   C5795     1.0  0.89297  0.89840  0.28840  1.0000
  C   C5796     1.0  0.71954  0.87041  0.17965  1.0000
  H   H5780     1.0  0.78529  0.77789  0.32449  1.0000
  C   C5797     1.0  0.87086  0.79911  0.18604  1.0000
  H   H5781     1.0  0.58309  0.75225  0.21825  1.0000
  C   C5798     1.0  0.73944  0.94692  0.31032  1.0000
  S   S1947     1.0  0.70917  0.76649  0.36080  1.0000
  S   S1948     1.0  0.81719  0.76810  0.35308  1.0000
  H   H5782     1.0  0.87188  0.78577  0.20902  1.0000
  H   H5783     1.0  0.74088  0.95844  0.30952  1.0000
  C   C5799     1.0  0.71695  0.79485  0.34845  1.0000
  C   C5800     1.0  0.64215  0.74516  0.30783  1.0000
  H   H5784     1.0  0.52868  0.92353  0.35700  1.0000
  C   C5801     1.0  0.55707  0.75952  0.17460  1.0000
  N   N479      1.0  0.72900  0.94495  0.30342  1.0000
  H   H5785     1.0  0.84962  0.77229  0.33738  1.0000
  S   S1949     1.0  0.77711  0.90913  0.34233  1.0000
  C   C5802     1.0  0.66983  0.74148  0.30536  1.0000
  C   C5803     1.0  0.85586  0.76287  0.33156  1.0000
  C   C5804     1.0  0.93681  0.76175  0.24401  1.0000
  H   H5786     1.0  0.86914  0.88928  0.30964  1.0000
  H   H5787     1.0  0.70780  0.79780  0.34223  1.0000
  N   N480      1.0  0.74379  0.87727  0.17628  1.0000
  C   C5805     1.0  0.51899  0.75463  0.17979  1.0000
  H   H5788     1.0  0.62309  0.82750  0.35730  1.0000
  H   H5789     1.0  0.70801  0.96209  0.30397  1.0000
  C   C5806     1.0  0.95366  0.76274  0.25934  1.0000
  H   H5790     1.0  0.75074  0.77580  0.33367  1.0000
  H   H5791     1.0  0.51149  0.74608  0.18494  1.0000
  H   H5792     1.0  0.48704  0.77287  0.20360  1.0000
  H   H5793     1.0  0.49188  0.85535  0.27429  1.0000
  H   H5794     1.0  0.75290  0.89188  0.18385  1.0000
  S   S1950     1.0  0.67023  0.79355  0.34934  1.0000
  H   H5795     1.0  0.98469  0.90624  0.18555  1.0000
  C   C5807     1.0  0.56820  0.85488  0.19829  1.0000
  C   C5808     1.0  0.75728  0.76447  0.33833  1.0000
  H   H5796     1.0  0.94556  0.92387  0.22534  1.0000
  H   H5797     1.0  0.84896  0.78947  0.31239  1.0000
  C   C5809     1.0  0.64502  0.73711  0.29617  1.0000
  Fe  Fe980     1.0  0.79580  0.81998  0.36616  1.0000
  N   N481      1.0  0.59058  0.75319  0.23790  1.0000
  C   C5810     1.0  0.78005  0.74847  0.34622  1.0000
  C   C5811     1.0  0.60822  0.86227  0.18829  1.0000
  H   H5798     1.0  0.65148  0.92510  0.18685  1.0000
  Fe  Fe981     1.0  0.97941  0.92330  0.23871  1.0000
  H   H5799     1.0  0.76498  0.88192  0.35774  1.0000
  C   C5812     1.0  0.50064  0.90645  0.30823  1.0000
  H   H5800     1.0  0.57510  0.78747  0.24885  1.0000
  C   C5813     1.0  0.59955  0.74591  0.24850  1.0000
  H   H5801     1.0  0.51939  0.88896  0.31616  1.0000
  N   N482      1.0  0.86145  0.76582  0.31595  1.0000
  C   C5814     1.0  0.98285  0.92995  0.17295  1.0000
  H   H5802     1.0  0.49838  0.79252  0.20776  1.0000
  C   C5815     1.0  0.86931  0.75390  0.30868  1.0000
  C   C5816     1.0  0.74263  0.85042  0.18234  1.0000
  H   H5803     1.0  0.84720  0.94503  0.36045  1.0000
  H   H5804     1.0  0.61647  0.86326  0.19416  1.0000
  H   H5805     1.0  0.67076  0.95749  0.20446  1.0000
  H   H5806     1.0  0.94416  0.96057  0.33981  1.0000
  C   C5817     1.0  0.74066  0.78731  0.36446  1.0000
  C   C5818     1.0  0.91335  0.96254  0.35582  1.0000
  N   N483      1.0  0.97952  0.97161  0.26002  1.0000
  S   S1951     1.0  0.74812  0.81588  0.35287  1.0000
  S   S1952     1.0  0.81016  0.83811  0.35659  1.0000
  C   C5819     1.0  0.78465  0.86250  0.35765  1.0000
  C   C5820     1.0  0.77746  0.87832  0.35440  1.0000
  Fe  Fe982     1.0  0.48968  0.94448  0.32926  1.0000
  C   C5821     1.0  0.51552  0.78291  0.17297  1.0000
  H   H5807     1.0  0.71609  0.95591  0.28593  1.0000
  C   C5822     1.0  0.49644  0.77179  0.17005  1.0000
  Fe  Fe983     1.0  0.98535  0.89377  0.26269  1.0000
  H   H5808     1.0  0.56866  0.84232  0.20017  1.0000
  C   C5823     1.0  0.48737  0.84798  0.25106  1.0000
  H   H5809     1.0  0.56493  0.85809  0.20968  1.0000
  H   H5810     1.0  0.49742  0.91862  0.27091  1.0000
  C   C5824     1.0  0.98468  0.91790  0.18587  1.0000
  C   C5825     1.0  0.75277  0.88913  0.17295  1.0000
  H   H5811     1.0  0.52809  0.75061  0.17008  1.0000
  C   C5826     1.0  0.98465  0.94797  0.18685  1.0000
  H   H5812     1.0  0.75201  0.97558  0.26441  1.0000
  H   H5813     1.0  0.72244  0.89376  0.17460  1.0000
  H   H5814     1.0  0.91881  0.95051  0.35978  1.0000
  H   H5815     1.0  0.89018  0.95813  0.36266  1.0000
  H   H5816     1.0  0.63601  0.81041  0.36579  1.0000
  H   H5817     1.0  0.78383  0.96739  0.36208  1.0000
  H   H5818     1.0  0.68447  0.72891  0.28813  1.0000
  C   C5827     1.0  0.52091  0.92841  0.36654  1.0000
  H   H5819     1.0  0.57873  0.85820  0.16799  1.0000
  S   S1953     1.0  0.55296  0.84571  0.17083  1.0000
  C   C5828     1.0  0.61202  0.86374  0.17235  1.0000
  C   C5829     1.0  0.58693  0.85944  0.17376  1.0000
  C   C5830     1.0  0.48705  0.79587  0.20504  1.0000
  H   H5820     1.0  0.76492  0.88508  0.16683  1.0000
  C   C5831     1.0  0.83292  0.73850  0.53406  1.0000
  C   C5832     1.0  0.55262  0.84218  0.49463  1.0000
  C   C5833     1.0  0.56185  0.83844  0.48086  1.0000
  H   H5821     1.0  0.70918  0.81600  0.38050  1.0000
  N   N484      1.0  0.70101  0.81137  0.51774  1.0000
  H   H5822     1.0  0.48874  0.93861  0.41456  1.0000
  C   C5834     1.0  0.52558  0.87890  0.48012  1.0000
  H   H5823     1.0  0.72425  0.80358  0.50587  1.0000
  C   C5835     1.0  0.55902  0.84794  0.46687  1.0000
  C   C5836     1.0  0.68620  0.80906  0.52236  1.0000
  S   S1954     1.0  0.85312  0.96784  0.37269  1.0000
  H   H5824     1.0  0.65471  0.78269  0.38013  1.0000
  H   H5825     1.0  0.51096  0.92073  0.40556  1.0000
  H   H5826     1.0  0.58113  0.81268  0.41610  1.0000
  H   H5827     1.0  0.71699  0.76354  0.53611  1.0000
  H   H5828     1.0  0.59220  0.76887  0.54767  1.0000
  H   H5829     1.0  0.88234  0.95263  0.51546  1.0000
  C   C5837     1.0  0.52116  0.92057  0.38173  1.0000
  C   C5838     1.0  0.71244  0.80193  0.50934  1.0000
  C   C5839     1.0  0.79013  0.96972  0.36918  1.0000
  Fe  Fe984     1.0  0.57982  0.76999  0.46772  1.0000
  S   S1955     1.0  0.60143  0.77337  0.47179  1.0000
  S   S1956     1.0  0.57531  0.74590  0.47591  1.0000
  Fe  Fe985     1.0  0.56884  0.80426  0.45440  1.0000
  S   S1957     1.0  0.58967  0.81040  0.45702  1.0000
  S   S1958     1.0  0.55165  0.82341  0.44291  1.0000
  Fe  Fe986     1.0  0.60316  0.78901  0.44828  1.0000
  S   S1959     1.0  0.62625  0.78947  0.43170  1.0000
  Fe  Fe987     1.0  0.58603  0.79435  0.48017  1.0000
  S   S1960     1.0  0.58503  0.80199  0.50154  1.0000
  S   S1961     1.0  0.58260  0.78422  0.44353  1.0000
  S   S1962     1.0  0.56417  0.78958  0.47826  1.0000
  H   H5830     1.0  0.53338  0.85826  0.50497  1.0000
  Fe  Fe988     1.0  0.66214  0.79480  0.56519  1.0000
  C   C5840     1.0  0.54061  0.85548  0.49422  1.0000
  H   H5831     1.0  0.61853  0.74208  0.55516  1.0000
  S   S1963     1.0  0.64646  0.77787  0.52669  1.0000
  H   H5832     1.0  0.60240  0.73161  0.42268  1.0000
  H   H5833     1.0  0.56584  0.84482  0.45610  1.0000
  S   S1964     1.0  0.77127  0.82172  0.37998  1.0000
  H   H5834     1.0  0.69209  0.77569  0.55129  1.0000
  C   C5841     1.0  0.80123  0.84897  0.55154  1.0000
  S   S1965     1.0  0.77608  0.78508  0.37841  1.0000
  H   H5835     1.0  0.79120  0.72774  0.38861  1.0000
  H   H5836     1.0  0.57493  0.77385  0.52977  1.0000
  Fe  Fe989     1.0  0.78054  0.79807  0.39343  1.0000
  S   S1966     1.0  0.77180  0.78949  0.41893  1.0000
  S   S1967     1.0  0.80539  0.79732  0.38099  1.0000
  Fe  Fe990     1.0  0.77523  0.81267  0.52312  1.0000
  S   S1968     1.0  0.77714  0.78738  0.53444  1.0000
  S   S1969     1.0  0.76705  0.83210  0.53598  1.0000
  Fe  Fe991     1.0  0.78215  0.80709  0.49082  1.0000
  S   S1970     1.0  0.78453  0.78151  0.49924  1.0000
  S   S1971     1.0  0.78696  0.81895  0.46570  1.0000
  Fe  Fe992     1.0  0.76371  0.78731  0.51774  1.0000
  S   S1972     1.0  0.81478  0.85685  0.55536  1.0000
  Fe  Fe993     1.0  0.79790  0.78342  0.51514  1.0000
  S   S1973     1.0  0.81971  0.76467  0.51533  1.0000
  S   S1974     1.0  0.75989  0.81291  0.50788  1.0000
  S   S1975     1.0  0.79731  0.80876  0.50524  1.0000
  H   H5837     1.0  0.82503  0.86750  0.51743  1.0000
  S   S1976     1.0  0.48728  0.90148  0.46488  1.0000
  H   H5838     1.0  0.58426  0.76244  0.50662  1.0000
  C   C5842     1.0  0.64426  0.78154  0.38882  1.0000
  C   C5843     1.0  0.85411  0.93369  0.51987  1.0000
  N   N485      1.0  0.61109  0.75499  0.53465  1.0000
  H   H5839     1.0  0.82016  0.80288  0.44486  1.0000
  C   C5844     1.0  0.82526  0.79264  0.47317  1.0000
  C   C5845     1.0  0.70446  0.82442  0.52135  1.0000
  H   H5840     1.0  0.62592  0.82015  0.39002  1.0000
  H   H5841     1.0  0.73418  0.76526  0.37383  1.0000
  S   S1977     1.0  0.48860  0.92432  0.54402  1.0000
  H   H5842     1.0  0.81112  0.78951  0.43040  1.0000
  H   H5843     1.0  0.81817  0.76470  0.48338  1.0000
  C   C5846     1.0  0.81116  0.76252  0.46396  1.0000
  C   C5847     1.0  0.81665  0.77019  0.47174  1.0000
  H   H5844     1.0  0.82378  0.78715  0.48566  1.0000
  H   H5845     1.0  0.84581  0.93525  0.56624  1.0000
  S   S1978     1.0  0.74602  0.77279  0.52417  1.0000
  C   C5848     1.0  0.78686  0.88526  0.52345  1.0000
  H   H5846     1.0  0.60983  0.77163  0.39483  1.0000
  C   C5849     1.0  0.77529  0.79839  0.43179  1.0000
  C   C5850     1.0  0.78222  0.81117  0.42647  1.0000
  C   C5851     1.0  0.78535  0.81769  0.43701  1.0000
  C   C5852     1.0  0.78165  0.81142  0.45289  1.0000
  C   C5853     1.0  0.77454  0.79878  0.45821  1.0000
  C   C5854     1.0  0.77134  0.79231  0.44768  1.0000
  H   H5847     1.0  0.78526  0.81596  0.41423  1.0000
  H   H5848     1.0  0.79083  0.82749  0.43283  1.0000
  H   H5849     1.0  0.77159  0.79391  0.47041  1.0000
  H   H5850     1.0  0.76594  0.78245  0.45185  1.0000
  H   H5851     1.0  0.83477  0.97414  0.52973  1.0000
  H   H5852     1.0  0.82530  0.92408  0.56389  1.0000
  C   C5855     1.0  0.72844  0.79255  0.54302  1.0000
  C   C5856     1.0  0.72932  0.77982  0.53714  1.0000
  H   H5853     1.0  0.77871  0.89426  0.52890  1.0000
  C   C5857     1.0  0.84714  0.94338  0.50794  1.0000
  H   H5854     1.0  0.80833  0.75134  0.46956  1.0000
  H   H5855     1.0  0.73849  0.79748  0.54047  1.0000
  H   H5856     1.0  0.83775  0.79250  0.46830  1.0000
  N   N486      1.0  0.81971  0.78456  0.46491  1.0000
  C   C5858     1.0  0.60255  0.79634  0.50771  1.0000
  C   C5859     1.0  0.61586  0.78782  0.49959  1.0000
  C   C5860     1.0  0.62943  0.78242  0.50533  1.0000
  C   C5861     1.0  0.62976  0.78564  0.51912  1.0000
  C   C5862     1.0  0.61657  0.79448  0.52706  1.0000
  C   C5863     1.0  0.60297  0.79979  0.52137  1.0000
  H   H5857     1.0  0.61569  0.78530  0.48895  1.0000
  H   H5858     1.0  0.63965  0.77567  0.49911  1.0000
  H   H5859     1.0  0.61680  0.79718  0.53761  1.0000
  H   H5860     1.0  0.59272  0.80646  0.52765  1.0000
  C   C5864     1.0  0.51188  0.84828  0.47579  1.0000
  C   C5865     1.0  0.51374  0.85388  0.45986  1.0000
  C   C5866     1.0  0.52576  0.84597  0.44979  1.0000
  C   C5867     1.0  0.53594  0.83250  0.45561  1.0000
  C   C5868     1.0  0.53383  0.82683  0.47153  1.0000
  C   C5869     1.0  0.52183  0.83468  0.48159  1.0000
  C   C5870     1.0  0.72815  0.81292  0.39100  1.0000
  H   H5861     1.0  0.49402  0.82964  0.45640  1.0000
  H   H5862     1.0  0.54157  0.81653  0.47615  1.0000
  H   H5863     1.0  0.52040  0.83028  0.49390  1.0000
  C   C5871     1.0  0.62894  0.78346  0.41453  1.0000
  C   C5872     1.0  0.64250  0.78484  0.40319  1.0000
  H   H5864     1.0  0.65156  0.78870  0.40544  1.0000
  C   C5873     1.0  0.68259  0.79683  0.51883  1.0000
  C   C5874     1.0  0.71632  0.77342  0.54062  1.0000
  C   C5875     1.0  0.82175  0.75249  0.53335  1.0000
  H   H5865     1.0  0.67719  0.81644  0.52917  1.0000
  H   H5866     1.0  0.57673  0.80642  0.39345  1.0000
  H   H5867     1.0  0.80369  0.76726  0.54658  1.0000
  H   H5868     1.0  0.69160  0.77730  0.50799  1.0000
  C   C5876     1.0  0.71438  0.79921  0.55191  1.0000
  H   H5869     1.0  0.83717  0.96104  0.48387  1.0000
  H   H5870     1.0  0.80095  0.94570  0.37638  1.0000
  H   H5871     1.0  0.80668  0.88876  0.52904  1.0000
  N   N487      1.0  0.53786  0.86472  0.48043  1.0000
  Fe  Fe994     1.0  0.80206  0.91222  0.56065  1.0000
  H   H5872     1.0  0.79643  0.75422  0.38010  1.0000
  H   H5873     1.0  0.81424  0.96287  0.52728  1.0000
  C   C5877     1.0  0.78537  0.85561  0.55482  1.0000
  N   N488      1.0  0.85292  0.95588  0.49877  1.0000
  H   H5874     1.0  0.77126  0.74413  0.53893  1.0000
  H   H5875     1.0  0.72025  0.77225  0.41081  1.0000
  C   C5878     1.0  0.61901  0.77521  0.39718  1.0000
  C   C5879     1.0  0.81292  0.87033  0.51685  1.0000
  H   H5876     1.0  0.60711  0.77676  0.42035  1.0000
  C   C5880     1.0  0.61740  0.77823  0.41163  1.0000
  C   C5881     1.0  0.63233  0.77710  0.38567  1.0000
  H   H5877     1.0  0.51962  0.88074  0.47064  1.0000
  C   C5882     1.0  0.81800  0.79137  0.45018  1.0000
  H   H5878     1.0  0.81881  0.83119  0.54170  1.0000
  H   H5879     1.0  0.50610  0.86442  0.45529  1.0000
  H   H5880     1.0  0.74183  0.78021  0.41564  1.0000
  C   C5883     1.0  0.78170  0.87619  0.51690  1.0000
  C   C5884     1.0  0.71607  0.80818  0.38848  1.0000
  C   C5885     1.0  0.83889  0.94136  0.55778  1.0000
  H   H5881     1.0  0.76270  0.85533  0.55276  1.0000
  C   C5886     1.0  0.80258  0.88225  0.52345  1.0000
  C   C5887     1.0  0.80283  0.74555  0.37349  1.0000
  H   H5882     1.0  0.51646  0.87813  0.49094  1.0000
  H   H5883     1.0  0.83851  0.97722  0.49043  1.0000
  C   C5888     1.0  0.80655  0.83643  0.54417  1.0000
  C   C5889     1.0  0.79612  0.83081  0.53974  1.0000
  C   C5890     1.0  0.78030  0.83772  0.54269  1.0000
  H   H5884     1.0  0.49209  0.90409  0.52418  1.0000
  C   C5891     1.0  0.77494  0.85001  0.55038  1.0000
  S   S1979     1.0  0.68314  0.80362  0.56339  1.0000
  H   H5885     1.0  0.80033  0.82125  0.53393  1.0000
  C   C5892     1.0  0.83269  0.96328  0.53722  1.0000
  H   H5886     1.0  0.70369  0.77650  0.39243  1.0000
  C   C5893     1.0  0.81853  0.94260  0.54528  1.0000
  H   H5887     1.0  0.49180  0.95940  0.37348  1.0000
  C   C5894     1.0  0.82440  0.73209  0.56189  1.0000
  C   C5895     1.0  0.82108  0.95688  0.53583  1.0000
  H   H5888     1.0  0.49262  0.95745  0.40458  1.0000
  C   C5896     1.0  0.70926  0.78953  0.50571  1.0000
  H   H5889     1.0  0.76941  0.87833  0.51729  1.0000
  H   H5890     1.0  0.61100  0.74634  0.50144  1.0000
  C   C5897     1.0  0.56251  0.74352  0.43833  1.0000
  C   C5898     1.0  0.56621  0.74930  0.44904  1.0000
  C   C5899     1.0  0.56843  0.73973  0.46324  1.0000
  C   C5900     1.0  0.58643  0.76643  0.52769  1.0000
  H   H5891     1.0  0.49094  0.90888  0.38958  1.0000
  H   H5892     1.0  0.56106  0.75092  0.42726  1.0000
  H   H5893     1.0  0.56748  0.76110  0.44620  1.0000
  H   H5894     1.0  0.71853  0.78173  0.49957  1.0000
  H   H5895     1.0  0.71686  0.82208  0.52182  1.0000
  C   C5901     1.0  0.80858  0.96072  0.38550  1.0000
  C   C5902     1.0  0.70049  0.78896  0.39298  1.0000
  N   N489      1.0  0.79191  0.86441  0.51058  1.0000
  H   H5896     1.0  0.52732  0.85043  0.43747  1.0000
  C   C5903     1.0  0.80737  0.86151  0.51037  1.0000
  C   C5904     1.0  0.78644  0.85505  0.50361  1.0000
  C   C5905     1.0  0.81282  0.78390  0.44196  1.0000
  H   H5897     1.0  0.81541  0.85199  0.50565  1.0000
  H   H5898     1.0  0.79196  0.84257  0.50698  1.0000
  H   H5899     1.0  0.77373  0.85588  0.50773  1.0000
  H   H5900     1.0  0.78918  0.85881  0.49087  1.0000
  H   H5901     1.0  0.80462  0.76390  0.44288  1.0000
  C   C5906     1.0  0.73453  0.78813  0.40805  1.0000
  H   H5902     1.0  0.84913  0.92415  0.52749  1.0000
  N   N490      1.0  0.71340  0.79368  0.39547  1.0000
  H   H5903     1.0  0.60610  0.81914  0.41442  1.0000
  C   C5907     1.0  0.59631  0.76369  0.53768  1.0000
  H   H5904     1.0  0.87195  0.93004  0.53222  1.0000
  C   C5908     1.0  0.87266  0.94978  0.51319  1.0000
  C   C5909     1.0  0.81342  0.74619  0.56119  1.0000
  N   N491      1.0  0.78890  0.73126  0.55112  1.0000
  H   H5905     1.0  0.69014  0.79091  0.40244  1.0000
  H   H5906     1.0  0.86983  0.96931  0.49429  1.0000
  H   H5907     1.0  0.69740  0.79551  0.38181  1.0000
  H   H5908     1.0  0.78895  0.75123  0.53263  1.0000
  C   C5910     1.0  0.54692  0.86115  0.46686  1.0000
  C   C5911     1.0  0.58990  0.81313  0.40542  1.0000
  H   H5909     1.0  0.54460  0.86831  0.45594  1.0000
  C   C5912     1.0  0.72238  0.78372  0.40524  1.0000
  C   C5913     1.0  0.59172  0.76012  0.51462  1.0000
  C   C5914     1.0  0.60675  0.75112  0.51170  1.0000
  C   C5915     1.0  0.79991  0.73055  0.37832  1.0000
  C   C5916     1.0  0.58742  0.80965  0.39270  1.0000
  C   C5917     1.0  0.69423  0.78698  0.51052  1.0000
  C   C5918     1.0  0.82729  0.93499  0.55643  1.0000
  C   C5919     1.0  0.81209  0.75636  0.54697  1.0000
  H   H5910     1.0  0.70176  0.83512  0.51251  1.0000
  H   H5911     1.0  0.71365  0.80927  0.55619  1.0000
  C   C5920     1.0  0.73737  0.80283  0.40091  1.0000
  C   C5921     1.0  0.48926  0.94723  0.40340  1.0000
  H   H5912     1.0  0.57107  0.82808  0.48106  1.0000
  H   H5913     1.0  0.53053  0.88908  0.47853  1.0000
  C   C5922     1.0  0.84523  0.96633  0.48666  1.0000
  C   C5923     1.0  0.60382  0.81697  0.40442  1.0000
  C   C5924     1.0  0.61502  0.81743  0.39060  1.0000
  S   S1980     1.0  0.85751  0.96204  0.54915  1.0000
  C   C5925     1.0  0.51082  0.92700  0.39378  1.0000
  S   S1981     1.0  0.64590  0.80803  0.54953  1.0000
  Fe  Fe995     1.0  0.80585  0.87744  0.56661  1.0000
  C   C5926     1.0  0.70113  0.79338  0.55464  1.0000
  H   H5914     1.0  0.81664  0.95140  0.39123  1.0000
  H   H5915     1.0  0.81855  0.80485  0.47221  1.0000
  C   C5927     1.0  0.62109  0.75195  0.54548  1.0000
  S   S1982     1.0  0.80514  0.93385  0.54243  1.0000
  N   N492      1.0  0.50029  0.94068  0.39075  1.0000
  H   H5916     1.0  0.77589  0.75459  0.55026  1.0000
  H   H5917     1.0  0.78116  0.86521  0.56057  1.0000
  C   C5928     1.0  0.70220  0.78028  0.54924  1.0000
  H   H5918     1.0  0.74961  0.78435  0.37082  1.0000
  S   S1983     1.0  0.66168  0.77123  0.56310  1.0000
  C   C5929     1.0  0.80918  0.76950  0.44899  1.0000
  H   H5919     1.0  0.67090  0.79486  0.52271  1.0000
  S   S1984     1.0  0.49742  0.85821  0.48870  1.0000
  H   H5920     1.0  0.69755  0.82631  0.53290  1.0000
  H   H5921     1.0  0.63357  0.74927  0.53972  1.0000
  Fe  Fe996     1.0  0.64402  0.78445  0.54897  1.0000
  C   C5930     1.0  0.86546  0.95920  0.50131  1.0000
  H   H5922     1.0  0.55473  0.83468  0.50553  1.0000
  C   C5931     1.0  0.61632  0.74861  0.52193  1.0000
  C   C5932     1.0  0.78084  0.74598  0.54283  1.0000
  H   H5923     1.0  0.74678  0.80634  0.40298  1.0000
  C   C5933     1.0  0.84177  0.95540  0.54807  1.0000
  N   N493      1.0  0.61248  0.81404  0.37816  1.0000
  H   H5924     1.0  0.60494  0.73566  0.44723  1.0000
  C   C5934     1.0  0.59889  0.81020  0.37906  1.0000
  C   C5935     1.0  0.86690  0.93698  0.52253  1.0000
  H   H5925     1.0  0.73061  0.82420  0.38499  1.0000
  S   S1985     1.0  0.78617  0.89737  0.56111  1.0000
  H   H5926     1.0  0.59695  0.80732  0.36926  1.0000
  H   H5927     1.0  0.61357  0.86137  0.56232  1.0000
  H   H5928     1.0  0.84052  0.73550  0.52357  1.0000
  C   C5936     1.0  0.79981  0.95753  0.37715  1.0000
  H   H5929     1.0  0.83678  0.94111  0.50644  1.0000
  C   C5937     1.0  0.50011  0.94854  0.37589  1.0000
  H   H5930     1.0  0.52915  0.90949  0.38416  1.0000
  C   C5938     1.0  0.83424  0.72829  0.54831  1.0000
  H   H5931     1.0  0.62804  0.74173  0.51950  1.0000
  H   H5932     1.0  0.85393  0.96922  0.47586  1.0000
  H   H5933     1.0  0.61933  0.76237  0.55013  1.0000
  S   S1986     1.0  0.63324  0.77513  0.36713  1.0000
  C   C5939     1.0  0.56109  0.72812  0.44176  1.0000
  S   S1987     1.0  0.82232  0.89240  0.56424  1.0000
  C   C5940     1.0  0.80752  0.97611  0.38575  1.0000
  S   S1988     1.0  0.48627  0.90490  0.42222  1.0000
  H   H5934     1.0  0.54042  0.97029  0.58396  1.0000
  H   H5935     1.0  0.86727  0.75420  0.68454  1.0000
  S   S1989     1.0  0.79340  0.91295  0.58560  1.0000
  S   S1990     1.0  0.79788  0.87501  0.59216  1.0000
  Fe  Fe997     1.0  0.77939  0.89621  0.58666  1.0000
  S   S1991     1.0  0.75524  0.89581  0.60135  1.0000
  Fe  Fe998     1.0  0.81239  0.89186  0.58934  1.0000
  S   S1992     1.0  0.82516  0.89106  0.60704  1.0000
  Fe  Fe999     1.0  0.70008  0.94223  0.65912  1.0000
  H   H5936     1.0  0.52061  0.83044  0.70467  1.0000
  S   S1993     1.0  0.72541  0.94048  0.64808  1.0000
  Fe  Fe1000    1.0  0.67730  0.93234  0.68856  1.0000
  S   S1994     1.0  0.65658  0.94671  0.67913  1.0000
  S   S1995     1.0  0.67402  0.91722  0.71243  1.0000
  Fe  Fe1001    1.0  0.66913  0.93816  0.65752  1.0000
  S   S1996     1.0  0.66009  0.92973  0.64176  1.0000
  S   S1997     1.0  0.68870  0.92201  0.66781  1.0000
  S   S1998     1.0  0.69040  0.95131  0.68076  1.0000
  Fe  Fe1002    1.0  0.58651  0.89956  0.65283  1.0000
  S   S1999     1.0  0.58763  0.87404  0.66111  1.0000
  S   S2000     1.0  0.59451  0.91153  0.66642  1.0000
  Fe  Fe1003    1.0  0.56954  0.90245  0.62795  1.0000
  S   S2001     1.0  0.56911  0.87723  0.63420  1.0000
  S   S2002     1.0  0.56088  0.91782  0.60708  1.0000
  Fe  Fe1004    1.0  0.56300  0.87990  0.65867  1.0000
  S   S2003     1.0  0.54340  0.87048  0.67617  1.0000
  Fe  Fe1005    1.0  0.59369  0.87346  0.63606  1.0000
  S   S2004     1.0  0.61368  0.85549  0.62674  1.0000
  S   S2005     1.0  0.56122  0.90563  0.65227  1.0000
  S   S2006     1.0  0.59476  0.89856  0.62789  1.0000
  H   H5937     1.0  0.95402  0.95981  0.69068  1.0000
  H   H5938     1.0  0.55516  0.78183  0.71591  1.0000
  S   S2007     1.0  0.97916  0.97320  0.60950  1.0000
  S   S2008     1.0  0.56040  0.82659  0.73752  1.0000
  S   S2009     1.0  0.52242  0.81157  0.75028  1.0000
  Fe  Fe1006    1.0  0.85981  0.81724  0.69437  1.0000
  S   S2010     1.0  0.86712  0.80133  0.67796  1.0000
  S   S2011     1.0  0.84029  0.81482  0.71510  1.0000
  Fe  Fe1007    1.0  0.87982  0.83929  0.67378  1.0000
  S   S2012     1.0  0.88880  0.82549  0.65546  1.0000
  S   S2013     1.0  0.88553  0.86235  0.67049  1.0000
  Fe  Fe1008    1.0  0.86438  0.82309  0.65971  1.0000
  S   S2014     1.0  0.85421  0.82375  0.64009  1.0000
  Fe  Fe1009    1.0  0.89090  0.80494  0.67514  1.0000
  S   S2015     1.0  0.91205  0.78599  0.67108  1.0000
  S   S2016     1.0  0.85504  0.83882  0.67632  1.0000
  S   S2017     1.0  0.88394  0.81895  0.69338  1.0000
  H   H5939     1.0  0.84849  0.84691  0.74344  1.0000
  C   C5941     1.0  0.87575  0.75066  0.67466  1.0000
  H   H5940     1.0  0.61570  0.88513  0.59537  1.0000
  S   S2018     1.0  0.60624  0.82456  0.57713  1.0000
  C   C5942     1.0  0.87249  0.87275  0.60765  1.0000
  H   H5941     1.0  0.52663  0.94816  0.63131  1.0000
  S   S2019     1.0  0.64346  0.79461  0.58670  1.0000
  C   C5943     1.0  0.90863  0.76766  0.68084  1.0000
  C   C5944     1.0  0.89658  0.76600  0.69386  1.0000
  C   C5945     1.0  0.89383  0.75122  0.70138  1.0000
  H   H5942     1.0  0.69488  0.90072  0.61175  1.0000
  C   C5946     1.0  0.91483  0.73990  0.68257  1.0000
  C   C5947     1.0  0.91785  0.75460  0.67529  1.0000
  H   H5943     1.0  0.88948  0.77608  0.69822  1.0000
  H   H5944     1.0  0.88457  0.74993  0.71152  1.0000
  H   H5945     1.0  0.95942  0.94787  0.67670  1.0000
  H   H5946     1.0  0.92713  0.75592  0.66517  1.0000
  C   C5948     1.0  0.90286  0.86080  0.67587  1.0000
  C   C5949     1.0  0.90689  0.87418  0.67650  1.0000
  C   C5950     1.0  0.92015  0.87298  0.68181  1.0000
  C   C5951     1.0  0.92933  0.85838  0.68660  1.0000
  C   C5952     1.0  0.92536  0.84504  0.68584  1.0000
  C   C5953     1.0  0.91222  0.84624  0.68039  1.0000
  H   H5947     1.0  0.89965  0.88547  0.67308  1.0000
  H   H5948     1.0  0.93248  0.83373  0.68946  1.0000
  H   H5949     1.0  0.90932  0.83587  0.67979  1.0000
  C   C5954     1.0  0.61131  0.84728  0.61283  1.0000
  C   C5955     1.0  0.62445  0.83915  0.60410  1.0000
  C   C5956     1.0  0.62294  0.83225  0.59305  1.0000
  C   C5957     1.0  0.60826  0.83318  0.59089  1.0000
  C   C5958     1.0  0.59509  0.84125  0.59965  1.0000
  C   C5959     1.0  0.59661  0.84833  0.61060  1.0000
  H   H5950     1.0  0.63585  0.83833  0.60577  1.0000
  H   H5951     1.0  0.88967  0.84562  0.60384  1.0000
  H   H5952     1.0  0.58370  0.84201  0.59799  1.0000
  H   H5953     1.0  0.58641  0.85436  0.61743  1.0000
  C   C5960     1.0  0.54813  0.85693  0.69265  1.0000
  C   C5961     1.0  0.53628  0.85362  0.70554  1.0000
  C   C5962     1.0  0.53988  0.84382  0.71927  1.0000
  C   C5963     1.0  0.55538  0.83728  0.72008  1.0000
  C   C5964     1.0  0.56717  0.84011  0.70702  1.0000
  C   C5965     1.0  0.56355  0.84992  0.69333  1.0000
  H   H5954     1.0  0.52431  0.85904  0.70506  1.0000
  H   H5955     1.0  0.53073  0.84179  0.72936  1.0000
  H   H5956     1.0  0.57916  0.83500  0.70760  1.0000
  H   H5957     1.0  0.57273  0.85210  0.68338  1.0000
  C   C5966     1.0  0.54095  0.92031  0.60849  1.0000
  C   C5967     1.0  0.53114  0.91581  0.62264  1.0000
  C   C5968     1.0  0.51505  0.91928  0.62385  1.0000
  C   C5969     1.0  0.50874  0.92702  0.61090  1.0000
  C   C5970     1.0  0.51865  0.93092  0.59661  1.0000
  C   C5971     1.0  0.53473  0.92765  0.59543  1.0000
  H   H5958     1.0  0.53586  0.91008  0.63275  1.0000
  H   H5959     1.0  0.50743  0.91623  0.63493  1.0000
  H   H5960     1.0  0.51391  0.93687  0.58658  1.0000
  H   H5961     1.0  0.54230  0.93111  0.58446  1.0000
  C   C5972     1.0  0.64197  0.92445  0.64885  1.0000
  C   C5973     1.0  0.63280  0.92675  0.66321  1.0000
  C   C5974     1.0  0.61828  0.92272  0.66846  1.0000
  C   C5975     1.0  0.61289  0.91625  0.65947  1.0000
  C   C5976     1.0  0.62213  0.91378  0.64518  1.0000
  C   C5977     1.0  0.63661  0.91794  0.63986  1.0000
  H   H5962     1.0  0.63679  0.93175  0.67022  1.0000
  H   H5963     1.0  0.61119  0.92466  0.67952  1.0000
  H   H5964     1.0  0.61810  0.90878  0.63818  1.0000
  H   H5965     1.0  0.64364  0.91612  0.62875  1.0000
  C   C5978     1.0  0.68273  0.92025  0.72561  1.0000
  C   C5979     1.0  0.69200  0.93111  0.72122  1.0000
  C   C5980     1.0  0.69903  0.93319  0.73185  1.0000
  C   C5981     1.0  0.69660  0.92460  0.74700  1.0000
  C   C5982     1.0  0.68730  0.91376  0.75148  1.0000
  C   C5983     1.0  0.68048  0.91149  0.74074  1.0000
  H   H5966     1.0  0.69396  0.93778  0.70964  1.0000
  H   H5967     1.0  0.70629  0.94154  0.72835  1.0000
  H   H5968     1.0  0.64149  0.74525  0.57491  1.0000
  H   H5969     1.0  0.67335  0.90302  0.74420  1.0000
  C   C5984     1.0  0.83315  0.87229  0.61604  1.0000
  C   C5985     1.0  0.83422  0.85952  0.61015  1.0000
  C   C5986     1.0  0.84072  0.84457  0.61760  1.0000
  C   C5987     1.0  0.84619  0.84245  0.63087  1.0000
  C   C5988     1.0  0.84513  0.85525  0.63670  1.0000
  C   C5989     1.0  0.83849  0.87014  0.62938  1.0000
  H   H5970     1.0  0.83015  0.86114  0.59981  1.0000
  H   H5971     1.0  0.84156  0.83467  0.61304  1.0000
  H   H5972     1.0  0.84942  0.85373  0.64684  1.0000
  H   H5973     1.0  0.83755  0.88002  0.63401  1.0000
  C   C5990     1.0  0.74772  0.90757  0.61502  1.0000
  C   C5991     1.0  0.75460  0.91947  0.61457  1.0000
  C   C5992     1.0  0.74787  0.92925  0.62504  1.0000
  C   C5993     1.0  0.73403  0.92740  0.63580  1.0000
  C   C5994     1.0  0.72721  0.91540  0.63638  1.0000
  C   C5995     1.0  0.73411  0.90544  0.62608  1.0000
  H   H5974     1.0  0.76489  0.92144  0.60595  1.0000
  H   H5975     1.0  0.75318  0.93854  0.62452  1.0000
  H   H5976     1.0  0.71660  0.91381  0.64467  1.0000
  H   H5977     1.0  0.72871  0.89625  0.62649  1.0000
  H   H5978     1.0  0.94467  0.73841  0.68832  1.0000
  C   C5996     1.0  0.95231  0.96893  0.63086  1.0000
  C   C5997     1.0  0.83178  0.82044  0.74389  1.0000
  C   C5998     1.0  0.84411  0.81516  0.73243  1.0000
  C   C5999     1.0  0.85910  0.80977  0.73516  1.0000
  C   C6000     1.0  0.86161  0.80923  0.74958  1.0000
  H   H5979     1.0  0.59158  0.79053  0.61718  1.0000
  H   H5980     1.0  0.82020  0.82473  0.74175  1.0000
  H   H5981     1.0  0.86864  0.80557  0.72637  1.0000
  H   H5982     1.0  0.87314  0.80473  0.75184  1.0000
  H   H5983     1.0  0.53685  0.90447  0.70613  1.0000
  H   H5984     1.0  0.65943  0.93478  0.76255  1.0000
  H   H5985     1.0  0.88558  0.85076  0.70408  1.0000
  N   N494      1.0  0.86595  0.84956  0.72274  1.0000
  H   H5986     1.0  0.85513  0.84115  0.71036  1.0000
  H   H5987     1.0  0.89884  0.84201  0.61958  1.0000
  N   N495      1.0  0.70166  0.92174  0.61014  1.0000
  S   S2020     1.0  0.68140  0.95788  0.64727  1.0000
  H   H5988     1.0  0.98158  0.84672  0.68470  1.0000
  H   H5989     1.0  0.59551  0.86361  0.71608  1.0000
  C   C6001     1.0  0.88662  0.84297  0.74177  1.0000
  H   H5990     1.0  0.63227  0.77902  0.61998  1.0000
  C   C6002     1.0  0.66685  0.95903  0.74186  1.0000
  S   S2021     1.0  0.96408  0.89127  0.66927  1.0000
  H   H5991     1.0  0.87057  0.86906  0.59831  1.0000
  H   H5992     1.0  0.97488  0.74100  0.66879  1.0000
  H   H5993     1.0  0.73498  0.92572  0.58377  1.0000
  C   C6003     1.0  0.87089  0.84345  0.74814  1.0000
  H   H5994     1.0  0.93132  0.96522  0.64750  1.0000
  H   H5995     1.0  0.85868  0.89587  0.60163  1.0000
  H   H5996     1.0  0.94414  0.93963  0.61747  1.0000
  C   C6004     1.0  0.94993  0.94503  0.64986  1.0000
  H   H5997     1.0  0.60951  0.77665  0.61373  1.0000
  C   C6005     1.0  0.59176  0.87410  0.57352  1.0000
  C   C6006     1.0  0.95212  0.72753  0.69260  1.0000
  C   C6007     1.0  0.86736  0.89260  0.62193  1.0000
  H   H5998     1.0  0.96918  0.89867  0.75999  1.0000
  C   C6008     1.0  0.56757  0.88833  0.58755  1.0000
  S   S2022     1.0  0.94562  0.85643  0.69387  1.0000
  C   C6009     1.0  0.83437  0.78174  0.76065  1.0000
  H   H5999     1.0  0.58724  0.89437  0.60011  1.0000
  Fe  Fe1010    1.0  0.95831  0.89898  0.71003  1.0000
  Fe  Fe1011    1.0  0.95136  0.91265  0.67842  1.0000
  C   C6010     1.0  0.56970  0.88932  0.69608  1.0000
  H   H6000     1.0  0.96626  0.94724  0.59677  1.0000
  Fe  Fe1012    1.0  0.62708  0.80582  0.57093  1.0000
  N   N496      1.0  0.51624  0.97088  0.59234  1.0000
  H   H6001     1.0  0.71859  0.91800  0.67748  1.0000
  H   H6002     1.0  0.74196  0.89320  0.73342  1.0000
  C   C6011     1.0  0.91027  0.73622  0.63704  1.0000
  C   C6012     1.0  0.89481  0.75647  0.65126  1.0000
  H   H6003     1.0  0.92316  0.88333  0.68238  1.0000
  S   S2023     1.0  0.93807  0.90013  0.70040  1.0000
  S   S2024     1.0  0.95693  0.90106  0.73409  1.0000
  C   C6013     1.0  0.86570  0.88795  0.60948  1.0000
  C   C6014     1.0  0.97837  0.91945  0.72349  1.0000
  H   H6004     1.0  0.97886  0.95875  0.65774  1.0000
  C   C6015     1.0  0.54359  0.75354  0.76339  1.0000
  N   N497      1.0  0.89835  0.74135  0.64996  1.0000
  C   C6016     1.0  0.53272  0.80738  0.71386  1.0000
  H   H6005     1.0  0.98553  0.84546  0.66482  1.0000
  H   H6006     1.0  0.56285  0.88694  0.60019  1.0000
  H   H6007     1.0  0.87696  0.88541  0.64225  1.0000
  C   C6017     1.0  0.89075  0.73083  0.66067  1.0000
  H   H6008     1.0  0.51592  0.77833  0.73638  1.0000
  C   C6018     1.0  0.65835  0.96318  0.71429  1.0000
  C   C6019     1.0  0.72109  0.91473  0.68886  1.0000
  C   C6020     1.0  0.97441  0.94728  0.63180  1.0000
  C   C6021     1.0  0.84919  0.81429  0.76114  1.0000
  H   H6009     1.0  0.55770  0.76870  0.76321  1.0000
  C   C6022     1.0  0.50828  0.95901  0.61902  1.0000
  H   H6010     1.0  0.77507  0.73446  0.57319  1.0000
  N   N498      1.0  0.88092  0.86256  0.61779  1.0000
  H   H6011     1.0  0.88883  0.85885  0.63839  1.0000
  N   N499      1.0  0.58450  0.88298  0.58424  1.0000
  H   H6012     1.0  0.54860  0.78378  0.73574  1.0000
  H   H6013     1.0  0.89469  0.84034  0.74921  1.0000
  H   H6014     1.0  0.64593  0.94525  0.72641  1.0000
  C   C6023     1.0  0.73077  0.92197  0.69224  1.0000
  C   C6024     1.0  0.88247  0.86699  0.63011  1.0000
  H   H6015     1.0  0.73071  0.94863  0.59490  1.0000
  H   H6016     1.0  0.48720  0.80430  0.76616  1.0000
  H   H6017     1.0  0.86666  0.84096  0.76057  1.0000
  H   H6018     1.0  0.67926  0.91756  0.61376  1.0000
  C   C6025     1.0  0.51704  0.78961  0.72906  1.0000
  Fe  Fe1013    1.0  0.67057  0.96507  0.66983  1.0000
  S   S2025     1.0  0.93843  0.93460  0.66537  1.0000
  C   C6026     1.0  0.95512  0.95535  0.59836  1.0000
  H   H6019     1.0  0.63320  0.82655  0.58596  1.0000
  H   H6020     1.0  0.96308  0.97385  0.58046  1.0000
  H   H6021     1.0  0.66397  0.73035  0.62003  1.0000
  Fe  Fe1014    1.0  0.95227  0.87870  0.69202  1.0000
  C   C6027     1.0  0.94336  0.96020  0.64316  1.0000
  C   C6028     1.0  0.65135  0.93939  0.75456  1.0000
  H   H6022     1.0  0.92183  0.72996  0.67807  1.0000
  H   H6023     1.0  0.73201  0.91230  0.73696  1.0000
  C   C6029     1.0  0.97482  0.90637  0.75034  1.0000
  C   C6030     1.0  0.96783  0.96250  0.62510  1.0000
  C   C6031     1.0  0.71422  0.91872  0.59845  1.0000
  H   H6024     1.0  0.84324  0.85766  0.71803  1.0000
  S   S2026     1.0  0.97060  0.91300  0.68862  1.0000
  H   H6025     1.0  0.53275  0.88651  0.70552  1.0000
  C   C6032     1.0  0.96550  0.93858  0.64427  1.0000
  H   H6026     1.0  0.56185  0.88169  0.58334  1.0000
  C   C6033     1.0  0.57098  0.73033  0.76295  1.0000
  C   C6034     1.0  0.53131  0.96720  0.59377  1.0000
  H   H6027     1.0  0.65492  0.96476  0.70356  1.0000
  C   C6035     1.0  0.97082  0.90974  0.73607  1.0000
  C   C6036     1.0  0.55746  0.75710  0.76312  1.0000
  C   C6037     1.0  0.88342  0.76136  0.66357  1.0000
  C   C6038     1.0  0.60433  0.78922  0.61313  1.0000
  H   H6028     1.0  0.68912  0.93682  0.62539  1.0000
  H   H6029     1.0  0.80590  0.74923  0.57170  1.0000
  H   H6030     1.0  0.91618  0.74556  0.62962  1.0000
  H   H6031     1.0  0.54404  0.81023  0.70925  1.0000
  H   H6032     1.0  0.91927  0.95869  0.62172  1.0000
  C   C6039     1.0  0.71790  0.89937  0.71485  1.0000
  C   C6040     1.0  0.92869  0.96199  0.61237  1.0000
  Fe  Fe1015    1.0  0.54090  0.81868  0.75620  1.0000
  H   H6033     1.0  0.74130  0.92345  0.70961  1.0000
  H   H6034     1.0  0.58510  0.87057  0.56765  1.0000
  C   C6041     1.0  0.73383  0.91771  0.70702  1.0000
  H   H6035     1.0  0.71251  0.89077  0.72369  1.0000
  H   H6036     1.0  0.67053  0.73298  0.59174  1.0000
  C   C6042     1.0  0.50476  0.96700  0.60476  1.0000
  N   N500      1.0  0.78845  0.87287  0.63258  1.0000
  C   C6043     1.0  0.80029  0.86542  0.64002  1.0000
  C   C6044     1.0  0.78053  0.86455  0.62863  1.0000
  C   C6045     1.0  0.80498  0.84923  0.64301  1.0000
  C   C6046     1.0  0.78501  0.84836  0.63129  1.0000
  C   C6047     1.0  0.79741  0.84069  0.63842  1.0000
  C   C6048     1.0  0.78393  0.88984  0.62914  1.0000
  H   H6037     1.0  0.80644  0.87199  0.64333  1.0000
  H   H6038     1.0  0.77099  0.87048  0.62291  1.0000
  H   H6039     1.0  0.81468  0.84337  0.64852  1.0000
  H   H6040     1.0  0.77906  0.84186  0.62761  1.0000
  H   H6041     1.0  0.80123  0.82816  0.64032  1.0000
  H   H6042     1.0  0.77369  0.89387  0.63793  1.0000
  H   H6043     1.0  0.79360  0.89513  0.62861  1.0000
  H   H6044     1.0  0.78098  0.89421  0.61764  1.0000
  N   N501      1.0  0.61061  0.79543  0.62247  1.0000
  C   C6049     1.0  0.60201  0.80820  0.62814  1.0000
  C   C6050     1.0  0.62537  0.78905  0.62465  1.0000
  C   C6051     1.0  0.60807  0.81476  0.63646  1.0000
  C   C6052     1.0  0.63192  0.79554  0.63259  1.0000
  C   C6053     1.0  0.62320  0.80851  0.63848  1.0000
  N   N502      1.0  0.72732  0.90662  0.71812  1.0000
  H   H6045     1.0  0.59051  0.81360  0.62599  1.0000
  C   C6054     1.0  0.71455  0.90340  0.70022  1.0000
  H   H6046     1.0  0.60133  0.82503  0.64077  1.0000
  H   H6047     1.0  0.64376  0.79067  0.63396  1.0000
  H   H6048     1.0  0.62819  0.81394  0.64437  1.0000
  C   C6055     1.0  0.50358  0.80093  0.72688  1.0000
  C   C6056     1.0  0.51950  0.81892  0.71136  1.0000
  C   C6057     1.0  0.57111  0.74550  0.76298  1.0000
  H   H6049     1.0  0.97063  0.92684  0.64944  1.0000
  H   H6050     1.0  0.64003  0.94527  0.76080  1.0000
  C   C6058     1.0  0.88138  0.84888  0.71643  1.0000
  C   C6059     1.0  0.89194  0.84573  0.72580  1.0000
  N   N503      1.0  0.53137  0.79292  0.72257  1.0000
  C   C6060     1.0  0.58400  0.88154  0.69981  1.0000
  Fe  Fe1016    1.0  0.64137  0.77234  0.58314  1.0000
  H   H6051     1.0  0.71652  0.90847  0.59386  1.0000
  H   H6052     1.0  0.90416  0.84535  0.72065  1.0000
  H   H6053     1.0  0.67035  0.95741  0.75258  1.0000
  C   C6061     1.0  0.86065  0.84681  0.73838  1.0000
  S   S2027     1.0  0.63702  0.75351  0.60406  1.0000
  C   C6062     1.0  0.53527  0.95904  0.60782  1.0000
  S   S2028     1.0  0.48848  0.93319  0.61334  1.0000
  C   C6063     1.0  0.87944  0.73528  0.67324  1.0000
  C   C6064     1.0  0.54139  0.89394  0.70123  1.0000
  H   H6054     1.0  0.70657  0.89807  0.69786  1.0000
  C   C6065     1.0  0.72232  0.94133  0.59889  1.0000
  C   C6066     1.0  0.59297  0.88725  0.59171  1.0000
  C   C6067     1.0  0.85525  0.85232  0.71267  1.0000
  C   C6068     1.0  0.70941  0.94439  0.61070  1.0000
  H   H6055     1.0  0.86189  0.90427  0.62364  1.0000
  C   C6069     1.0  0.54531  0.78143  0.72607  1.0000
  S   S2029     1.0  0.49067  0.95287  0.56857  1.0000
  H   H6056     1.0  0.94020  0.95918  0.68035  1.0000
  C   C6070     1.0  0.72469  0.92851  0.59260  1.0000
  H   H6057     1.0  0.54270  0.89739  0.68850  1.0000
  C   C6071     1.0  0.54354  0.73846  0.76294  1.0000
  H   H6058     1.0  0.70766  0.95410  0.61594  1.0000
  C   C6072     1.0  0.95336  0.97033  0.58924  1.0000
  N   N504      1.0  0.55626  0.88549  0.70528  1.0000
  C   C6073     1.0  0.55658  0.87435  0.71859  1.0000
  C   C6074     1.0  0.60911  0.88225  0.58890  1.0000
  C   C6075     1.0  0.57069  0.86631  0.72268  1.0000
  C   C6076     1.0  0.87576  0.88206  0.63235  1.0000
  C   C6077     1.0  0.58448  0.86989  0.71316  1.0000
  C   C6078     1.0  0.88756  0.84653  0.61599  1.0000
  H   H6059     1.0  0.54594  0.87130  0.72594  1.0000
  H   H6060     1.0  0.56943  0.89837  0.68569  1.0000
  H   H6061     1.0  0.57091  0.85707  0.73296  1.0000
  H   H6062     1.0  0.72154  0.89739  0.74240  1.0000
  H   H6063     1.0  0.60689  0.79551  0.60091  1.0000
  H   H6064     1.0  0.58177  0.74826  0.76302  1.0000
  C   C6079     1.0  0.83436  0.82020  0.75815  1.0000
  C   C6080     1.0  0.69907  0.93448  0.61613  1.0000
  H   H6065     1.0  0.83934  0.78385  0.74836  1.0000
  H   H6066     1.0  0.54731  0.95551  0.60877  1.0000
  H   H6067     1.0  0.59463  0.88453  0.69232  1.0000
  S   S2030     1.0  0.97106  0.87622  0.70401  1.0000
  H   H6068     1.0  0.49285  0.96960  0.60363  1.0000
  H   H6069     1.0  0.49224  0.79839  0.73239  1.0000
  C   C6081     1.0  0.73095  0.90210  0.73342  1.0000
  Fe  Fe1017    1.0  0.98202  0.89021  0.68189  1.0000
  H   H6070     1.0  0.85884  0.86024  0.70147  1.0000
  H   H6071     1.0  0.97508  0.92248  0.71259  1.0000
  C   C6082     1.0  0.69078  0.91140  0.61642  1.0000
  H   H6072     1.0  0.87949  0.83901  0.62321  1.0000
  S   S2031     1.0  0.70584  0.92714  0.75992  1.0000
  C   C6083     1.0  0.61660  0.87302  0.57816  1.0000
  H   H6073     1.0  0.88092  0.77327  0.66474  1.0000
  C   C6084     1.0  0.50484  0.81568  0.71802  1.0000
  C   C6085     1.0  0.90286  0.73817  0.69566  1.0000
  H   H6074     1.0  0.53285  0.73565  0.76306  1.0000
  C   C6086     1.0  0.60791  0.86896  0.57034  1.0000
  C   C6087     1.0  0.52365  0.95493  0.62050  1.0000
  C   C6088     1.0  0.67231  0.96996  0.72904  1.0000
  H   H6075     1.0  0.90093  0.76484  0.64293  1.0000
  H   H6076     1.0  0.54332  0.76944  0.72963  1.0000
  C   C6089     1.0  0.94271  0.95109  0.60997  1.0000
  H   H6077     1.0  0.68917  0.90780  0.62917  1.0000
  C   C6090     1.0  0.66797  0.97206  0.71519  1.0000
  C   C6091     1.0  0.97438  0.73969  0.68120  1.0000
  S   S2032     1.0  0.62355  0.78338  0.56890  1.0000
  C   C6092     1.0  0.65321  0.95227  0.72730  1.0000
  H   H6078     1.0  0.73575  0.93090  0.68344  1.0000
  H   H6079     1.0  0.67987  0.97674  0.72984  1.0000
  C   C6093     1.0  0.97125  0.97018  0.65732  1.0000
  H   H6080     1.0  0.49447  0.82466  0.71660  1.0000
  H   H6081     1.0  0.49922  0.95535  0.62863  1.0000
  N   N505      1.0  0.92707  0.97668  0.60335  1.0000
  N   N506      1.0  0.65751  0.95030  0.74084  1.0000
  H   H6082     1.0  0.56434  0.90084  0.58212  1.0000
  H   H6083     1.0  0.81110  0.78503  0.75798  1.0000
  H   H6084     1.0  0.64976  0.92922  0.75141  1.0000
  H   H6085     1.0  0.98464  0.87027  0.73642  1.0000
  H   H6086     1.0  0.68544  0.90703  0.76317  1.0000
  H   H6087     1.0  0.62907  0.86863  0.57624  1.0000
  H   H6088     1.0  0.96730  0.75052  0.68490  1.0000
  N   N507      1.0  0.95716  0.97227  0.66740  1.0000
  H   H6089     1.0  0.90495  0.73225  0.62985  1.0000
  C   C6094     1.0  0.81851  0.78242  0.76606  1.0000
  C   C6095     1.0  0.95251  0.95918  0.67940  1.0000
  C   C6096     1.0  0.63799  0.73588  0.58413  1.0000
  C   C6097     1.0  0.63458  0.73722  0.59947  1.0000
  S   S2033     1.0  0.52608  0.76753  0.76492  1.0000
  H   H6090     1.0  0.52179  0.97650  0.56772  1.0000
  H   H6091     1.0  0.50179  0.97701  0.57612  1.0000
  Fe  Fe1018    1.0  0.82992  0.81911  0.79640  1.0000
  S   S2034     1.0  0.80774  0.81371  0.79615  1.0000
  Fe  Fe1019    1.0  0.81539  0.83340  0.82416  1.0000
  S   S2035     1.0  0.79208  0.82903  0.82648  1.0000
  S   S2036     1.0  0.81743  0.84609  0.84070  1.0000
  Fe  Fe1020    1.0  0.80529  0.80576  0.82168  1.0000
  S   S2037     1.0  0.79551  0.78452  0.83322  1.0000
  Fe  Fe1021    1.0  0.79648  0.83738  0.80084  1.0000
  S   S2038     1.0  0.77939  0.85441  0.78751  1.0000
  S   S2039     1.0  0.82838  0.80931  0.82173  1.0000
  S   S2040     1.0  0.81896  0.84357  0.79880  1.0000
  Fe  Fe1022    1.0  0.88718  0.87290  0.84048  1.0000
  S   S2041     1.0  0.91188  0.87369  0.83779  1.0000
  S   S2042     1.0  0.88339  0.86210  0.82336  1.0000
  Fe  Fe1023    1.0  0.87568  0.89030  0.86622  1.0000
  S   S2043     1.0  0.89946  0.89227  0.86572  1.0000
  S   S2044     1.0  0.85700  0.90248  0.88300  1.0000
  Fe  Fe1024    1.0  0.90213  0.89823  0.84025  1.0000
  S   S2045     1.0  0.91190  0.91873  0.82620  1.0000
  Fe  Fe1025    1.0  0.90667  0.86759  0.86355  1.0000
  S   S2046     1.0  0.92432  0.85024  0.87574  1.0000
  S   S2047     1.0  0.87781  0.89809  0.84068  1.0000
  S   S2048     1.0  0.88255  0.86483  0.86626  1.0000
  S   S2049     1.0  0.91462  0.85051  0.94580  1.0000
  H   H6092     1.0  0.64101  0.73257  0.90249  1.0000
  S   S2050     1.0  0.56100  0.85883  0.95103  1.0000
  H   H6093     1.0  0.53808  0.87479  0.93220  1.0000
  Fe  Fe1026    1.0  0.50630  0.82258  0.76915  1.0000
  H   H6094     1.0  0.98004  0.96827  0.83983  1.0000
  S   S2051     1.0  0.70408  0.92047  0.80378  1.0000
  H   H6095     1.0  0.82630  0.91840  0.87358  1.0000
  Fe  Fe1027    1.0  0.66765  0.90555  0.80639  1.0000
  S   S2052     1.0  0.67447  0.90656  0.82744  1.0000
  S   S2053     1.0  0.64766  0.89612  0.80608  1.0000
  Fe  Fe1028    1.0  0.67919  0.92976  0.81418  1.0000
  S   S2054     1.0  0.67147  0.95106  0.82415  1.0000
  Fe  Fe1029    1.0  0.69855  0.89717  0.81516  1.0000
  S   S2055     1.0  0.71346  0.87702  0.82812  1.0000
  S   S2056     1.0  0.67011  0.92975  0.79408  1.0000
  S   S2057     1.0  0.69151  0.89444  0.79500  1.0000
  S   S2058     1.0  0.98418  0.90295  0.81751  1.0000
  N   N508      1.0  0.67621  0.95973  0.90113  1.0000
  C   C6098     1.0  0.91398  0.81515  0.90542  1.0000
  S   S2059     1.0  0.50911  0.80079  0.78738  1.0000
  S   S2060     1.0  0.85222  0.81267  0.77939  1.0000
  C   C6099     1.0  0.93379  0.90021  0.87384  1.0000
  Fe  Fe1030    1.0  0.52873  0.80886  0.79044  1.0000
  S   S2061     1.0  0.53216  0.80478  0.81451  1.0000
  C   C6100     1.0  0.96394  0.90812  0.82182  1.0000
  Fe  Fe1031    1.0  0.61145  0.83167  0.86241  1.0000
  S   S2062     1.0  0.59039  0.84598  0.85370  1.0000
  S   S2063     1.0  0.63094  0.84182  0.86251  1.0000
  Fe  Fe1032    1.0  0.59812  0.80298  0.87488  1.0000
  S   S2064     1.0  0.57569  0.81500  0.86741  1.0000
  S   S2065     1.0  0.60128  0.77803  0.88770  1.0000
  Fe  Fe1033    1.0  0.59097  0.82497  0.84554  1.0000
  S   S2066     1.0  0.58717  0.82876  0.82161  1.0000
  Fe  Fe1034    1.0  0.57701  0.83484  0.87624  1.0000
  S   S2067     1.0  0.55581  0.85057  0.88748  1.0000
  S   S2068     1.0  0.61344  0.81151  0.85229  1.0000
  S   S2069     1.0  0.59812  0.82195  0.88566  1.0000
  C   C6101     1.0  0.67539  0.95734  0.88747  1.0000
  H   H6096     1.0  0.75340  0.87867  0.78024  1.0000
  C   C6102     1.0  0.81223  0.77991  0.78188  1.0000
  C   C6103     1.0  0.62047  0.76840  0.88866  1.0000
  C   C6104     1.0  0.63237  0.77650  0.88380  1.0000
  C   C6105     1.0  0.64735  0.76878  0.88596  1.0000
  H   H6097     1.0  0.53652  0.87151  0.90690  1.0000
  H   H6098     1.0  0.62995  0.78877  0.87867  1.0000
  H   H6099     1.0  0.65648  0.77512  0.88243  1.0000
  C   C6106     1.0  0.55767  0.85560  0.93456  1.0000
  C   C6107     1.0  0.55590  0.85187  0.90604  1.0000
  C   C6108     1.0  0.54523  0.86364  0.91284  1.0000
  C   C6109     1.0  0.56789  0.84351  0.92803  1.0000
  C   C6110     1.0  0.56696  0.84162  0.91387  1.0000
  H   H6100     1.0  0.90766  0.93760  0.84812  1.0000
  H   H6101     1.0  0.57676  0.83572  0.93382  1.0000
  H   H6102     1.0  0.57484  0.83221  0.90905  1.0000
  C   C6111     1.0  0.54851  0.81016  0.81587  1.0000
  C   C6112     1.0  0.55651  0.81953  0.80335  1.0000
  C   C6113     1.0  0.56872  0.82477  0.80511  1.0000
  C   C6114     1.0  0.57299  0.82064  0.81935  1.0000
  C   C6115     1.0  0.56533  0.81081  0.83170  1.0000
  C   C6116     1.0  0.55311  0.80559  0.82995  1.0000
  H   H6103     1.0  0.55309  0.82301  0.79241  1.0000
  H   H6104     1.0  0.57470  0.83226  0.79548  1.0000
  H   H6105     1.0  0.56869  0.80735  0.84262  1.0000
  H   H6106     1.0  0.54703  0.79824  0.83964  1.0000
  H   H6107     1.0  0.95100  0.92276  0.78018  1.0000
  H   H6108     1.0  0.67327  0.97636  0.83548  1.0000
  H   H6109     1.0  0.55476  0.85307  0.85559  1.0000
  H   H6110     1.0  0.77105  0.97400  0.90432  1.0000
  H   H6111     1.0  0.56180  0.85699  0.81384  1.0000
  C   C6117     1.0  0.68414  0.95255  0.83448  1.0000
  S   S2070     1.0  0.54915  0.92963  0.96364  1.0000
  H   H6112     1.0  0.79989  0.78052  0.78627  1.0000
  H   H6113     1.0  0.73240  0.88937  0.84124  1.0000
  C   C6118     1.0  0.70566  0.94113  0.84727  1.0000
  C   C6119     1.0  0.69585  0.93986  0.83871  1.0000
  C   C6120     1.0  0.83148  0.94101  0.86333  1.0000
  H   H6114     1.0  0.58502  0.73064  0.79094  1.0000
  H   H6115     1.0  0.97075  0.90058  0.79032  1.0000
  H   H6116     1.0  0.69720  0.92901  0.83557  1.0000
  C   C6121     1.0  0.64202  0.88191  0.82235  1.0000
  C   C6122     1.0  0.64837  0.87835  0.83529  1.0000
  C   C6123     1.0  0.64446  0.86638  0.84780  1.0000
  C   C6124     1.0  0.63432  0.85776  0.84736  1.0000
  C   C6125     1.0  0.62782  0.86136  0.83450  1.0000
  C   C6126     1.0  0.63161  0.87348  0.82204  1.0000
  H   H6117     1.0  0.65638  0.88472  0.83567  1.0000
  H   H6118     1.0  0.64954  0.86363  0.85770  1.0000
  H   H6119     1.0  0.62015  0.85463  0.83397  1.0000
  H   H6120     1.0  0.62671  0.87614  0.81203  1.0000
  C   C6127     1.0  0.93173  0.91488  0.82538  1.0000
  C   C6128     1.0  0.93939  0.90026  0.83223  1.0000
  C   C6129     1.0  0.95551  0.89688  0.83047  1.0000
  C   C6130     1.0  0.82391  0.93034  0.87468  1.0000
  C   C6131     1.0  0.95616  0.92302  0.81576  1.0000
  C   C6132     1.0  0.94004  0.92640  0.81751  1.0000
  H   H6121     1.0  0.93299  0.89143  0.83864  1.0000
  H   H6122     1.0  0.96152  0.88538  0.83529  1.0000
  H   H6123     1.0  0.76192  0.74877  0.87728  1.0000
  H   H6124     1.0  0.93408  0.93779  0.81240  1.0000
  C   C6133     1.0  0.86035  0.92105  0.87994  1.0000
  C   C6134     1.0  0.85311  0.93017  0.89090  1.0000
  C   C6135     1.0  0.85564  0.94516  0.88816  1.0000
  H   H6125     1.0  0.78367  0.86290  0.84605  1.0000
  C   C6136     1.0  0.87242  0.94196  0.86349  1.0000
  C   C6137     1.0  0.86998  0.92702  0.86625  1.0000
  H   H6126     1.0  0.84560  0.92564  0.90149  1.0000
  H   H6127     1.0  0.85883  0.77646  0.79172  1.0000
  C   C6138     1.0  0.89069  0.83353  0.89833  1.0000
  H   H6128     1.0  0.87541  0.92026  0.85758  1.0000
  C   C6139     1.0  0.92208  0.85147  0.89480  1.0000
  C   C6140     1.0  0.90890  0.86088  0.90210  1.0000
  C   C6141     1.0  0.90687  0.86085  0.91770  1.0000
  C   C6142     1.0  0.91796  0.85136  0.92601  1.0000
  C   C6143     1.0  0.93130  0.84228  0.91858  1.0000
  C   C6144     1.0  0.93335  0.84233  0.90301  1.0000
  H   H6129     1.0  0.90013  0.86792  0.89583  1.0000
  H   H6130     1.0  0.89653  0.86791  0.92342  1.0000
  H   H6131     1.0  0.94004  0.83519  0.92482  1.0000
  H   H6132     1.0  0.94361  0.83512  0.89735  1.0000
  C   C6145     1.0  0.83579  0.85046  0.83594  1.0000
  C   C6146     1.0  0.84688  0.84604  0.82323  1.0000
  C   C6147     1.0  0.86147  0.84970  0.81940  1.0000
  C   C6148     1.0  0.86504  0.85769  0.82833  1.0000
  C   C6149     1.0  0.85397  0.86209  0.84107  1.0000
  C   C6150     1.0  0.83934  0.85849  0.84486  1.0000
  H   H6133     1.0  0.84425  0.83975  0.81636  1.0000
  H   H6134     1.0  0.87003  0.84625  0.80958  1.0000
  H   H6135     1.0  0.85666  0.86831  0.84797  1.0000
  H   H6136     1.0  0.83078  0.86190  0.85471  1.0000
  C   C6151     1.0  0.80857  0.76659  0.83649  1.0000
  C   C6152     1.0  0.80309  0.75307  0.83980  1.0000
  H   H6137     1.0  0.79116  0.75386  0.83975  1.0000
  H   H6138     1.0  0.66146  0.96212  0.87073  1.0000
  C   C6153     1.0  0.76061  0.85988  0.79846  1.0000
  C   C6154     1.0  0.75623  0.85210  0.81372  1.0000
  C   C6155     1.0  0.74164  0.85731  0.82270  1.0000
  C   C6156     1.0  0.73127  0.87022  0.81640  1.0000
  C   C6157     1.0  0.73542  0.87783  0.80102  1.0000
  C   C6158     1.0  0.75009  0.87263  0.79205  1.0000
  H   H6139     1.0  0.76401  0.84200  0.81860  1.0000
  H   H6140     1.0  0.73843  0.85133  0.83456  1.0000
  H   H6141     1.0  0.72745  0.88783  0.79609  1.0000
  H   H6142     1.0  0.77518  0.76074  0.86564  1.0000
  H   H6143     1.0  0.66401  0.96918  0.92088  1.0000
  C   C6159     1.0  0.76267  0.87840  0.83996  1.0000
  C   C6160     1.0  0.69063  0.95332  0.90669  1.0000
  H   H6144     1.0  0.96258  0.93186  0.80947  1.0000
  C   C6161     1.0  0.77440  0.74888  0.87260  1.0000
  C   C6162     1.0  0.64902  0.97225  0.89037  1.0000
  C   C6163     1.0  0.84709  0.77430  0.79761  1.0000
  H   H6145     1.0  0.69048  0.94156  0.91406  1.0000
  S   S2071     1.0  0.66880  0.74400  0.89717  1.0000
  H   H6146     1.0  0.90523  0.90117  0.80730  1.0000
  C   C6164     1.0  0.95906  0.89923  0.79169  1.0000
  C   C6165     1.0  0.54832  0.74129  0.80013  1.0000
  H   H6147     1.0  0.84758  0.96100  0.84571  1.0000
  N   N509      1.0  0.82915  0.95585  0.86503  1.0000
  H   H6148     1.0  0.88170  0.82724  0.89921  1.0000
  H   H6149     1.0  0.93660  0.87284  0.80787  1.0000
  N   N510      1.0  0.56255  0.74063  0.80245  1.0000
  N   N511      1.0  0.67563  0.85058  0.82075  1.0000
  C   C6166     1.0  0.66816  0.83927  0.83008  1.0000
  C   C6167     1.0  0.68592  0.85521  0.82573  1.0000
  C   C6168     1.0  0.67056  0.83263  0.84499  1.0000
  C   C6169     1.0  0.68857  0.84883  0.84058  1.0000
  C   C6170     1.0  0.68077  0.83752  0.85028  1.0000
  C   C6171     1.0  0.67309  0.85732  0.80511  1.0000
  H   H6150     1.0  0.65986  0.83570  0.82624  1.0000
  H   H6151     1.0  0.69202  0.86403  0.81832  1.0000
  H   H6152     1.0  0.66411  0.82412  0.85255  1.0000
  H   H6153     1.0  0.90282  0.94802  0.86333  1.0000
  H   H6154     1.0  0.66125  0.85722  0.80444  1.0000
  H   H6155     1.0  0.67388  0.86969  0.80156  1.0000
  H   H6156     1.0  0.68183  0.85079  0.79687  1.0000
  C   C6172     1.0  0.89485  0.82672  0.92459  1.0000
  C   C6173     1.0  0.90350  0.81845  0.93569  1.0000
  C   C6174     1.0  0.92288  0.80661  0.91626  1.0000
  C   C6175     1.0  0.91756  0.80826  0.93150  1.0000
  H   H6157     1.0  0.88396  0.83466  0.92794  1.0000
  H   H6158     1.0  0.89943  0.82013  0.94741  1.0000
  H   H6159     1.0  0.93392  0.79892  0.91284  1.0000
  H   H6160     1.0  0.92437  0.80175  0.94001  1.0000
  N   N512      1.0  0.91598  0.92464  0.86804  1.0000
  C   C6176     1.0  0.90551  0.92038  0.88130  1.0000
  C   C6177     1.0  0.92992  0.91474  0.86421  1.0000
  C   C6178     1.0  0.90907  0.90600  0.89131  1.0000
  H   H6161     1.0  0.68531  0.95069  0.88077  1.0000
  S   S2072     1.0  0.53116  0.90049  0.95538  1.0000
  C   C6179     1.0  0.53863  0.76640  0.80665  1.0000
  H   H6162     1.0  0.89424  0.92802  0.88412  1.0000
  C   C6180     1.0  0.55318  0.76568  0.80890  1.0000
  C   C6181     1.0  0.77819  0.73421  0.89825  1.0000
  C   C6182     1.0  0.91197  0.93948  0.85738  1.0000
  H   H6163     1.0  0.82913  0.97481  0.84577  1.0000
  H   H6164     1.0  0.66396  0.75272  0.92796  1.0000
  H   H6165     1.0  0.83915  0.72972  0.90414  1.0000
  C   C6183     1.0  0.66351  0.96764  0.90986  1.0000
  C   C6184     1.0  0.54763  0.84803  0.85167  1.0000
  H   H6166     1.0  0.87113  0.73635  0.87828  1.0000
  H   H6167     1.0  0.52932  0.77649  0.80825  1.0000
  C   C6185     1.0  0.70388  0.95512  0.85149  1.0000
  H   H6168     1.0  0.64685  0.73907  0.95014  1.0000
  H   H6169     1.0  0.78531  0.88104  0.79779  1.0000
  S   S2073     1.0  0.87971  0.73511  0.95017  1.0000
  H   H6170     1.0  0.52504  0.75490  0.79983  1.0000
  H   H6171     1.0  0.70091  0.95260  0.89690  1.0000
  H   H6172     1.0  0.55521  0.77526  0.81222  1.0000
  H   H6173     1.0  0.84134  0.97400  0.85837  1.0000
  N   N513      1.0  0.92890  0.89604  0.79597  1.0000
  H   H6174     1.0  0.60082  0.74402  0.94475  1.0000
  N   N514      1.0  0.83738  0.77682  0.78665  1.0000
  C   C6186     1.0  0.61153  0.74804  0.94144  1.0000
  S   S2074     1.0  0.71564  0.95609  0.86303  1.0000
  C   C6187     1.0  0.81382  0.93497  0.88774  1.0000
  N   N515      1.0  0.58154  0.87712  0.90760  1.0000
  C   C6188     1.0  0.59102  0.86808  0.91727  1.0000
  C   C6189     1.0  0.58391  0.87464  0.89313  1.0000
  C   C6190     1.0  0.60311  0.85604  0.91261  1.0000
  C   C6191     1.0  0.59600  0.86280  0.88805  1.0000
  C   C6192     1.0  0.60562  0.85345  0.89788  1.0000
  C   C6193     1.0  0.56933  0.89008  0.91245  1.0000
  H   H6175     1.0  0.58901  0.86991  0.92882  1.0000
  H   H6176     1.0  0.57636  0.88172  0.88548  1.0000
  H   H6177     1.0  0.61040  0.84870  0.92042  1.0000
  H   H6178     1.0  0.59790  0.86084  0.87658  1.0000
  H   H6179     1.0  0.61497  0.84418  0.89407  1.0000
  H   H6180     1.0  0.57385  0.90082  0.90879  1.0000
  H   H6181     1.0  0.55913  0.89198  0.90743  1.0000
  H   H6182     1.0  0.56507  0.88767  0.92519  1.0000
  C   C6194     1.0  0.95497  0.88515  0.79950  1.0000
  N   N516      1.0  0.54801  0.85060  0.83631  1.0000
  C   C6195     1.0  0.82856  0.73739  0.84246  1.0000
  C   C6196     1.0  0.80428  0.74548  0.89437  1.0000
  C   C6197     1.0  0.81900  0.96059  0.87765  1.0000
  H   H6183     1.0  0.94473  0.89228  0.87057  1.0000
  C   C6198     1.0  0.77911  0.88049  0.80969  1.0000
  C   C6199     1.0  0.83714  0.96696  0.85308  1.0000
  H   H6184     1.0  0.61453  0.74618  0.89891  1.0000
  H   H6185     1.0  0.60410  0.76719  0.92349  1.0000
  C   C6200     1.0  0.62370  0.75250  0.89524  1.0000
  Fe  Fe1035    1.0  0.52683  0.79039  0.76877  1.0000
  H   H6186     1.0  0.90066  0.90255  0.90170  1.0000
  H   H6187     1.0  0.71458  0.93123  0.85069  1.0000
  H   H6188     1.0  0.57644  0.75223  0.80834  1.0000
  C   C6201     1.0  0.76373  0.88866  0.81326  1.0000
  Fe  Fe1036    1.0  0.93046  0.83087  0.95842  1.0000
  H   H6189     1.0  0.82842  0.77596  0.83356  1.0000
  C   C6202     1.0  0.78635  0.72954  0.91003  1.0000
  C   C6203     1.0  0.54606  0.86548  0.92715  1.0000
  N   N517      1.0  0.90018  0.82508  0.90966  1.0000
  C   C6204     1.0  0.82416  0.76555  0.83593  1.0000
  H   H6190     1.0  0.55143  0.87283  0.82347  1.0000
  H   H6191     1.0  0.53826  0.83642  0.87470  1.0000
  S   S2075     1.0  0.54672  0.79653  0.77335  1.0000
  C   C6205     1.0  0.83421  0.75092  0.83877  1.0000
  H   H6192     1.0  0.62238  0.73003  0.95822  1.0000
  H   H6193     1.0  0.94840  0.74267  0.95825  1.0000
  H   H6194     1.0  0.84625  0.75010  0.83842  1.0000
  H   H6195     1.0  0.69216  0.96090  0.91341  1.0000
  C   C6206     1.0  0.69222  0.96784  0.84720  1.0000
  Fe  Fe1037    1.0  0.54431  0.87644  0.96390  1.0000
  H   H6196     1.0  0.77933  0.74048  0.86496  1.0000
  H   H6197     1.0  0.52196  0.82452  0.86596  1.0000
  H   H6198     1.0  0.92411  0.91980  0.78438  1.0000
  C   C6207     1.0  0.93973  0.88375  0.80158  1.0000
  S   S2076     1.0  0.94873  0.81110  0.95017  1.0000
  C   C6208     1.0  0.62735  0.76589  0.92527  1.0000
  H   H6199     1.0  0.96346  0.87554  0.80426  1.0000
  H   H6200     1.0  0.89789  0.83489  0.88639  1.0000
  C   C6209     1.0  0.64976  0.97411  0.90458  1.0000
  H   H6201     1.0  0.81691  0.77533  0.80433  1.0000
  C   C6210     1.0  0.53824  0.83866  0.86256  1.0000
  H   H6202     1.0  0.53907  0.84646  0.81926  1.0000
  H   H6203     1.0  0.88497  0.84543  0.90017  1.0000
  Fe  Fe1038    1.0  0.69464  0.91871  0.78462  1.0000
  C   C6211     1.0  0.81298  0.73851  0.84303  1.0000
  H   H6204     1.0  0.83962  0.93715  0.85343  1.0000
  H   H6205     1.0  0.56859  0.85940  0.82897  1.0000
  S   S2077     1.0  0.52448  0.83174  0.77369  1.0000
  H   H6206     1.0  0.91833  0.81406  0.89352  1.0000
  C   C6212     1.0  0.55785  0.86054  0.82510  1.0000
  H   H6207     1.0  0.75820  0.89571  0.80393  1.0000
  C   C6213     1.0  0.84370  0.77888  0.77118  1.0000
  N   N518      1.0  0.78286  0.74445  0.88496  1.0000
  C   C6214     1.0  0.61334  0.76106  0.92959  1.0000
  H   H6208     1.0  0.90864  0.89937  0.78762  1.0000
  H   H6209     1.0  0.85019  0.95204  0.89672  1.0000
  C   C6215     1.0  0.53875  0.84450  0.83144  1.0000
  H   H6210     1.0  0.75633  0.87750  0.85184  1.0000
  C   C6216     1.0  0.63748  0.74530  0.94429  1.0000
  H   H6211     1.0  0.52234  0.82978  0.83799  1.0000
  N   N519      1.0  0.75568  0.88745  0.82824  1.0000
  H   H6212     1.0  0.93809  0.91799  0.85354  1.0000
  H   H6213     1.0  0.80815  0.92669  0.89676  1.0000
  H   H6214     1.0  0.81459  0.74982  0.89266  1.0000
  H   H6215     1.0  0.69654  0.85278  0.84454  1.0000
  N   N520      1.0  0.63931  0.75781  0.93237  1.0000
  C   C6217     1.0  0.73973  0.89644  0.83188  1.0000
  S   S2078     1.0  0.98349  0.93722  0.78031  1.0000
  H   H6216     1.0  0.87961  0.94658  0.85270  1.0000
  H   H6217     1.0  0.56380  0.95469  0.95813  1.0000
  H   H6218     1.0  0.73419  0.89999  0.82183  1.0000
  C   C6218     1.0  0.79939  0.73534  0.90811  1.0000
  C   C6219     1.0  0.77807  0.87016  0.83680  1.0000
  C   C6220     1.0  0.65399  0.76289  0.92766  1.0000
  C   C6221     1.0  0.82192  0.77699  0.79207  1.0000
  H   H6219     1.0  0.92223  0.94472  0.85196  1.0000
  C   C6222     1.0  0.93280  0.90993  0.78842  1.0000
  C   C6223     1.0  0.62361  0.74018  0.94896  1.0000
  C   C6224     1.0  0.81126  0.95021  0.88922  1.0000
  C   C6225     1.0  0.52920  0.83508  0.84201  1.0000
  C   C6226     1.0  0.52907  0.83206  0.85766  1.0000
  C   C6227     1.0  0.65044  0.75298  0.89304  1.0000
  H   H6220     1.0  0.80858  0.72813  0.84570  1.0000
  H   H6221     1.0  0.65574  0.76968  0.91557  1.0000
  C   C6228     1.0  0.63865  0.74480  0.89741  1.0000
  H   H6222     1.0  0.62870  0.77590  0.91592  1.0000
  C   C6229     1.0  0.98512  0.97438  0.82816  1.0000
  H   H6223     1.0  0.76822  0.72943  0.89971  1.0000
  C   C6230     1.0  0.66187  0.96371  0.88179  1.0000
  H   H6224     1.0  0.91165  0.88237  0.80255  1.0000
  H   H6225     1.0  0.65422  0.77005  0.93542  1.0000
  C   C6231     1.0  0.92331  0.89588  0.88752  1.0000
  C   C6232     1.0  0.56511  0.75265  0.80669  1.0000
  C   C6233     1.0  0.94795  0.91170  0.78606  1.0000
  S   S2079     1.0  0.86915  0.96951  0.87068  1.0000
  H   H6226     1.0  0.92612  0.88456  0.89500  1.0000
  C   C6234     1.0  0.91285  0.89464  0.79848  1.0000
  C   C6235     1.0  0.86540  0.95101  0.87448  1.0000
  H   H6227     1.0  0.79825  0.86493  0.81899  1.0000
  H   H6228     1.0  0.81695  0.97240  0.87893  1.0000
  C   C6236     1.0  0.95195  0.73069  0.95704  1.0000
  C   C6237     1.0  0.79589  0.74986  0.88279  1.0000
  H   H6229     1.0  0.68251  0.83267  0.86191  1.0000
  Fe  Fe1039    1.0  0.96226  0.81470  0.96519  1.0000
  H   H6230     1.0  0.79988  0.75757  0.87203  1.0000
  C   C6238     1.0  0.53618  0.75420  0.80212  1.0000
  C   C6239     1.0  0.78631  0.87127  0.82157  1.0000
  H   H6231     1.0  0.73959  0.90703  0.83549  1.0000
  C   C6240     1.0  0.68231  0.96652  0.83878  1.0000
  H   H6232     1.0  0.80582  0.73178  0.91718  1.0000
  H   H6233     1.0  0.80345  0.95399  0.89933  1.0000
  H   H6234     1.0  0.84182  0.78257  0.80537  1.0000
  H   H6235     1.0  0.84825  0.76225  0.80460  1.0000
  S   S2080     1.0  0.85154  0.73034  0.92871  1.0000
  H   H6236     1.0  0.92989  0.73007  0.95361  1.0000
  Fe  Fe1040    1.0  0.85782  0.72817  0.95127  1.0000
  H   H6237     1.0  0.54637  0.73199  0.79634  1.0000
  H   H6238     1.0  0.85594  0.77880  0.76685  1.0000
  H   H6239     1.0  0.63851  0.97739  0.88603  1.0000
  H   H6240     1.0  0.82481  0.82457  0.76680  1.0000
