data_image0
_chemical_formula_structural       FeS2FeS2FeCFeS3HSCNCFeS2FeS2FeSFeS3C10H2FeC5H2SC5H3C5H5C3H8C6H4CHC3H4CSHC2HCH2CHC6H4CH2C2HCH4CNCHCH2CFeH2S2NCNH2C2HSH2C3HC2NSC2H2CHCFeC3H4NHCH3FeSFeSCHCFeS3FeS2FeS2H2CFeC2HSH3C2H3S3C6H4C6H5FeSH2NC2HCHCSFeH2C3NC5H7Fe2S2H4C3SCH2CSH2C2HCH2C2H2CHCNSFeH5NCH2SFeSH2CH2CH2CSCH2CSHC2S2NC3H3C2SC2H3C2HCHCHC6HSCHFeHC2SH2FeH4CHC3HCHFeSCFeS2FeSFeS3CS2FeS2NCFeSCSFeS2FeS2FeSFeS3HFeCH2C6HFeH2C6H4CHC6H3C6H4C6H5C3H3C2H2N2C6H8C3SHFeSCH2C2H2FeCHCHNHSNHC2HCH5CHCH2CS2FeSHNHC2HC2H6CHC3HCH2SH2CHC2H4NHFeSFeSFeH3C2H4CHS2C2NHSC3H2FeHCHCHSC6HCH2C2HCHSHCHC4H2CH2CHCH3CSC2HC5HCS2NC2H4NHSC4HCH3CHCH4NCHSCHFeS2FeS2FeSFeS3HC2FeS2HCFeSCSFeS2HS2FeSCHSCFeS2FeS2FeSFeS3NCHCHC2H2C6H4SH4C7H4C6H4C6H4C6H4C2H3CH2C2SCHCNHFeH6FeHC3H2C2H5CNC6H4CH4CH3CNH2C4HNC2NCFeCHC2H2C2H2N2H2C2H4C3HFeSHCSHFeS2FeS2FeSFeS3FeS2FeS2FeSFeS3H2CHSC2HC3H2C6H4C6H4C4H4C4H3CHC4H4C5HCH6C3H2C2NCNC6H7NC2HCH2C2SC2H4CHCHCHCHC3HNH2CHCHC2H2C5HCHCH4CS2HNCHNCH2CFeSFeS2FeSHSH2Fe2S2FeC2HSHFeS2HFeSCSCH2C4H3S2CSHFeC7H4C6H4SHCSHC3FeHCH8CFeHFeNC5H2CNS2H2CH2CH2NCH3C2H2CNH3CH5CHC2HCHC3
_chemical_formula_sum              "Fe80 S160 C480 H480 N40"
_cell_length_a       42.4999
_cell_length_b       43.3765
_cell_length_c       46.7155
_cell_angle_alpha    91.2393
_cell_angle_beta     91.7457
_cell_angle_gamma    89.8945

_space_group_name_H-M_alt    "P 1"
_space_group_IT_number       1

loop_
  _space_group_symop_operation_xyz
  'x, y, z'

loop_
  _atom_site_type_symbol
  _atom_site_label
  _atom_site_symmetry_multiplicity
  _atom_site_fract_x
  _atom_site_fract_y
  _atom_site_fract_z
  _atom_site_occupancy
  Fe  Fe1       1.0  0.39578  0.33305  0.17886  1.0000
  S   S1        1.0  0.38946  0.28190  0.17379  1.0000
  S   S2        1.0  0.39844  0.36072  0.13889  1.0000
  Fe  Fe2       1.0  0.39917  0.33066  0.24358  1.0000
  S   S3        1.0  0.39409  0.27948  0.24430  1.0000
  S   S4        1.0  0.40433  0.35858  0.28416  1.0000
  Fe  Fe3       1.0  0.42732  0.27934  0.20798  1.0000
  C   C1        1.0  0.20651  0.00479  0.06595  1.0000
  Fe  Fe4       1.0  0.35672  0.28694  0.21030  1.0000
  S   S5        1.0  0.31048  0.26374  0.21660  1.0000
  S   S6        1.0  0.43623  0.33012  0.21047  1.0000
  S   S7        1.0  0.35930  0.33855  0.21228  1.0000
  H   H1        1.0  0.22193  0.02046  0.07815  1.0000
  S   S8        1.0  0.03061  0.00260  0.03096  1.0000
  C   C2        1.0  0.14208  0.11640  0.19897  1.0000
  N   N1        1.0  0.27449  0.36337  0.25754  1.0000
  C   C3        1.0  0.36659  0.11015  0.17263  1.0000
  Fe  Fe5       1.0  0.24636  0.09774  0.23183  1.0000
  S   S9        1.0  0.24824  0.04640  0.22752  1.0000
  S   S10       1.0  0.23490  0.11683  0.27522  1.0000
  Fe  Fe6       1.0  0.27129  0.10646  0.17272  1.0000
  S   S11       1.0  0.27599  0.05572  0.16341  1.0000
  S   S12       1.0  0.28873  0.14181  0.14289  1.0000
  Fe  Fe7       1.0  0.22841  0.05312  0.18306  1.0000
  S   S13       1.0  0.18923  0.02030  0.16986  1.0000
  Fe  Fe8       1.0  0.29516  0.05389  0.20866  1.0000
  S   S14       1.0  0.33968  0.03111  0.22397  1.0000
  S   S15       1.0  0.22216  0.10431  0.18902  1.0000
  S   S16       1.0  0.29474  0.10481  0.21614  1.0000
  C   C4        1.0  0.31721  0.16969  0.26736  1.0000
  C   C5        1.0  0.47269  0.40752  0.11057  1.0000
  C   C6        1.0  0.14390  0.00561  0.12952  1.0000
  C   C7        1.0  0.46354  0.29138  0.28758  1.0000
  C   C8        1.0  0.22555  0.15613  0.27656  1.0000
  C   C9        1.0  0.21854  0.17237  0.25162  1.0000
  C   C10       1.0  0.20893  0.20334  0.25358  1.0000
  C   C11       1.0  0.20714  0.21818  0.28044  1.0000
  C   C12       1.0  0.21509  0.20205  0.30520  1.0000
  C   C13       1.0  0.22369  0.17096  0.30330  1.0000
  H   H2        1.0  0.21993  0.16098  0.23089  1.0000
  H   H3        1.0  0.20310  0.21584  0.23433  1.0000
  Fe  Fe9       1.0  0.08284  0.99730  0.03704  1.0000
  C   C14       1.0  0.17273  0.06708  0.27231  1.0000
  C   C15       1.0  0.16803  0.02626  0.13761  1.0000
  C   C16       1.0  0.13401  0.03322  0.08551  1.0000
  C   C17       1.0  0.15761  0.05442  0.09398  1.0000
  C   C18       1.0  0.17470  0.05091  0.11998  1.0000
  H   H4        1.0  0.16307  0.07326  0.08015  1.0000
  H   H5        1.0  0.19320  0.06704  0.12620  1.0000
  S   S17       1.0  0.47782  0.12669  0.27126  1.0000
  C   C19       1.0  0.39861  0.44005  0.06685  1.0000
  C   C20       1.0  0.32272  0.05111  0.27747  1.0000
  C   C21       1.0  0.34732  0.04176  0.26002  1.0000
  C   C22       1.0  0.46935  0.21447  0.21986  1.0000
  C   C23       1.0  0.38464  0.05235  0.29947  1.0000
  H   H6        1.0  0.37761  0.42458  0.10550  1.0000
  H   H7        1.0  0.29877  0.05083  0.26915  1.0000
  H   H8        1.0  0.49653  0.30128  0.14809  1.0000
  C   C24       1.0  0.35991  0.06112  0.31704  1.0000
  C   C25       1.0  0.47418  0.16055  0.25176  1.0000
  C   C26       1.0  0.45133  0.21115  0.24420  1.0000
  C   C27       1.0  0.45420  0.18442  0.26050  1.0000
  C   C28       1.0  0.14491  0.08435  0.19763  1.0000
  H   H9        1.0  0.17507  0.08215  0.29183  1.0000
  H   H10       1.0  0.16629  0.99817  0.00213  1.0000
  H   H11       1.0  0.43619  0.22960  0.25118  1.0000
  H   H12       1.0  0.14024  0.07180  0.17759  1.0000
  H   H13       1.0  0.37844  0.10590  0.25967  1.0000
  C   C29       1.0  0.15887  0.11571  0.24877  1.0000
  C   C30       1.0  0.36986  0.35881  0.30392  1.0000
  C   C31       1.0  0.34690  0.33585  0.29973  1.0000
  H   H14       1.0  0.32019  0.21805  0.25811  1.0000
  H   H15       1.0  0.14782  0.15725  0.22588  1.0000
  H   H16       1.0  0.30380  0.23510  0.30641  1.0000
  H   H17       1.0  0.48267  0.41168  0.09021  1.0000
  H   H18       1.0  0.35046  0.31720  0.28443  1.0000
  H   H19       1.0  0.31882  0.38525  0.26406  1.0000
  H   H20       1.0  0.41028  0.13318  0.26039  1.0000
  H   H21       1.0  0.42463  0.45951  0.03260  1.0000
  C   C32       1.0  0.30352  0.23082  0.19499  1.0000
  C   C33       1.0  0.28274  0.20837  0.20418  1.0000
  C   C34       1.0  0.27804  0.18111  0.18804  1.0000
  C   C35       1.0  0.29322  0.17671  0.16214  1.0000
  C   C36       1.0  0.31305  0.19969  0.15234  1.0000
  C   C37       1.0  0.31861  0.22655  0.16901  1.0000
  H   H22       1.0  0.27055  0.21185  0.22400  1.0000
  H   H23       1.0  0.26236  0.16366  0.19549  1.0000
  H   H24       1.0  0.32450  0.19652  0.13212  1.0000
  H   H25       1.0  0.33406  0.24414  0.16147  1.0000
  C   C38       1.0  0.24051  0.31043  0.24244  1.0000
  H   H26       1.0  0.43607  0.37819  0.09238  1.0000
  C   C39       1.0  0.47098  0.24912  0.31852  1.0000
  C   C40       1.0  0.43252  0.38320  0.13812  1.0000
  C   C41       1.0  0.44572  0.39649  0.16322  1.0000
  H   H27       1.0  0.28945  0.39850  0.28803  1.0000
  H   H28       1.0  0.44104  0.18234  0.27980  1.0000
  H   H29       1.0  0.30971  0.06651  0.31965  1.0000
  H   H30       1.0  0.43503  0.39271  0.18358  1.0000
  C   C42       1.0  0.36707  0.14109  0.16518  1.0000
  S   S18       1.0  0.11476  0.03645  0.05179  1.0000
  H   H31       1.0  0.32342  0.16210  0.24600  1.0000
  C   C43       1.0  0.38929  0.15403  0.21202  1.0000
  C   C44       1.0  0.47228  0.41553  0.16191  1.0000
  H   H32       1.0  0.22879  0.15841  0.32266  1.0000
  C   C45       1.0  0.27829  0.34947  0.23130  1.0000
  H   H33       1.0  0.15616  0.04813  0.27672  1.0000
  H   H34       1.0  0.41667  0.09518  0.24647  1.0000
  C   C46       1.0  0.31074  0.14820  0.28833  1.0000
  H   H35       1.0  0.37871  0.18743  0.17939  1.0000
  C   C47       1.0  0.19599  0.01212  0.03834  1.0000
  C   C48       1.0  0.37851  0.16325  0.18493  1.0000
  C   C49       1.0  0.12691  0.00913  0.10360  1.0000
  C   C50       1.0  0.30594  0.21071  0.30119  1.0000
  C   C51       1.0  0.37791  0.10172  0.19977  1.0000
  C   C52       1.0  0.29926  0.18864  0.32149  1.0000
  H   H36       1.0  0.40863  0.05296  0.30782  1.0000
  H   H37       1.0  0.40756  0.27413  0.32194  1.0000
  H   H38       1.0  0.31217  0.12374  0.28308  1.0000
  H   H39       1.0  0.45108  0.31223  0.28166  1.0000
  C   C53       1.0  0.39469  0.43988  0.09639  1.0000
  H   H40       1.0  0.37766  0.07762  0.20540  1.0000
  H   H41       1.0  0.39795  0.17141  0.22728  1.0000
  C   C54       1.0  0.39898  0.11406  0.24781  1.0000
  C   C55       1.0  0.44018  0.47750  0.07410  1.0000
  H   H42       1.0  0.28723  0.40997  0.25116  1.0000
  C   C56       1.0  0.48739  0.28034  0.27007  1.0000
  H   H43       1.0  0.22798  0.28918  0.23698  1.0000
  H   H44       1.0  0.16477  0.12829  0.26854  1.0000
  H   H45       1.0  0.24982  0.36302  0.29670  1.0000
  H   H46       1.0  0.39740  0.03479  0.25779  1.0000
  C   C57       1.0  0.14918  0.13226  0.22467  1.0000
  N   N2        1.0  0.38888  0.12356  0.21908  1.0000
  C   C58       1.0  0.37828  0.04201  0.27118  1.0000
  H   H47       1.0  0.35810  0.14789  0.14424  1.0000
  C   C59       1.0  0.25325  0.35193  0.27601  1.0000
  H   H48       1.0  0.21971  0.31597  0.28356  1.0000
  H   H49       1.0  0.27931  0.11712  0.32793  1.0000
  C   C60       1.0  0.29332  0.39069  0.26555  1.0000
  Fe  Fe10      1.0  0.45834  0.13049  0.31513  1.0000
  H   H50       1.0  0.15810  0.04375  0.22061  1.0000
  H   H51       1.0  0.13508  0.12895  0.17996  1.0000
  S   S19       1.0  0.40852  0.14364  0.32327  1.0000
  S   S20       1.0  0.47799  0.48476  0.00326  1.0000
  N   N3        1.0  0.16170  0.08427  0.24723  1.0000
  C   C61       1.0  0.23609  0.32529  0.26876  1.0000
  N   N4        1.0  0.30197  0.15785  0.31500  1.0000
  H   H52       1.0  0.38418  0.42530  0.05275  1.0000
  H   H53       1.0  0.19641  0.05724  0.26841  1.0000
  C   C62       1.0  0.15504  0.06859  0.22207  1.0000
  C   C63       1.0  0.26137  0.32285  0.22335  1.0000
  H   H54       1.0  0.26511  0.31133  0.20287  1.0000
  S   S21       1.0  0.19437  0.25660  0.28319  1.0000
  H   H55       1.0  0.29476  0.35872  0.21649  1.0000
  H   H56       1.0  0.35707  0.09286  0.15763  1.0000
  C   C64       1.0  0.44620  0.38852  0.11184  1.0000
  C   C65       1.0  0.49502  0.23747  0.30156  1.0000
  C   C66       1.0  0.32892  0.06009  0.30610  1.0000
  H   H57       1.0  0.42521  0.31186  0.32635  1.0000
  C   C67       1.0  0.31510  0.20111  0.27403  1.0000
  C   C68       1.0  0.31917  0.33706  0.31543  1.0000
  N   N5        1.0  0.45569  0.27585  0.31152  1.0000
  S   S22       1.0  0.46889  0.24880  0.20074  1.0000
  C   C69       1.0  0.48569  0.42126  0.13553  1.0000
  C   C70       1.0  0.41389  0.45863  0.11430  1.0000
  H   H58       1.0  0.20319  0.03353  0.02891  1.0000
  H   H59       1.0  0.21395  0.21327  0.32594  1.0000
  C   C71       1.0  0.49142  0.16353  0.22699  1.0000
  H   H60       1.0  0.48224  0.42608  0.18134  1.0000
  C   C72       1.0  0.48830  0.32448  0.14147  1.0000
  Fe  Fe11      1.0  0.20726  0.27599  0.32696  1.0000
  C   C73       1.0  0.42138  0.45906  0.05557  1.0000
  C   C74       1.0  0.42940  0.28670  0.32871  1.0000
  C   C75       1.0  0.48937  0.19063  0.21131  1.0000
  H   H61       1.0  0.30145  0.31949  0.31193  1.0000
  H   H62       1.0  0.46655  0.32192  0.12775  1.0000
  H   H63       1.0  0.49289  0.29218  0.25062  1.0000
  H   H64       1.0  0.48144  0.33776  0.16091  1.0000
  N   N6        1.0  0.43655  0.47679  0.10309  1.0000
  H   H65       1.0  0.41117  0.45779  0.13730  1.0000
  C   C76       1.0  0.36503  0.38285  0.32368  1.0000
  H   H66       1.0  0.38268  0.40065  0.32695  1.0000
  H   H67       1.0  0.45964  0.48629  0.14359  1.0000
  H   H68       1.0  0.45782  0.49220  0.06506  1.0000
  Fe  Fe12      1.0  0.47475  0.12102  0.37786  1.0000
  S   S23       1.0  0.42616  0.13329  0.39204  1.0000
  Fe  Fe13      1.0  0.42887  0.17127  0.36028  1.0000
  S   S24       1.0  0.41151  0.21981  0.36610  1.0000
  C   C77       1.0  0.08499  0.37867  0.39731  1.0000
  H   H69       1.0  0.06292  0.47388  0.44627  1.0000
  C   C78       1.0  0.08557  0.46809  0.43613  1.0000
  Fe  Fe14      1.0  0.24422  0.26102  0.38102  1.0000
  S   S25       1.0  0.19344  0.25521  0.36819  1.0000
  S   S26       1.0  0.26975  0.22204  0.40217  1.0000
  S   S27       1.0  0.45816  0.08877  0.34242  1.0000
  Fe  Fe15      1.0  0.18810  0.30401  0.38412  1.0000
  S   S28       1.0  0.14564  0.31406  0.41046  1.0000
  S   S29       1.0  0.23795  0.30806  0.40074  1.0000
  Fe  Fe16      1.0  0.09814  0.44095  0.51385  1.0000
  S   S30       1.0  0.05405  0.41598  0.50005  1.0000
  S   S31       1.0  0.14410  0.43202  0.49205  1.0000
  H   H70       1.0  0.48035  0.09100  0.51423  1.0000
  H   H71       1.0  0.02265  0.42287  0.60454  1.0000
  C   C79       1.0  0.01013  0.40367  0.61320  1.0000
  Fe  Fe17      1.0  0.04400  0.41556  0.54679  1.0000
  C   C80       1.0  0.20727  0.31131  0.47856  1.0000
  C   C81       1.0  0.31406  0.36167  0.33469  1.0000
  H   H72       1.0  0.08986  0.48575  0.41985  1.0000
  S   S32       1.0  0.09007  0.43709  0.56109  1.0000
  H   H73       1.0  0.08549  0.35544  0.38815  1.0000
  H   H74       1.0  0.20014  0.33417  0.48582  1.0000
  H   H75       1.0  0.13254  0.38882  0.38604  1.0000
  C   C82       1.0  0.33705  0.38451  0.33870  1.0000
  C   C83       1.0  0.11129  0.42666  0.40940  1.0000
  H   H76       1.0  0.15969  0.29469  0.47261  1.0000
  H   H77       1.0  0.31854  0.12341  0.34323  1.0000
  H   H78       1.0  0.45129  0.04014  0.46206  1.0000
  S   S33       1.0  0.01709  0.45994  0.54580  1.0000
  S   S34       1.0  0.25867  0.27785  0.33850  1.0000
  S   S35       1.0  0.47902  0.16177  0.34936  1.0000
  C   C84       1.0  0.14751  0.34554  0.43467  1.0000
  C   C85       1.0  0.17185  0.36719  0.43428  1.0000
  C   C86       1.0  0.17114  0.39336  0.45256  1.0000
  C   C87       1.0  0.14627  0.39778  0.47133  1.0000
  C   C88       1.0  0.12286  0.37533  0.47254  1.0000
  C   C89       1.0  0.12335  0.34942  0.45414  1.0000
  H   H79       1.0  0.19067  0.36424  0.41937  1.0000
  H   H80       1.0  0.18951  0.41054  0.45174  1.0000
  H   H81       1.0  0.10437  0.37781  0.48769  1.0000
  H   H82       1.0  0.10470  0.33251  0.45478  1.0000
  C   C90       1.0  0.37235  0.22057  0.37682  1.0000
  C   C91       1.0  0.35516  0.24811  0.37565  1.0000
  C   C92       1.0  0.32367  0.24881  0.38381  1.0000
  C   C93       1.0  0.30958  0.22209  0.39367  1.0000
  C   C94       1.0  0.32689  0.19469  0.39528  1.0000
  C   C95       1.0  0.35809  0.19382  0.38643  1.0000
  H   H83       1.0  0.36608  0.26886  0.36820  1.0000
  H   H84       1.0  0.31046  0.27009  0.38264  1.0000
  H   H85       1.0  0.31600  0.17395  0.40276  1.0000
  H   H86       1.0  0.37114  0.17248  0.38726  1.0000
  H   H87       1.0  0.45943  0.08137  0.42702  1.0000
  Fe  Fe18      1.0  0.40992  0.10464  0.35376  1.0000
  S   S36       1.0  0.02366  0.37194  0.56360  1.0000
  H   H88       1.0  0.03773  0.37505  0.41241  1.0000
  H   H89       1.0  0.17615  0.24340  0.45386  1.0000
  N   N7        1.0  0.08505  0.43723  0.42275  1.0000
  C   C96       1.0  0.47950  0.06991  0.43685  1.0000
  C   C97       1.0  0.47495  0.04667  0.45674  1.0000
  H   H90       1.0  0.33318  0.40365  0.35344  1.0000
  C   C98       1.0  0.08368  0.48963  0.65905  1.0000
  H   H91       1.0  0.13246  0.44061  0.40947  1.0000
  C   C99       1.0  0.05837  0.38956  0.41111  1.0000
  S   S37       1.0  0.36748  0.07421  0.35239  1.0000
  Fe  Fe19      1.0  0.06397  0.48193  0.55623  1.0000
  H   H92       1.0  0.28566  0.14534  0.35617  1.0000
  H   H93       1.0  0.44155  0.02834  0.37401  1.0000
  C   C100      1.0  0.11151  0.39743  0.39616  1.0000
  C   C101      1.0  0.05870  0.41919  0.42360  1.0000
  C   C102      1.0  0.00804  0.37569  0.59785  1.0000
  N   N8        1.0  0.24805  0.27538  0.46611  1.0000
  C   C103      1.0  0.22581  0.25372  0.45838  1.0000
  C   C104      1.0  0.23914  0.30405  0.47572  1.0000
  C   C105      1.0  0.19375  0.26032  0.46068  1.0000
  C   C106      1.0  0.18452  0.28919  0.47110  1.0000
  C   C107      1.0  0.28152  0.26868  0.46222  1.0000
  H   H94       1.0  0.23271  0.23128  0.45000  1.0000
  H   H95       1.0  0.25667  0.32163  0.48080  1.0000
  H   H96       1.0  0.46444  0.23644  0.33717  1.0000
  H   H97       1.0  0.28872  0.27701  0.44104  1.0000
  H   H98       1.0  0.29643  0.27988  0.47937  1.0000
  H   H99       1.0  0.28630  0.24346  0.46269  1.0000
  H   H100      1.0  0.10457  0.46944  0.45302  1.0000
  Fe  Fe20      1.0  0.24791  0.32463  0.35672  1.0000
  Fe  Fe21      1.0  0.03142  0.46241  0.50023  1.0000
  S   S38       1.0  0.27823  0.36639  0.35213  1.0000
  S   S39       1.0  0.07618  0.48800  0.51037  1.0000
  H   H101      1.0  0.03787  0.42749  0.43426  1.0000
  H   H102      1.0  0.43413  0.28255  0.35185  1.0000
  H   H103      1.0  0.09136  0.45132  0.62999  1.0000
  H   H104      1.0  0.49841  0.03673  0.36524  1.0000
  C   C108      1.0  0.10197  0.46700  0.64591  1.0000
  C   C109      1.0  0.45946  0.01517  0.38554  1.0000
  C   C110      1.0  0.29606  0.13484  0.33671  1.0000
  S   S40       1.0  0.19726  0.32465  0.34155  1.0000
  C   C111      1.0  0.49130  0.01980  0.38054  1.0000
  H   H105      1.0  0.29145  0.19634  0.34228  1.0000
  H   H106      1.0  0.05886  0.49167  0.65321  1.0000
  C   C112      1.0  0.13413  0.46535  0.65267  1.0000
  S   S41       1.0  0.49434  0.00224  0.49378  1.0000
  H   H107      1.0  0.14872  0.44840  0.64196  1.0000
  H   H108      1.0  0.01853  0.12206  0.92781  1.0000
  C   C113      1.0  0.03175  0.05120  0.89807  1.0000
  C   C114      1.0  0.14760  0.48653  0.67248  1.0000
  H   H109      1.0  0.04519  0.03027  0.90178  1.0000
  C   C115      1.0  0.00937  0.05242  0.87551  1.0000
  H   H110      1.0  0.00593  0.03223  0.86167  1.0000
  H   H111      1.0  0.05190  0.07545  0.93494  1.0000
  C   C116      1.0  0.03542  0.07653  0.91678  1.0000
  C   C117      1.0  0.01677  0.10268  0.91276  1.0000
  H   H112      1.0  0.01048  0.04241  0.98623  1.0000
  H   H113      1.0  0.17282  0.48582  0.67679  1.0000
  C   C118      1.0  0.16521  0.96541  0.03622  1.0000
  H   H114      1.0  0.14877  0.95036  0.02451  1.0000
  C   C119      1.0  0.16347  0.93113  0.07728  1.0000
  N   N9        1.0  0.17551  0.95848  0.06337  1.0000
  S   S42       1.0  0.07967  0.95196  0.05888  1.0000
  Fe  Fe22      1.0  0.08237  0.93144  0.01449  1.0000
  H   H115      1.0  0.20294  0.97305  0.10028  1.0000
  H   H116      1.0  0.18263  0.91941  0.08959  1.0000
  H   H117      1.0  0.05125  0.86548  0.15999  1.0000
  H   H118      1.0  0.14460  0.93807  0.09206  1.0000
  H   H119      1.0  0.15357  0.91405  0.06131  1.0000
  N   N10       1.0  0.00423  0.88142  0.16244  1.0000
  C   C120      1.0  0.02972  0.86750  0.14611  1.0000
  H   H120      1.0  0.47996  0.49955  0.11361  1.0000
  H   H121      1.0  0.03515  0.88144  0.12719  1.0000
  S   S43       1.0  0.02992  0.93031  0.00682  1.0000
  Fe  Fe23      1.0  0.02777  0.95533  0.04921  1.0000
  S   S44       1.0  0.11689  0.89257  0.00814  1.0000
  H   H122      1.0  0.13838  0.98678  0.14332  1.0000
  H   H123      1.0  0.02276  0.84418  0.13775  1.0000
  C   C121      1.0  0.45604  0.49668  0.12216  1.0000
  H   H124      1.0  0.01193  0.92677  0.14714  1.0000
  H   H125      1.0  0.01224  0.88942  0.06391  1.0000
  C   C122      1.0  0.19569  0.97788  0.07834  1.0000
  H   H126      1.0  0.44484  0.51967  0.12465  1.0000
  H   H127      1.0  0.10821  0.99330  0.09776  1.0000
  C   C123      1.0  0.17527  0.99230  0.02331  1.0000
  S   S45       1.0  0.18401  0.70797  0.66097  1.0000
  C   C124      1.0  0.47759  0.86383  0.58618  1.0000
  H   H128      1.0  0.29673  0.69559  0.59490  1.0000
  H   H129      1.0  0.47174  0.85407  0.65784  1.0000
  C   C125      1.0  0.49801  0.88916  0.58660  1.0000
  S   S46       1.0  0.44811  0.81550  0.60977  1.0000
  H   H130      1.0  0.27261  0.65429  0.62293  1.0000
  C   C126      1.0  0.27356  0.75266  0.63032  1.0000
  C   C127      1.0  0.10229  0.55801  0.62172  1.0000
  S   S47       1.0  0.06328  0.52234  0.58722  1.0000
  S   S48       1.0  0.39755  0.75223  0.63444  1.0000
  N   N11       1.0  0.34500  0.65610  0.65535  1.0000
  C   C128      1.0  0.15776  0.54731  0.63071  1.0000
  C   C129      1.0  0.34138  0.69301  0.61775  1.0000
  C   C130      1.0  0.13106  0.56523  0.63587  1.0000
  H   H131      1.0  0.08149  0.57142  0.62632  1.0000
  H   H132      1.0  0.29744  0.72964  0.66519  1.0000
  H   H133      1.0  0.03242  0.57772  0.45507  1.0000
  C   C131      1.0  0.24455  0.75798  0.61636  1.0000
  C   C132      1.0  0.21704  0.74499  0.62649  1.0000
  S   S49       1.0  0.30749  0.76814  0.61579  1.0000
  C   C133      1.0  0.01494  0.56066  0.44857  1.0000
  C   C134      1.0  0.15587  0.52299  0.61047  1.0000
  H   H134      1.0  0.24337  0.77199  0.59745  1.0000
  H   H135      1.0  0.19471  0.74902  0.61542  1.0000
  H   H136      1.0  0.46959  0.85369  0.56588  1.0000
  C   C135      1.0  0.46829  0.85088  0.61178  1.0000
  C   C136      1.0  0.12719  0.51594  0.59613  1.0000
  H   H137      1.0  0.38234  0.68624  0.64506  1.0000
  C   C137      1.0  0.47866  0.86409  0.63798  1.0000
  H   H138      1.0  0.35175  0.71132  0.60570  1.0000
  C   C138      1.0  0.10021  0.53306  0.60218  1.0000
  H   H139      1.0  0.30369  0.62966  0.66203  1.0000
  C   C139      1.0  0.21854  0.72569  0.65003  1.0000
  C   C140      1.0  0.31454  0.64726  0.64948  1.0000
  C   C141      1.0  0.29685  0.66102  0.62742  1.0000
  C   C142      1.0  0.31041  0.68406  0.61153  1.0000
  C   C143      1.0  0.26004  0.83627  0.65471  1.0000
  C   C144      1.0  0.47412  0.97767  0.42103  1.0000
  H   H140      1.0  0.01081  0.62713  0.48151  1.0000
  S   S50       1.0  0.19281  0.55251  0.65129  1.0000
  C   C145      1.0  0.35840  0.67884  0.63998  1.0000
  H   H141      1.0  0.03749  0.52428  0.47220  1.0000
  Fe  Fe24      1.0  0.35062  0.77241  0.64444  1.0000
  H   H142      1.0  0.30331  0.83708  0.63198  1.0000
  C   C146      1.0  0.01786  0.53036  0.45828  1.0000
  C   C147      1.0  0.24754  0.72029  0.66417  1.0000
  S   S51       1.0  0.36930  0.82023  0.65086  1.0000
  H   H143      1.0  0.02552  0.59156  0.53082  1.0000
  H   H144      1.0  0.13230  0.58412  0.65125  1.0000
  Fe  Fe25      1.0  0.41685  0.79943  0.64458  1.0000
  H   H145      1.0  0.01603  0.53715  0.54252  1.0000
  H   H146      1.0  0.46720  0.96177  0.43731  1.0000
  H   H147      1.0  0.17651  0.50914  0.60630  1.0000
  H   H148      1.0  0.12584  0.49682  0.58090  1.0000
  C   C148      1.0  0.27504  0.73421  0.65457  1.0000
  H   H149      1.0  0.24885  0.81980  0.63986  1.0000
  C   C149      1.0  0.29073  0.84598  0.65032  1.0000
  C   C150      1.0  0.00452  0.58014  0.52212  1.0000
  C   C151      1.0  0.49960  0.88925  0.63836  1.0000
  H   H150      1.0  0.42608  0.99057  0.41024  1.0000
  C   C152      1.0  0.45076  0.99394  0.40587  1.0000
  H   H151      1.0  0.32938  0.87364  0.66675  1.0000
  Fe  Fe26      1.0  0.43403  0.61243  0.89840  1.0000
  S   S52       1.0  0.43334  0.61368  0.85020  1.0000
  C   C153      1.0  0.14926  0.74834  0.76586  1.0000
  Fe  Fe27      1.0  0.36895  0.64171  0.90218  1.0000
  S   S53       1.0  0.36337  0.64516  0.85477  1.0000
  S   S54       1.0  0.32702  0.65958  0.92552  1.0000
  Fe  Fe28      1.0  0.38352  0.59761  0.85363  1.0000
  S   S55       1.0  0.35832  0.56317  0.82506  1.0000
  Fe  Fe29      1.0  0.41317  0.66105  0.85615  1.0000
  S   S56       1.0  0.35772  0.83704  0.73192  1.0000
  S   S57       1.0  0.38536  0.59249  0.90128  1.0000
  S   S58       1.0  0.41770  0.66141  0.90401  1.0000
  C   C154      1.0  0.14362  0.53091  0.70596  1.0000
  S   S59       1.0  0.41800  0.69866  0.69856  1.0000
  S   S60       1.0  0.35386  0.76018  0.69059  1.0000
  Fe  Fe30      1.0  0.24909  0.63092  0.71319  1.0000
  S   S61       1.0  0.21552  0.66697  0.72860  1.0000
  S   S62       1.0  0.30033  0.63975  0.72332  1.0000
  N   N12       1.0  0.12945  0.50868  0.68526  1.0000
  C   C155      1.0  0.34198  0.72074  0.82136  1.0000
  Fe  Fe31      1.0  0.18351  0.62715  0.73602  1.0000
  S   S63       1.0  0.15395  0.62142  0.77458  1.0000
  C   C156      1.0  0.30113  0.74628  0.79384  1.0000
  S   S64       1.0  0.21871  0.59087  0.72416  1.0000
  Fe  Fe32      1.0  0.25181  0.80002  0.87381  1.0000
  S   S65       1.0  0.23285  0.83796  0.84624  1.0000
  S   S66       1.0  0.30167  0.79726  0.88988  1.0000
  Fe  Fe33      1.0  0.19394  0.76068  0.86554  1.0000
  S   S67       1.0  0.16987  0.79449  0.83683  1.0000
  S   S68       1.0  0.16981  0.71723  0.87762  1.0000
  Fe  Fe34      1.0  0.21682  0.79930  0.81677  1.0000
  S   S69       1.0  0.22212  0.79681  0.76891  1.0000
  Fe  Fe35      1.0  0.18778  0.83008  0.86895  1.0000
  S   S70       1.0  0.15329  0.86791  0.87942  1.0000
  S   S71       1.0  0.23916  0.76195  0.84264  1.0000
  S   S72       1.0  0.20830  0.79557  0.89944  1.0000
  H   H152      1.0  0.10664  0.68850  0.79008  1.0000
  Fe  Fe36      1.0  0.03624  0.97757  0.98902  1.0000
  C   C157      1.0  0.12348  0.69247  0.74731  1.0000
  H   H153      1.0  0.06708  0.80874  0.88299  1.0000
  H   H154      1.0  0.19529  0.74659  0.71700  1.0000
  C   C158      1.0  0.14565  0.87666  0.91550  1.0000
  C   C159      1.0  0.16272  0.86290  0.93789  1.0000
  C   C160      1.0  0.15440  0.86865  0.96642  1.0000
  C   C161      1.0  0.12889  0.88799  0.97260  1.0000
  C   C162      1.0  0.11230  0.90227  0.95025  1.0000
  C   C163      1.0  0.12072  0.89667  0.92179  1.0000
  H   H155      1.0  0.18218  0.84773  0.93327  1.0000
  Fe  Fe37      1.0  0.19805  0.59507  0.67959  1.0000
  H   H156      1.0  0.09255  0.91717  0.95480  1.0000
  H   H157      1.0  0.10754  0.90750  0.90454  1.0000
  C   C164      1.0  0.16752  0.68976  0.84953  1.0000
  C   C165      1.0  0.18453  0.69349  0.82467  1.0000
  C   C166      1.0  0.18183  0.67169  0.80212  1.0000
  C   C167      1.0  0.16136  0.64663  0.80396  1.0000
  C   C168      1.0  0.14463  0.64278  0.82897  1.0000
  C   C169      1.0  0.14794  0.66413  0.85182  1.0000
  H   H158      1.0  0.19943  0.71333  0.82256  1.0000
  H   H159      1.0  0.19468  0.67500  0.78299  1.0000
  H   H160      1.0  0.12876  0.62344  0.83054  1.0000
  H   H161      1.0  0.13474  0.66110  0.87101  1.0000
  C   C170      1.0  0.45185  0.52376  0.96399  1.0000
  H   H162      1.0  0.43125  0.55396  0.93250  1.0000
  C   C171      1.0  0.31993  0.82599  0.74196  1.0000
  C   C172      1.0  0.29966  0.81000  0.72271  1.0000
  C   C173      1.0  0.26926  0.80197  0.73079  1.0000
  C   C174      1.0  0.25916  0.80950  0.75830  1.0000
  C   C175      1.0  0.27930  0.82572  0.77744  1.0000
  C   C176      1.0  0.30951  0.83416  0.76921  1.0000
  H   H163      1.0  0.30706  0.80447  0.70130  1.0000
  H   H164      1.0  0.25383  0.78944  0.71581  1.0000
  H   H165      1.0  0.27189  0.83157  0.79874  1.0000
  C   C177      1.0  0.34359  0.58235  0.79496  1.0000
  C   C178      1.0  0.36005  0.60728  0.78431  1.0000
  C   C179      1.0  0.34729  0.62383  0.76131  1.0000
  C   C180      1.0  0.31738  0.61641  0.74979  1.0000
  C   C181      1.0  0.30105  0.59133  0.76031  1.0000
  C   C182      1.0  0.31435  0.57402  0.78262  1.0000
  H   H166      1.0  0.38282  0.61356  0.79364  1.0000
  H   H167      1.0  0.36058  0.64255  0.75275  1.0000
  H   H168      1.0  0.27823  0.58515  0.75133  1.0000
  H   H169      1.0  0.30160  0.55471  0.79086  1.0000
  C   C183      1.0  0.32057  0.69834  0.91683  1.0000
  C   C184      1.0  0.34381  0.71509  0.90339  1.0000
  C   C185      1.0  0.33839  0.74590  0.89613  1.0000
  C   C186      1.0  0.30921  0.75961  0.90115  1.0000
  C   C187      1.0  0.28577  0.74278  0.91423  1.0000
  C   C188      1.0  0.29177  0.71246  0.92274  1.0000
  H   H170      1.0  0.36617  0.70452  0.89891  1.0000
  H   H171      1.0  0.35661  0.75891  0.88613  1.0000
  H   H172      1.0  0.26335  0.75345  0.91850  1.0000
  H   H173      1.0  0.27414  0.70009  0.93400  1.0000
  H   H174      1.0  0.32503  0.84661  0.78418  1.0000
  C   C189      1.0  0.42598  0.67389  0.78163  1.0000
  C   C190      1.0  0.42441  0.67279  0.75153  1.0000
  C   C191      1.0  0.36291  0.64252  0.67927  1.0000
  H   H175      1.0  0.42890  0.65285  0.79343  1.0000
  H   H176      1.0  0.42620  0.65088  0.74016  1.0000
  H   H177      1.0  0.15991  0.76981  0.77350  1.0000
  C   C192      1.0  0.11146  0.80752  0.96505  1.0000
  C   C193      1.0  0.12510  0.78362  0.91131  1.0000
  H   H178      1.0  0.26261  0.73909  0.74929  1.0000
  H   H179      1.0  0.28379  0.76447  0.79228  1.0000
  N   N13       1.0  0.10477  0.80797  0.91378  1.0000
  N   N14       1.0  0.25668  0.64828  0.87951  1.0000
  C   C194      1.0  0.27453  0.62288  0.87328  1.0000
  C   C195      1.0  0.25296  0.67127  0.86008  1.0000
  C   C196      1.0  0.28850  0.61958  0.84669  1.0000
  C   C197      1.0  0.26683  0.66883  0.83333  1.0000
  C   C198      1.0  0.28456  0.64269  0.82658  1.0000
  C   C199      1.0  0.24052  0.64997  0.90677  1.0000
  H   H180      1.0  0.27822  0.60509  0.88901  1.0000
  H   H181      1.0  0.23910  0.69158  0.86519  1.0000
  H   H182      1.0  0.30267  0.59936  0.84190  1.0000
  H   H183      1.0  0.26364  0.68698  0.81793  1.0000
  H   H184      1.0  0.29546  0.64035  0.80595  1.0000
  H   H185      1.0  0.22192  0.63205  0.90698  1.0000
  H   H186      1.0  0.25770  0.64625  0.92484  1.0000
  H   H187      1.0  0.22918  0.67281  0.91031  1.0000
  C   C200      1.0  0.30540  0.89826  0.71426  1.0000
  C   C201      1.0  0.45188  0.54900  0.94568  1.0000
  C   C202      1.0  0.34572  0.69996  0.79852  1.0000
  S   S73       1.0  0.42513  0.70454  0.83380  1.0000
  H   H188      1.0  0.31694  0.76090  0.83646  1.0000
  Fe  Fe38      1.0  0.37593  0.80673  0.69658  1.0000
  S   S74       1.0  0.42591  0.79035  0.69140  1.0000
  C   C203      1.0  0.42018  0.69998  0.73616  1.0000
  H   H189      1.0  0.28116  0.70523  0.73506  1.0000
  H   H190      1.0  0.10527  0.81857  0.86941  1.0000
  C   C204      1.0  0.42385  0.70226  0.79628  1.0000
  C   C205      1.0  0.31968  0.74423  0.81900  1.0000
  H   H191      1.0  0.17349  0.78098  0.72603  1.0000
  H   H192      1.0  0.35675  0.71893  0.84064  1.0000
  Fe  Fe39      1.0  0.40279  0.74459  0.68160  1.0000
  C   C206      1.0  0.25937  0.86811  0.69774  1.0000
  H   H193      1.0  0.43110  0.50942  0.96481  1.0000
  C   C207      1.0  0.28582  0.72832  0.74512  1.0000
  H   H194      1.0  0.12978  0.73854  0.80691  1.0000
  N   N15       1.0  0.30492  0.72569  0.77160  1.0000
  H   H195      1.0  0.29852  0.74247  0.72967  1.0000
  S   S75       1.0  0.00865  0.98851  0.94840  1.0000
  N   N16       1.0  0.28979  0.87691  0.69364  1.0000
  H   H196      1.0  0.33149  0.89621  0.71355  1.0000
  C   C208      1.0  0.13284  0.78321  0.96268  1.0000
  C   C209      1.0  0.41979  0.72936  0.78091  1.0000
  H   H197      1.0  0.14391  0.70234  0.70712  1.0000
  C   C210      1.0  0.41756  0.72818  0.75093  1.0000
  H   H198      1.0  0.36311  0.68173  0.80003  1.0000
  H   H199      1.0  0.24716  0.87613  0.71656  1.0000
  H   H200      1.0  0.08361  0.52823  0.68859  1.0000
  H   H201      1.0  0.41780  0.75132  0.79218  1.0000
  H   H202      1.0  0.33154  0.68805  0.75525  1.0000
  C   C211      1.0  0.32749  0.70331  0.77340  1.0000
  H   H203      1.0  0.29847  0.92236  0.70966  1.0000
  C   C212      1.0  0.49858  0.68552  0.83250  1.0000
  H   H204      1.0  0.08146  0.83901  0.94223  1.0000
  H   H205      1.0  0.16745  0.85770  0.98366  1.0000
  C   C213      1.0  0.09744  0.81959  0.94022  1.0000
  S   S76       1.0  0.08902  0.97658  0.99309  1.0000
  S   S77       1.0  0.16000  0.62806  0.69237  1.0000
  Fe  Fe40      1.0  0.19554  0.66464  0.68394  1.0000
  S   S78       1.0  0.47952  0.59910  0.92130  1.0000
  H   H206      1.0  0.11451  0.67008  0.74016  1.0000
  N   N17       1.0  0.15282  0.73835  0.73815  1.0000
  H   H207      1.0  0.15991  0.75655  0.69686  1.0000
  C   C214      1.0  0.24409  0.84756  0.67843  1.0000
  C   C215      1.0  0.11906  0.70283  0.77537  1.0000
  H   H208      1.0  0.14437  0.77403  0.98171  1.0000
  C   C216      1.0  0.08965  0.82076  0.88803  1.0000
  C   C217      1.0  0.47849  0.51705  0.98116  1.0000
  H   H209      1.0  0.13486  0.52695  0.72772  1.0000
  H   H210      1.0  0.13061  0.77402  0.89042  1.0000
  H   H211      1.0  0.10648  0.81771  0.98588  1.0000
  H   H212      1.0  0.29923  0.89271  0.73654  1.0000
  H   H213      1.0  0.41400  0.74922  0.73930  1.0000
  H   H214      1.0  0.36160  0.65797  0.69848  1.0000
  C   C218      1.0  0.13956  0.77097  0.93567  1.0000
  H   H215      1.0  0.15613  0.75202  0.93346  1.0000
  C   C219      1.0  0.14046  0.71066  0.72886  1.0000
  C   C220      1.0  0.47864  0.56753  0.94433  1.0000
  C   C221      1.0  0.17128  0.75656  0.71862  1.0000
  H   H216      1.0  0.24884  0.70526  0.68232  1.0000
  C   C222      1.0  0.13210  0.73089  0.78480  1.0000
  H   H217      1.0  0.08520  0.84590  0.89100  1.0000
  H   H218      1.0  0.22035  0.83984  0.68223  1.0000
  S   S79       1.0  0.23171  0.63198  0.66754  1.0000
  H   H219      1.0  0.35351  0.61958  0.68481  1.0000
  H   H220      1.0  0.13780  0.55484  0.69958  1.0000
  C   C223      1.0  0.09786  0.51033  0.67888  1.0000
  H   H221      1.0  0.16976  0.52928  0.70684  1.0000
  C   C224      1.0  0.30531  0.86656  0.67005  1.0000
  C   C225      1.0  0.48972  0.71188  0.87876  1.0000
  H   H222      1.0  0.38810  0.63957  0.67407  1.0000
  H   H223      1.0  0.49260  0.70666  0.82155  1.0000
  H   H224      1.0  0.46610  0.70860  0.88781  1.0000
  H   H225      1.0  0.48833  0.73288  0.86554  1.0000
  N   N18       1.0  0.49821  0.68446  0.86176  1.0000
  H   H226      1.0  0.52098  0.24385  0.26320  1.0000
  Fe  Fe41      1.0  0.53754  0.45552  0.09102  1.0000
  S   S80       1.0  0.58908  0.45111  0.08276  1.0000
  Fe  Fe42      1.0  0.57353  0.42974  0.04056  1.0000
  S   S81       1.0  0.59050  0.38363  0.02444  1.0000
  Fe  Fe43      1.0  0.52131  0.47683  0.03086  1.0000
  H   H227      1.0  0.50686  0.14507  0.22020  1.0000
  H   H228      1.0  0.87233  0.05741  0.00073  1.0000
  H   H229      1.0  0.52826  0.36754  0.16266  1.0000
  C   C226      1.0  0.53205  0.36141  0.14039  1.0000
  C   C227      1.0  0.94655  0.00542  0.03361  1.0000
  H   H230      1.0  0.54531  0.34180  0.06069  1.0000
  H   H231      1.0  0.57041  0.39373  0.13722  1.0000
  H   H232      1.0  0.95773  0.00482  0.05481  1.0000
  H   H233      1.0  0.57941  0.38038  0.08608  1.0000
  C   C228      1.0  0.56086  0.36906  0.09739  1.0000
  H   H234      1.0  0.92616  0.05026  0.04001  1.0000
  S   S82       1.0  0.51843  0.44581  0.13440  1.0000
  S   S83       1.0  0.57116  0.47418  0.01682  1.0000
  C   C229      1.0  0.55606  0.37624  0.12616  1.0000
  C   C230      1.0  0.92871  0.03098  0.02510  1.0000
  N   N19       1.0  0.51303  0.34031  0.12619  1.0000
  H   H235      1.0  0.50651  0.21584  0.30680  1.0000
  S   S84       1.0  0.52256  0.43043  0.05069  1.0000
  C   C231      1.0  0.54161  0.34733  0.08313  1.0000
  C   C232      1.0  0.51770  0.33299  0.09798  1.0000
  C   C233      1.0  0.50323  0.25324  0.27718  1.0000
  H   H236      1.0  0.50284  0.31606  0.08680  1.0000
  H   H237      1.0  0.50337  0.19309  0.19253  1.0000
  Fe  Fe44      1.0  0.58276  0.49595  0.06014  1.0000
  H   H238      1.0  0.62416  0.43517  0.00188  1.0000
  C   C234      1.0  0.78070  0.27792  0.61821  1.0000
  H   H239      1.0  0.55139  0.02927  0.47278  1.0000
  C   C235      1.0  0.95017  0.40257  0.55237  1.0000
  H   H240      1.0  0.62760  0.02721  0.65671  1.0000
  S   S85       1.0  0.99610  0.47120  0.46459  1.0000
  C   C236      1.0  0.66018  0.06248  0.64499  1.0000
  C   C237      1.0  0.63817  0.03894  0.63920  1.0000
  C   C238      1.0  0.62998  0.03020  0.61082  1.0000
  C   C239      1.0  0.64365  0.04516  0.58811  1.0000
  C   C240      1.0  0.66525  0.06907  0.59386  1.0000
  C   C241      1.0  0.67347  0.07776  0.62225  1.0000
  H   H241      1.0  0.70603  0.01409  0.62015  1.0000
  C   C242      1.0  0.50083  0.03184  0.46967  1.0000
  H   H242      1.0  0.67577  0.08080  0.57633  1.0000
  H   H243      1.0  0.69026  0.09608  0.62650  1.0000
  C   C243      1.0  0.75726  0.25566  0.62113  1.0000
  C   C244      1.0  0.53133  0.04037  0.46276  1.0000
  H   H244      1.0  0.79106  0.06216  0.64510  1.0000
  C   C245      1.0  0.80373  0.26406  0.66413  1.0000
  H   H245      1.0  0.88656  0.24897  0.63883  1.0000
  S   S86       1.0  0.63452  0.03412  0.55239  1.0000
  H   H246      1.0  0.91512  0.33486  0.56708  1.0000
  C   C246      1.0  0.52029  0.11238  0.49538  1.0000
  H   H247      1.0  0.61427  0.11523  0.49909  1.0000
  C   C247      1.0  0.92585  0.40468  0.59837  1.0000
  C   C248      1.0  0.72363  0.02034  0.63658  1.0000
  C   C249      1.0  0.51000  0.07839  0.42995  1.0000
  C   C250      1.0  0.75707  0.23738  0.64543  1.0000
  H   H248      1.0  0.84025  0.23227  0.60864  1.0000
  H   H249      1.0  0.61366  0.07371  0.50155  1.0000
  C   C251      1.0  0.87327  0.22873  0.64438  1.0000
  H   H250      1.0  0.78066  0.29191  0.59930  1.0000
  H   H251      1.0  0.96454  0.41290  0.53634  1.0000
  C   C252      1.0  0.50582  0.09289  0.51436  1.0000
  H   H252      1.0  0.92132  0.41718  0.61823  1.0000
  C   C253      1.0  0.93997  0.37218  0.54863  1.0000
  H   H253      1.0  0.55953  0.07014  0.43752  1.0000
  H   H254      1.0  0.95184  0.44228  0.58091  1.0000
  H   H255      1.0  0.89739  0.33488  0.61441  1.0000
  C   C254      1.0  0.55712  0.07657  0.53174  1.0000
  S   S87       1.0  0.74438  0.12389  0.65862  1.0000
  C   C255      1.0  0.89812  0.36041  0.61697  1.0000
  C   C256      1.0  0.78031  0.24161  0.66700  1.0000
  H   H256      1.0  0.94639  0.35896  0.52971  1.0000
  C   C257      1.0  0.94304  0.41902  0.57735  1.0000
  C   C258      1.0  0.97878  0.38234  0.65077  1.0000
  C   C259      1.0  0.80389  0.28231  0.63974  1.0000
  C   C260      1.0  0.92261  0.35862  0.56999  1.0000
  C   C261      1.0  0.53590  0.06353  0.44283  1.0000
  H   H257      1.0  0.90934  0.36564  0.63830  1.0000
  C   C262      1.0  0.60553  0.09569  0.51159  1.0000
  S   S88       1.0  0.72701  0.21015  0.64828  1.0000
  S   S89       1.0  0.83273  0.31066  0.63542  1.0000
  N   N20       1.0  0.91604  0.37481  0.59456  1.0000
  C   C263      1.0  0.99560  0.40693  0.63966  1.0000
  C   C264      1.0  0.83868  0.17801  0.66000  1.0000
  H   H258      1.0  0.87353  0.36918  0.61662  1.0000
  H   H259      1.0  0.73922  0.25253  0.60445  1.0000
  H   H260      1.0  0.61646  0.09759  0.53352  1.0000
  H   H261      1.0  0.56412  0.12756  0.47913  1.0000
  N   N21       1.0  0.57112  0.09562  0.51298  1.0000
  H   H262      1.0  0.80913  0.18674  0.62257  1.0000
  S   S90       1.0  0.51645  0.10818  0.40614  1.0000
  C   C265      1.0  0.82987  0.19378  0.63521  1.0000
  C   C266      1.0  0.74897  0.03884  0.62926  1.0000
  C   C267      1.0  0.77137  0.04761  0.65033  1.0000
  C   C268      1.0  0.55318  0.11327  0.49479  1.0000
  H   H263      1.0  0.75088  0.04670  0.60750  1.0000
  C   C269      1.0  0.84735  0.21927  0.62737  1.0000
  H   H264      1.0  0.57142  0.06229  0.54584  1.0000
  H   H265      1.0  0.51321  0.05897  0.54693  1.0000
  H   H266      1.0  0.96479  0.33496  0.64438  1.0000
  C   C270      1.0  0.52428  0.07483  0.53267  1.0000
  H   H267      1.0  0.73793  0.30079  0.66371  1.0000
  C   C271      1.0  0.97724  0.35416  0.63569  1.0000
  H   H268      1.0  0.61315  0.01185  0.60655  1.0000
  H   H269      1.0  0.99054  0.32910  0.59751  1.0000
  H   H270      1.0  0.50616  0.12567  0.48029  1.0000
  H   H271      1.0  0.53871  0.00712  0.39220  1.0000
  N   N22       1.0  0.72048  0.01122  0.66423  1.0000
  C   C272      1.0  0.99192  0.35084  0.60927  1.0000
  H   H272      1.0  0.99693  0.42871  0.65138  1.0000
  S   S91       1.0  0.55049  0.99914  0.56133  1.0000
  C   C273      1.0  0.51402  0.00307  0.39599  1.0000
  H   H273      1.0  0.82495  0.15826  0.66593  1.0000
  Fe  Fe45      1.0  0.70409  0.35353  0.90269  1.0000
  S   S92       1.0  0.68498  0.30786  0.88662  1.0000
  S   S93       1.0  0.67597  0.39473  0.91726  1.0000
  Fe  Fe46      1.0  0.77174  0.33652  0.89113  1.0000
  S   S94       1.0  0.75911  0.28935  0.87478  1.0000
  S   S95       1.0  0.82321  0.34739  0.88902  1.0000
  Fe  Fe47      1.0  0.71926  0.31259  0.85144  1.0000
  S   S96       1.0  0.71005  0.30059  0.80496  1.0000
  Fe  Fe48      1.0  0.72630  0.28798  0.91114  1.0000
  S   S97       1.0  0.71945  0.24618  0.93803  1.0000
  S   S98       1.0  0.73444  0.36009  0.86480  1.0000
  S   S99       1.0  0.74278  0.33336  0.93031  1.0000
  H   H274      1.0  0.51899  0.47284  0.95560  1.0000
  C   C274      1.0  0.61749  0.38614  0.99685  1.0000
  C   C275      1.0  0.81600  0.24931  0.77509  1.0000
  Fe  Fe49      1.0  0.86526  0.35435  0.73343  1.0000
  S   S100      1.0  0.91575  0.34127  0.74169  1.0000
  S   S101      1.0  0.83360  0.38360  0.76018  1.0000
  H   H275      1.0  0.58312  0.39933  0.93961  1.0000
  C   C276      1.0  0.91794  0.00731  0.97955  1.0000
  Fe  Fe50      1.0  0.90097  0.29514  0.72277  1.0000
  S   S102      1.0  0.91111  0.24688  0.73654  1.0000
  C   C277      1.0  0.99459  0.10309  0.89001  1.0000
  S   S103      1.0  0.84986  0.30723  0.71886  1.0000
  Fe  Fe51      1.0  0.77921  0.11953  0.69523  1.0000
  S   S104      1.0  0.74499  0.09860  0.72445  1.0000
  S   S105      1.0  0.82717  0.09935  0.68982  1.0000
  H   H276      1.0  0.70663  0.32071  0.74852  1.0000
  S   S106      1.0  0.69663  0.15454  0.70612  1.0000
  S   S107      1.0  0.87220  0.37045  0.68896  1.0000
  Fe  Fe52      1.0  0.73599  0.14733  0.73833  1.0000
  S   S108      1.0  0.73442  0.15861  0.78523  1.0000
  C   C278      1.0  0.70968  0.12507  0.85248  1.0000
  H   H277      1.0  0.82447  0.21261  0.74435  1.0000
  S   S109      1.0  0.77335  0.16785  0.71182  1.0000
  C   C279      1.0  0.96411  0.02797  0.92688  1.0000
  Fe  Fe53      1.0  0.89898  0.12245  0.90953  1.0000
  S   S110      1.0  0.91429  0.14244  0.86838  1.0000
  S   S111      1.0  0.93339  0.11424  0.94623  1.0000
  Fe  Fe54      1.0  0.83003  0.12310  0.89090  1.0000
  S   S112      1.0  0.83929  0.14197  0.84784  1.0000
  S   S113      1.0  0.78113  0.11755  0.90652  1.0000
  Fe  Fe55      1.0  0.87988  0.10897  0.84770  1.0000
  S   S114      1.0  0.89723  0.08167  0.80987  1.0000
  Fe  Fe56      1.0  0.87248  0.17355  0.87204  1.0000
  S   S115      1.0  0.87133  0.22408  0.86324  1.0000
  S   S116      1.0  0.86750  0.08650  0.88885  1.0000
  S   S117      1.0  0.86039  0.15709  0.91531  1.0000
  N   N23       1.0  0.54954  0.43429  0.94976  1.0000
  C   C280      1.0  0.62557  0.35958  0.98108  1.0000
  H   H278      1.0  0.65050  0.34130  0.94478  1.0000
  C   C281      1.0  0.95325  0.07876  0.94700  1.0000
  H   H279      1.0  0.81870  0.30457  0.79746  1.0000
  C   C282      1.0  0.53037  0.41365  0.96649  1.0000
  C   C283      1.0  0.94719  0.05579  0.92612  1.0000
  H   H280      1.0  0.73906  0.01370  0.70714  1.0000
  H   H281      1.0  0.92973  0.05956  0.90926  1.0000
  C   C284      1.0  0.84628  0.09495  0.72337  1.0000
  C   C285      1.0  0.87547  0.08010  0.72502  1.0000
  C   C286      1.0  0.89087  0.07620  0.75167  1.0000
  C   C287      1.0  0.87735  0.08743  0.77680  1.0000
  C   C288      1.0  0.84823  0.10256  0.77511  1.0000
  C   C289      1.0  0.83268  0.10629  0.74843  1.0000
  H   H282      1.0  0.88609  0.07130  0.70573  1.0000
  H   H283      1.0  0.91331  0.06441  0.75284  1.0000
  H   H284      1.0  0.83730  0.11073  0.79436  1.0000
  H   H285      1.0  0.81007  0.11770  0.74738  1.0000
  S   S118      1.0  0.95882  0.38821  0.68281  1.0000
  H   H286      1.0  0.79442  0.24016  0.84291  1.0000
  H   H287      1.0  0.90711  0.00790  0.95825  1.0000
  H   H288      1.0  0.81616  0.29268  0.83367  1.0000
  H   H289      1.0  0.64051  0.22760  0.85097  1.0000
  C   C290      1.0  0.67156  0.15922  0.82843  1.0000
  C   C291      1.0  0.90059  0.24089  0.77193  1.0000
  C   C292      1.0  0.89997  0.21085  0.78225  1.0000
  C   C293      1.0  0.89094  0.20562  0.81032  1.0000
  C   C294      1.0  0.88295  0.23048  0.82823  1.0000
  C   C295      1.0  0.88369  0.26053  0.81797  1.0000
  C   C296      1.0  0.89226  0.26575  0.78972  1.0000
  H   H290      1.0  0.90652  0.19157  0.76862  1.0000
  H   H291      1.0  0.89034  0.18235  0.81809  1.0000
  H   H292      1.0  0.87769  0.27975  0.83186  1.0000
  H   H293      1.0  0.89285  0.28901  0.78188  1.0000
  C   C297      1.0  0.71581  0.26101  0.79932  1.0000
  C   C298      1.0  0.71723  0.24872  0.77144  1.0000
  C   C299      1.0  0.72294  0.21718  0.76697  1.0000
  C   C300      1.0  0.72744  0.19801  0.79041  1.0000
  C   C301      1.0  0.72632  0.21035  0.81824  1.0000
  C   C302      1.0  0.71987  0.24167  0.82269  1.0000
  H   H294      1.0  0.71386  0.26342  0.75328  1.0000
  H   H295      1.0  0.72381  0.20777  0.74539  1.0000
  H   H296      1.0  0.73055  0.19576  0.83641  1.0000
  H   H297      1.0  0.71774  0.25070  0.84423  1.0000
  C   C303      1.0  0.73758  0.21105  0.92872  1.0000
  C   C304      1.0  0.73173  0.18527  0.94526  1.0000
  C   C305      1.0  0.74526  0.15666  0.93840  1.0000
  C   C306      1.0  0.76531  0.15380  0.91532  1.0000
  C   C307      1.0  0.77183  0.17970  0.89909  1.0000
  C   C308      1.0  0.75764  0.20823  0.90556  1.0000
  H   H298      1.0  0.71635  0.18732  0.96326  1.0000
  H   H299      1.0  0.74025  0.13675  0.95106  1.0000
  H   H300      1.0  0.78737  0.17761  0.88126  1.0000
  H   H301      1.0  0.76245  0.22795  0.89278  1.0000
  C   C309      1.0  0.82973  0.36083  0.85460  1.0000
  C   C310      1.0  0.85412  0.34856  0.83833  1.0000
  C   C311      1.0  0.85617  0.35597  0.80928  1.0000
  C   C312      1.0  0.83426  0.37623  0.79690  1.0000
  C   C313      1.0  0.81118  0.38986  0.81371  1.0000
  C   C314      1.0  0.80878  0.38199  0.84242  1.0000
  H   H302      1.0  0.87069  0.33257  0.84787  1.0000
  H   H303      1.0  0.87437  0.34574  0.79646  1.0000
  H   H304      1.0  0.79470  0.40615  0.80444  1.0000
  H   H305      1.0  0.79080  0.39253  0.85524  1.0000
  C   C315      1.0  0.65598  0.39053  0.94926  1.0000
  C   C316      1.0  0.64874  0.41689  0.96563  1.0000
  H   H306      1.0  0.78504  0.04539  0.69502  1.0000
  H   H307      1.0  0.82204  0.26653  0.68041  1.0000
  H   H308      1.0  0.98051  0.09136  0.98510  1.0000
  C   C317      1.0  0.64493  0.36174  0.95733  1.0000
  H   H309      1.0  0.97938  0.12305  0.88774  1.0000
  H   H310      1.0  0.67052  0.21308  0.89530  1.0000
  C   C318      1.0  0.76798  0.03820  0.67842  1.0000
  C   C319      1.0  0.74207  0.02015  0.68509  1.0000
  S   S119      1.0  0.91216  0.30684  0.67765  1.0000
  C   C320      1.0  0.62962  0.41470  0.98943  1.0000
  H   H311      1.0  0.96441  0.10166  0.83932  1.0000
  C   C321      1.0  0.57587  0.42314  0.93692  1.0000
  N   N24       1.0  0.91479  0.03172  0.99832  1.0000
  H   H312      1.0  0.73106  0.36048  0.77691  1.0000
  Fe  Fe57      1.0  0.86189  0.32183  0.67504  1.0000
  H   H313      1.0  0.71238  0.11481  0.87404  1.0000
  H   H314      1.0  0.61639  0.33739  0.98686  1.0000
  H   H315      1.0  0.69995  0.29247  0.70212  1.0000
  H   H316      1.0  0.76161  0.38340  0.76230  1.0000
  H   H317      1.0  0.88510  0.14842  0.69593  1.0000
  H   H318      1.0  0.73336  0.13254  0.84582  1.0000
  Fe  Fe58      1.0  0.92194  0.35432  0.69576  1.0000
  H   H319      1.0  0.61572  0.43362  0.91119  1.0000
  C   C322      1.0  0.74082  0.31298  0.68415  1.0000
  C   C323      1.0  0.76949  0.34846  0.71566  1.0000
  C   C324      1.0  0.87305  0.17017  0.70225  1.0000
  H   H320      1.0  0.51663  0.42678  0.98259  1.0000
  H   H321      1.0  0.90184  0.21971  0.68192  1.0000
  C   C325      1.0  0.80570  0.28926  0.81171  1.0000
  C   C326      1.0  0.96667  0.07851  0.84897  1.0000
  H   H322      1.0  0.78926  0.36393  0.71935  1.0000
  H   H323      1.0  0.78063  0.29651  0.81171  1.0000
  H   H324      1.0  0.95966  0.01033  0.91052  1.0000
  H   H325      1.0  0.54554  0.39716  0.97855  1.0000
  H   H326      1.0  0.77099  0.34659  0.77756  1.0000
  C   C327      1.0  0.81755  0.21845  0.76592  1.0000
  N   N25       1.0  0.84192  0.27173  0.93006  1.0000
  C   C328      1.0  0.84097  0.24042  0.93294  1.0000
  C   C329      1.0  0.82035  0.29019  0.94328  1.0000
  C   C330      1.0  0.81846  0.22687  0.94990  1.0000
  C   C331      1.0  0.79753  0.27740  0.96042  1.0000
  C   C332      1.0  0.79672  0.24557  0.96380  1.0000
  C   C333      1.0  0.86494  0.28532  0.91130  1.0000
  H   H327      1.0  0.85756  0.22576  0.92191  1.0000
  H   H328      1.0  0.82055  0.31495  0.94047  1.0000
  H   H329      1.0  0.81736  0.20199  0.95168  1.0000
  H   H330      1.0  0.78011  0.29197  0.97055  1.0000
  C   C334      1.0  0.99256  0.04578  0.96973  1.0000
  H   H331      1.0  0.88689  0.27139  0.91066  1.0000
  H   H332      1.0  0.85476  0.28641  0.88914  1.0000
  H   H333      1.0  0.87145  0.30909  0.91859  1.0000
  H   H334      1.0  0.85195  0.16412  0.71443  1.0000
  C   C335      1.0  0.76603  0.33315  0.68909  1.0000
  H   H335      1.0  0.88904  0.18372  0.71701  1.0000
  H   H336      1.0  0.70109  0.10675  0.83722  1.0000
  H   H337      1.0  0.97163  0.06193  0.83120  1.0000
  C   C336      1.0  0.59440  0.44246  0.92076  1.0000
  N   N26       1.0  0.86403  0.18751  0.67667  1.0000
  H   H338      1.0  0.81066  0.17123  0.77804  1.0000
  H   H339      1.0  0.79486  0.18556  0.82716  1.0000
  C   C337      1.0  0.71942  0.30841  0.70568  1.0000
  C   C338      1.0  0.80166  0.20326  0.81261  1.0000
  C   C339      1.0  0.98694  0.02298  0.94862  1.0000
  C   C340      1.0  0.58572  0.47327  0.91768  1.0000
  H   H340      1.0  0.94364  0.07234  0.85792  1.0000
  N   N27       1.0  0.99133  0.07825  0.87160  1.0000
  C   C341      1.0  0.67015  0.19785  0.87649  1.0000
  C   C342      1.0  0.65331  0.20594  0.85167  1.0000
  N   N28       1.0  0.74823  0.34407  0.73661  1.0000
  C   C343      1.0  0.72344  0.32433  0.73192  1.0000
  Fe  Fe59      1.0  0.70899  0.10731  0.68940  1.0000
  C   C344      1.0  0.68742  0.17037  0.87668  1.0000
  H   H341      1.0  0.70072  0.16442  0.89582  1.0000
  C   C345      1.0  0.80087  0.23428  0.82122  1.0000
  C   C346      1.0  0.81018  0.19530  0.78484  1.0000
  H   H342      1.0  0.67308  0.14497  0.80913  1.0000
  H   H343      1.0  0.65759  0.43914  0.95963  1.0000
  C   C347      1.0  0.75311  0.35938  0.76468  1.0000
  C   C348      1.0  0.65375  0.18641  0.82752  1.0000
  H   H344      1.0  0.64149  0.19285  0.80783  1.0000
  H   H345      1.0  0.82175  0.26714  0.76031  1.0000
  N   N29       1.0  0.80801  0.25685  0.80252  1.0000
  N   N30       1.0  0.68828  0.15165  0.85278  1.0000
  H   H346      1.0  0.77860  0.23536  0.97645  1.0000
  H   H347      1.0  0.51380  0.40055  0.95203  1.0000
  C   C349      1.0  0.97572  0.07359  0.96893  1.0000
  C   C350      1.0  0.55837  0.48425  0.93024  1.0000
  H   H348      1.0  0.67940  0.00456  0.68793  1.0000
  H   H349      1.0  0.60023  0.48857  0.90561  1.0000
  H   H350      1.0  0.78013  0.22779  0.68593  1.0000
  H   H351      1.0  0.78294  0.33676  0.67254  1.0000
  C   C351      1.0  0.54028  0.46421  0.94604  1.0000
  C   C352      1.0  0.89543  0.05839  0.99031  1.0000
  C   C353      1.0  0.88150  0.21232  0.66897  1.0000
  H   H352      1.0  0.89118  0.05939  0.96672  1.0000
  Fe  Fe60      1.0  0.73498  0.17071  0.67799  1.0000
  S   S120      1.0  0.67249  0.07035  0.68071  1.0000
  H   H353      1.0  0.90758  0.08027  0.99679  1.0000
  C   C354      1.0  0.80766  0.70728  0.30979  1.0000
  S   S121      1.0  0.72298  0.80492  0.29249  1.0000
  H   H354      1.0  0.88608  0.64688  0.20619  1.0000
  Fe  Fe61      1.0  0.71220  0.59609  0.19513  1.0000
  S   S122      1.0  0.74471  0.61170  0.16156  1.0000
  S   S123      1.0  0.67586  0.55857  0.18922  1.0000
  Fe  Fe62      1.0  0.73680  0.64364  0.23883  1.0000
  S   S124      1.0  0.77106  0.66391  0.20910  1.0000
  S   S125      1.0  0.73423  0.66033  0.28425  1.0000
  Fe  Fe63      1.0  0.73159  0.65940  0.17622  1.0000
  S   S126      1.0  0.71632  0.69322  0.14279  1.0000
  Fe  Fe64      1.0  0.78110  0.61479  0.19733  1.0000
  S   S127      1.0  0.83106  0.59931  0.19341  1.0000
  S   S128      1.0  0.69618  0.64371  0.20732  1.0000
  S   S129      1.0  0.74996  0.59453  0.22980  1.0000
  Fe  Fe65      1.0  0.88544  0.83508  0.20665  1.0000
  S   S130      1.0  0.92358  0.80101  0.19666  1.0000
  S   S131      1.0  0.89308  0.87285  0.23952  1.0000
  Fe  Fe66      1.0  0.84217  0.81109  0.15912  1.0000
  S   S132      1.0  0.87653  0.77547  0.14444  1.0000
  S   S133      1.0  0.79478  0.81614  0.13763  1.0000
  Fe  Fe67      1.0  0.88396  0.76710  0.19131  1.0000
  S   S134      1.0  0.88240  0.71879  0.20757  1.0000
  Fe  Fe68      1.0  0.91279  0.81277  0.15085  1.0000
  S   S135      1.0  0.95309  0.81726  0.12077  1.0000
  S   S136      1.0  0.84679  0.80016  0.20564  1.0000
  S   S137      1.0  0.87742  0.84941  0.16128  1.0000
  H   H355      1.0  0.93156  0.75986  0.29632  1.0000
  H   H356      1.0  0.99725  0.83723  0.07975  1.0000
  C   C355      1.0  0.91077  0.71527  0.30219  1.0000
  H   H357      1.0  0.60730  0.58597  0.17858  1.0000
  S   S138      1.0  0.61770  0.53480  0.06448  1.0000
  C   C356      1.0  0.72494  0.74725  0.31484  1.0000
  C   C357      1.0  0.95996  0.85373  0.10637  1.0000
  H   H358      1.0  0.66314  0.66593  0.10794  1.0000
  C   C358      1.0  0.76761  0.86106  0.25742  1.0000
  C   C359      1.0  0.95150  0.90906  0.10643  1.0000
  C   C360      1.0  0.94323  0.87967  0.11558  1.0000
  H   H359      1.0  0.82212  0.74951  0.25127  1.0000
  H   H360      1.0  0.92454  0.87731  0.13042  1.0000
  C   C361      1.0  0.73668  0.72844  0.14424  1.0000
  C   C362      1.0  0.76491  0.73180  0.16019  1.0000
  C   C363      1.0  0.78261  0.75893  0.15859  1.0000
  C   C364      1.0  0.77196  0.78291  0.14124  1.0000
  C   C365      1.0  0.74331  0.77994  0.12592  1.0000
  C   C366      1.0  0.72578  0.75268  0.12729  1.0000
  H   H361      1.0  0.77381  0.71314  0.17290  1.0000
  H   H362      1.0  0.80480  0.76093  0.17036  1.0000
  H   H363      1.0  0.73495  0.79849  0.11254  1.0000
  H   H364      1.0  0.70398  0.75024  0.11489  1.0000
  C   C367      1.0  0.63567  0.53890  0.09875  1.0000
  C   C368      1.0  0.62335  0.52414  0.12225  1.0000
  C   C369      1.0  0.63643  0.52972  0.14985  1.0000
  C   C370      1.0  0.66169  0.55022  0.15411  1.0000
  C   C371      1.0  0.67413  0.56478  0.13055  1.0000
  C   C372      1.0  0.66130  0.55895  0.10292  1.0000
  H   H365      1.0  0.97462  0.65413  0.30057  1.0000
  H   H366      1.0  0.80168  0.88886  0.29872  1.0000
  H   H367      1.0  0.69347  0.58065  0.13356  1.0000
  H   H368      1.0  0.67088  0.57041  0.08479  1.0000
  C   C373      1.0  0.85466  0.60403  0.27805  1.0000
  C   C374      1.0  0.84191  0.61104  0.25084  1.0000
  C   C375      1.0  0.84586  0.59050  0.22765  1.0000
  C   C376      1.0  0.86184  0.56271  0.23180  1.0000
  H   H369      1.0  0.78817  0.92168  0.27858  1.0000
  H   H370      1.0  0.82929  0.63246  0.24772  1.0000
  H   H371      1.0  0.86464  0.54667  0.21398  1.0000
  H   H372      1.0  0.59427  0.59843  0.07948  1.0000
  C   C377      1.0  0.89332  0.69117  0.28926  1.0000
  C   C378      1.0  0.88364  0.69279  0.26037  1.0000
  C   C379      1.0  0.89166  0.71836  0.24434  1.0000
  C   C380      1.0  0.90854  0.74270  0.25744  1.0000
  H   H373      1.0  0.85514  0.77796  0.28748  1.0000
  H   H374      1.0  0.88765  0.67110  0.30132  1.0000
  H   H375      1.0  0.87029  0.67408  0.25041  1.0000
  C   C381      1.0  0.64034  0.64085  0.14086  1.0000
  H   H376      1.0  0.88526  0.53333  0.26234  1.0000
  C   C382      1.0  0.72785  0.70018  0.28615  1.0000
  C   C383      1.0  0.72523  0.71738  0.26117  1.0000
  C   C384      1.0  0.72292  0.74963  0.26307  1.0000
  C   C385      1.0  0.72320  0.76458  0.28994  1.0000
  H   H377      1.0  0.77037  0.65399  0.10571  1.0000
  H   H378      1.0  0.72536  0.70594  0.24039  1.0000
  H   H379      1.0  0.72139  0.76296  0.24377  1.0000
  H   H380      1.0  0.99119  0.83870  0.18054  1.0000
  C   C386      1.0  0.79537  0.55367  0.29636  1.0000
  C   C387      1.0  0.84644  0.84026  0.30712  1.0000
  C   C388      1.0  0.85681  0.84424  0.27912  1.0000
  C   C389      1.0  0.88175  0.86439  0.27429  1.0000
  C   C390      1.0  0.89682  0.87973  0.29745  1.0000
  H   H381      1.0  0.76230  0.82891  0.19043  1.0000
  C   C391      1.0  0.77081  0.84340  0.20826  1.0000
  H   H382      1.0  0.84476  0.83266  0.26129  1.0000
  H   H383      1.0  0.91600  0.89541  0.29385  1.0000
  H   H384      1.0  0.81726  0.53971  0.29852  1.0000
  H   H385      1.0  0.82692  0.89669  0.22557  1.0000
  H   H386      1.0  0.82651  0.82554  0.31083  1.0000
  H   H387      1.0  0.93830  0.91778  0.20747  1.0000
  C   C392      1.0  0.95704  0.90777  0.19495  1.0000
  C   C393      1.0  0.80315  0.90070  0.27793  1.0000
  C   C394      1.0  0.82302  0.74229  0.27337  1.0000
  H   H388      1.0  0.91473  0.76255  0.24529  1.0000
  H   H389      1.0  0.73666  0.82688  0.23743  1.0000
  C   C395      1.0  0.64579  0.64851  0.11251  1.0000
  C   C396      1.0  0.88733  0.87479  0.32540  1.0000
  N   N31       1.0  0.79270  0.88025  0.25410  1.0000
  C   C397      1.0  0.79615  0.86327  0.20494  1.0000
  N   N32       1.0  0.79691  0.69576  0.10672  1.0000
  C   C398      1.0  0.82250  0.71123  0.11821  1.0000
  C   C399      1.0  0.79067  0.66629  0.11476  1.0000
  C   C400      1.0  0.84188  0.69761  0.13914  1.0000
  C   C401      1.0  0.81001  0.65181  0.13518  1.0000
  C   C402      1.0  0.83541  0.66781  0.14777  1.0000
  C   C403      1.0  0.77687  0.71027  0.08474  1.0000
  H   H390      1.0  0.82749  0.73460  0.11184  1.0000
  H   H391      1.0  0.86164  0.71012  0.14884  1.0000
  H   H392      1.0  0.80533  0.62837  0.14145  1.0000
  H   H393      1.0  0.84994  0.65714  0.16428  1.0000
  H   H394      1.0  0.77726  0.73585  0.08727  1.0000
  H   H395      1.0  0.78500  0.70369  0.06310  1.0000
  H   H396      1.0  0.75189  0.70315  0.08669  1.0000
  N   N33       1.0  0.93023  0.64231  0.22769  1.0000
  C   C404      1.0  0.92968  0.61971  0.24762  1.0000
  C   C405      1.0  0.96340  0.87632  0.19645  1.0000
  H   H397      1.0  0.60343  0.50883  0.11927  1.0000
  C   C406      1.0  0.96351  0.67329  0.25930  1.0000
  H   H398      1.0  0.94992  0.86204  0.21034  1.0000
  H   H399      1.0  0.58566  0.58564  0.12989  1.0000
  C   C407      1.0  0.97675  0.91273  0.08825  1.0000
  C   C408      1.0  0.98431  0.85726  0.08707  1.0000
  S   S139      1.0  0.98923  0.95018  0.08079  1.0000
  C   C409      1.0  0.94704  0.66878  0.23313  1.0000
  C   C410      1.0  0.99280  0.88675  0.07807  1.0000
  H   H400      1.0  0.77488  0.53782  0.29473  1.0000
  H   H401      1.0  0.94653  0.68724  0.21781  1.0000
  H   H402      1.0  0.65349  0.65286  0.15793  1.0000
  H   H403      1.0  0.80742  0.86425  0.18443  1.0000
  C   C411      1.0  0.80620  0.71647  0.28136  1.0000
  H   H404      1.0  0.96975  0.95049  0.17555  1.0000
  C   C412      1.0  0.87346  0.55518  0.25914  1.0000
  H   H405      1.0  0.82817  0.90762  0.27596  1.0000
  C   C413      1.0  0.86191  0.85543  0.33028  1.0000
  H   H406      1.0  0.91620  0.59890  0.24341  1.0000
  C   C414      1.0  0.99863  0.91247  0.16124  1.0000
  H   H407      1.0  0.91936  0.65341  0.18410  1.0000
  C   C415      1.0  0.76967  0.59802  0.31889  1.0000
  C   C416      1.0  0.60684  0.61102  0.09663  1.0000
  C   C417      1.0  0.91040  0.63917  0.20157  1.0000
  H   H408      1.0  0.90926  0.61478  0.19376  1.0000
  N   N34       1.0  0.61914  0.61835  0.14688  1.0000
  H   H409      1.0  0.79191  0.70364  0.26559  1.0000
  H   H410      1.0  0.63514  0.61419  0.19038  1.0000
  C   C418      1.0  0.91816  0.74111  0.28632  1.0000
  H   H411      1.0  0.85173  0.61999  0.29583  1.0000
  C   C419      1.0  0.87026  0.57594  0.28222  1.0000
  H   H412      1.0  0.63340  0.63853  0.06815  1.0000
  C   C420      1.0  0.72733  0.71508  0.31295  1.0000
  C   C421      1.0  0.60216  0.60378  0.12523  1.0000
  H   H413      1.0  0.94470  0.60552  0.28983  1.0000
  H   H414      1.0  0.75605  0.86016  0.27779  1.0000
  C   C422      1.0  0.61352  0.61073  0.17671  1.0000
  C   C423      1.0  0.94590  0.62337  0.27394  1.0000
  C   C424      1.0  0.84155  0.75834  0.29397  1.0000
  C   C425      1.0  0.98703  0.86337  0.17982  1.0000
  C   C426      1.0  0.75644  0.84224  0.23463  1.0000
  H   H415      1.0  0.93890  0.92910  0.11421  1.0000
  C   C427      1.0  0.80693  0.88160  0.22824  1.0000
  H   H416      1.0  0.59434  0.62532  0.18523  1.0000
  C   C428      1.0  0.62901  0.63333  0.09027  1.0000
  H   H417      1.0  0.79678  0.56641  0.27603  1.0000
  H   H418      1.0  0.75521  0.60045  0.29952  1.0000
  H   H419      1.0  0.79415  0.68753  0.31623  1.0000
  H   H420      1.0  0.96429  0.96085  0.02076  1.0000
  C   C429      1.0  0.82628  0.72398  0.32985  1.0000
  S   S140      1.0  0.53238  0.50242  0.07211  1.0000
  S   S141      1.0  0.88500  0.56535  0.31604  1.0000
  H   H421      1.0  0.62670  0.51840  0.16800  1.0000
  N   N35       1.0  0.84333  0.74885  0.32171  1.0000
  C   C430      1.0  0.96275  0.65047  0.27986  1.0000
  H   H422      1.0  0.97564  0.69486  0.26410  1.0000
  N   N36       1.0  0.79195  0.57529  0.32063  1.0000
  C   C431      1.0  0.97473  0.92605  0.17722  1.0000
  H   H423      1.0  0.88370  0.77622  0.33331  1.0000
  H   H424      1.0  0.72910  0.70186  0.33231  1.0000
  C   C432      1.0  0.95023  0.98064  0.01448  1.0000
  Fe  Fe69      1.0  0.79906  0.83842  0.36834  1.0000
  S   S142      1.0  0.78009  0.79180  0.35618  1.0000
  Fe  Fe70      1.0  0.73579  0.86335  0.38715  1.0000
  S   S143      1.0  0.71076  0.81902  0.37600  1.0000
  S   S144      1.0  0.71545  0.90637  0.40737  1.0000
  Fe  Fe71      1.0  0.75306  0.79634  0.39644  1.0000
  S   S145      1.0  0.74501  0.75983  0.42866  1.0000
  H   H425      1.0  0.96926  0.50984  0.52099  1.0000
  S   S146      1.0  0.77591  0.84070  0.41064  1.0000
  H   H426      1.0  0.67800  0.98642  0.65314  1.0000
  H   H427      1.0  0.97055  0.63820  0.48517  1.0000
  Fe  Fe72      1.0  0.91170  0.66952  0.35918  1.0000
  Fe  Fe73      1.0  0.87007  0.63802  0.40039  1.0000
  S   S147      1.0  0.89465  0.59258  0.39537  1.0000
  S   S148      1.0  0.82963  0.63989  0.42989  1.0000
  Fe  Fe74      1.0  0.93906  0.62034  0.39804  1.0000
  C   C433      1.0  0.99093  0.62716  0.49646  1.0000
  C   C434      1.0  0.86260  0.76620  0.34307  1.0000
  H   H428      1.0  0.82712  0.71685  0.35192  1.0000
  S   S149      1.0  0.91446  0.66525  0.40696  1.0000
  H   H429      1.0  0.50858  0.89871  0.65861  1.0000
  Fe  Fe75      1.0  0.55523  0.94895  0.57153  1.0000
  S   S150      1.0  0.60634  0.94641  0.56046  1.0000
  S   S151      1.0  0.53984  0.92954  0.61345  1.0000
  H   H430      1.0  0.67408  0.85475  0.41766  1.0000
  Fe  Fe76      1.0  0.58802  0.93325  0.51633  1.0000
  S   S152      1.0  0.60468  0.89042  0.49323  1.0000
  C   C435      1.0  0.96656  0.54700  0.42283  1.0000
  S   S153      1.0  0.53736  0.93274  0.52822  1.0000
  C   C436      1.0  0.52829  0.80273  0.61482  1.0000
  H   H431      1.0  0.74748  0.63651  0.34049  1.0000
  H   H432      1.0  0.57576  0.86548  0.61509  1.0000
  C   C437      1.0  0.53893  0.81843  0.56684  1.0000
  C   C438      1.0  0.76513  0.61843  0.34203  1.0000
  C   C439      1.0  0.80582  0.59187  0.36881  1.0000
  C   C440      1.0  0.79107  0.86494  0.48186  1.0000
  H   H433      1.0  0.53493  0.81544  0.54391  1.0000
  H   H434      1.0  0.71222  0.87484  0.47445  1.0000
  H   H435      1.0  0.76450  0.79123  0.47943  1.0000
  S   S154      1.0  0.84986  0.85086  0.36546  1.0000
  S   S155      1.0  0.58595  0.98174  0.50065  1.0000
  C   C441      1.0  0.78336  0.61529  0.36711  1.0000
  S   S156      1.0  0.92351  0.71372  0.33810  1.0000
  H   H436      1.0  0.72426  0.75858  0.33563  1.0000
  Fe  Fe77      1.0  0.89368  0.60332  0.34865  1.0000
  C   C442      1.0  0.52402  0.79851  0.58528  1.0000
  C   C443      1.0  0.76928  0.72701  0.42791  1.0000
  C   C444      1.0  0.79628  0.72534  0.41140  1.0000
  C   C445      1.0  0.81531  0.69869  0.41199  1.0000
  C   C446      1.0  0.80715  0.67386  0.42897  1.0000
  C   C447      1.0  0.78024  0.67569  0.44535  1.0000
  C   C448      1.0  0.76145  0.70219  0.44490  1.0000
  H   H437      1.0  0.80271  0.74468  0.39864  1.0000
  H   H438      1.0  0.83646  0.69745  0.39974  1.0000
  H   H439      1.0  0.77388  0.65656  0.45849  1.0000
  H   H440      1.0  0.74066  0.70339  0.45769  1.0000
  C   C449      1.0  0.68285  0.90231  0.42927  1.0000
  C   C450      1.0  0.67364  0.92733  0.44660  1.0000
  C   C451      1.0  0.64935  0.92402  0.46603  1.0000
  C   C452      1.0  0.63415  0.89564  0.46817  1.0000
  C   C453      1.0  0.64307  0.87072  0.45058  1.0000
  C   C454      1.0  0.66730  0.87406  0.43109  1.0000
  H   H441      1.0  0.68568  0.94920  0.44533  1.0000
  H   H442      1.0  0.64272  0.94331  0.47962  1.0000
  H   H443      1.0  0.63119  0.84879  0.45200  1.0000
  H   H444      1.0  0.94667  0.55323  0.40925  1.0000
  S   S157      1.0  0.94037  0.62720  0.35074  1.0000
  H   H445      1.0  0.94221  0.59237  0.47772  1.0000
  C   C455      1.0  0.57218  0.86327  0.55811  1.0000
  S   S158      1.0  0.98305  0.60835  0.42376  1.0000
  H   H446      1.0  0.81414  0.82065  0.48405  1.0000
  C   C456      1.0  0.95200  0.54986  0.49893  1.0000
  C   C457      1.0  0.97294  0.53408  0.51696  1.0000
  C   C458      1.0  0.95786  0.58071  0.49280  1.0000
  Fe  Fe78      1.0  0.59986  0.99512  0.54610  1.0000
  H   H447      1.0  0.78006  0.63096  0.38523  1.0000
  C   C459      1.0  0.50982  0.90144  0.61263  1.0000
  H   H448      1.0  0.76121  0.90506  0.47756  1.0000
  H   H449      1.0  0.70134  0.81162  0.44826  1.0000
  H   H450      1.0  0.55896  0.86450  0.53725  1.0000
  H   H451      1.0  0.93207  0.53791  0.48877  1.0000
  H   H452      1.0  0.68600  0.82537  0.48191  1.0000
  H   H453      1.0  0.82009  0.58928  0.38828  1.0000
  H   H454      1.0  0.89929  0.88656  0.34327  1.0000
  H   H455      1.0  0.70830  0.79007  0.48021  1.0000
  C   C460      1.0  0.70629  0.81377  0.47174  1.0000
  Fe  Fe79      1.0  0.53688  0.98259  0.51687  1.0000
  H   H456      1.0  0.81282  0.87803  0.48281  1.0000
  Fe  Fe80      1.0  0.73988  0.81849  0.33676  1.0000
  N   N37       1.0  0.73541  0.83133  0.47700  1.0000
  C   C461      1.0  0.76360  0.81624  0.47993  1.0000
  C   C462      1.0  0.73446  0.86285  0.47681  1.0000
  C   C463      1.0  0.79182  0.83279  0.48258  1.0000
  C   C464      1.0  0.76220  0.88012  0.47898  1.0000
  C   C465      1.0  0.52952  0.96484  0.43170  1.0000
  H   H457      1.0  0.84868  0.78520  0.35265  1.0000
  H   H458      1.0  0.55090  0.97906  0.43623  1.0000
  C   C466      1.0  0.96963  0.51663  0.43230  1.0000
  N   N38       1.0  0.55720  0.84217  0.57761  1.0000
  S   S159      1.0  0.76115  0.86506  0.34569  1.0000
  S   S160      1.0  0.86476  0.64628  0.35334  1.0000
  H   H459      1.0  0.57272  0.88706  0.56741  1.0000
  H   H460      1.0  0.50535  0.89840  0.56672  1.0000
  C   C467      1.0  0.56195  0.84615  0.60656  1.0000
  H   H461      1.0  0.87145  0.75105  0.36044  1.0000
  H   H462      1.0  0.59662  0.85570  0.55395  1.0000
  C   C468      1.0  0.54750  0.82657  0.62559  1.0000
  H   H463      1.0  0.54996  0.83079  0.64852  1.0000
  H   H464      1.0  0.52113  0.95751  0.45283  1.0000
  N   N39       1.0  0.98389  0.59543  0.50436  1.0000
  C   C469      1.0  0.98885  0.56923  0.43144  1.0000
  H   H465      1.0  0.50805  0.78081  0.57684  1.0000
  H   H466      1.0  0.53606  0.94402  0.41895  1.0000
  H   H467      1.0  0.82759  0.55396  0.34672  1.0000
  C   C470      1.0  0.80988  0.57197  0.34523  1.0000
  C   C471      1.0  0.99488  0.50844  0.45056  1.0000
  H   H468      1.0  0.51551  0.78842  0.62930  1.0000
  H   H469      1.0  0.95195  0.49967  0.42603  1.0000
  C   C472      1.0  0.99931  0.54931  0.52879  1.0000
  N   N40       1.0  0.50530  0.98254  0.41612  1.0000
  H   H470      1.0  0.99718  0.64151  0.51576  1.0000
  H   H471      1.0  0.52617  0.57495  0.96040  1.0000
  H   H472      1.0  0.51595  0.60915  0.87070  1.0000
  C   C473      1.0  0.93600  0.98159  0.98722  1.0000
  H   H473      1.0  0.50415  0.65981  0.79290  1.0000
  H   H474      1.0  0.93952  0.96279  0.97194  1.0000
  H   H475      1.0  0.50724  0.71604  0.89654  1.0000
  H   H476      1.0  0.70234  0.97005  0.68117  1.0000
  H   H477      1.0  0.55120  0.50814  0.92796  1.0000
  C   C474      1.0  0.51164  0.63064  0.85973  1.0000
  H   H478      1.0  0.51621  0.61054  0.81747  1.0000
  C   C475      1.0  0.50506  0.65902  0.81612  1.0000
  C   C476      1.0  0.51171  0.63143  0.82989  1.0000
  H   H479      1.0  0.52599  0.53049  0.99303  1.0000
  C   C477      1.0  0.50447  0.65745  0.87541  1.0000
  H   H480      1.0  0.50330  0.65633  0.89856  1.0000
  C   C478      1.0  0.50542  0.56063  0.96134  1.0000
  C   C479      1.0  0.50533  0.53551  0.97983  1.0000
  C   C480      1.0  0.69380  0.99200  0.67194  1.0000
