data_image0
_chemical_formula_structural       H2CFeS2FeS2FeSFeS3C3HCHC4H2C7H4C5H4CH3CSH4CHC2NH5CNC3H2C2HCHC2H2CFeS2HSFeSFeS2C10H8FeCSHC2NH3CHC3H2CHCHC2NH2SFeH4CHCHFeS2FeSHNHCFeS2FeS2FeSFeS3C5HC4NHC6H4CH3C3H3C2H4SH2CH7CHCH2CH3FeC3SC3NH2NHSC3H2CHSH2CHCFeS2FeS2FeSFeS3H2C2H2C2HC4H4C3H4CH2SH2C4HCNC3HCHC3HCHC2HCHC2H3C2NCHCH4CHNH5CFeC2FeS2CHFeS4CH2CHFeHFeC7H5C3H2SNHCSHC2HCHS2C2H5CHSHNC3SCH2FeSFeSCHFeS2FeSHFeSFeS3C3HC2H2C6H4C2NCHCHCHN2C2H4C4H2CH2SCH4SH2C4H3C3FeH3CHCFeS2FeS2FeSFeS3NSHCHC3H2C4H3C7H5CHNC4H3CHCHCH3CH3CHCHCHCH2CSH2CNCHCFeS2FeS2FeHSC2HCH2C7H4FeCSFeCHSNC2HC2SC2H2CHSCH2NHCH2CHCSCH3CH3C3FeS2FeCFeSFeS2FeS2FeSFeS3CH6NC2H2C7H4C3HC3H2CHC2HSC2NC2H2C2H3C2H4CHCHC2HCHCNH3C2H2FeS2FeS2FeSFeS3C4HC3H2CHSH4SH2C6H4CNHC3NC6H9CH2C2HFeHCFeS2CH2S3FeSC6H4C2HCHC3HCHC3SCFeHNSHC3HFeHCNH2NH3CH2CH2CH2C3S2HCH4C4FeCFeCSC2SHFeS2FeS2FeSFeS3C2HCHC3H2C6H4C2HC2HC2H2CH7NCH2NHSH2SC2HCH2C2HNC3H2CH2FeH2CH2
_chemical_formula_sum              "H384 C384 Fe64 S128 N32"
_cell_length_a       41.1549
_cell_length_b       42.3115
_cell_length_c       42.7485
_cell_angle_alpha    90.2293
_cell_angle_beta     90.1548
_cell_angle_gamma    87.9685

_space_group_name_H-M_alt    "P 1"
_space_group_IT_number       1

loop_
  _space_group_symop_operation_xyz
  'x, y, z'

loop_
  _atom_site_type_symbol
  _atom_site_label
  _atom_site_symmetry_multiplicity
  _atom_site_fract_x
  _atom_site_fract_y
  _atom_site_fract_z
  _atom_site_occupancy
  H   H1        1.0  0.28827  0.19003  0.31147  1.0000
  H   H2        1.0  0.16361  0.27504  0.17362  1.0000
  C   C1        1.0  0.10059  0.13458  0.04509  1.0000
  Fe  Fe1       1.0  0.11420  0.14679  0.18731  1.0000
  S   S1        1.0  0.13809  0.12433  0.14518  1.0000
  S   S2        1.0  0.06582  0.12672  0.20118  1.0000
  Fe  Fe2       1.0  0.17501  0.18504  0.20452  1.0000
  S   S3        1.0  0.20329  0.16478  0.16349  1.0000
  S   S4        1.0  0.18893  0.22342  0.24017  1.0000
  Fe  Fe3       1.0  0.15703  0.17234  0.13567  1.0000
  S   S5        1.0  0.15212  0.19669  0.08847  1.0000
  Fe  Fe4       1.0  0.18173  0.11798  0.17626  1.0000
  S   S6        1.0  0.21033  0.07116  0.17910  1.0000
  S   S7        1.0  0.12973  0.19569  0.17567  1.0000
  S   S8        1.0  0.15705  0.13766  0.21926  1.0000
  C   C2        1.0  0.02562  0.17845  0.18557  1.0000
  C   C3        1.0  0.02788  0.14653  0.19403  1.0000
  C   C4        1.0  0.12290  0.05989  0.23431  1.0000
  H   H3        1.0  0.04751  0.19155  0.18274  1.0000
  C   C5        1.0  0.99488  0.19368  0.18149  1.0000
  H   H4        1.0  0.05721  0.06311  0.23063  1.0000
  C   C6        1.0  0.15743  0.03435  0.16648  1.0000
  C   C7        1.0  0.19050  0.03493  0.17400  1.0000
  C   C8        1.0  0.06951  0.04434  0.21616  1.0000
  C   C9        1.0  0.16730  0.17978  0.99598  1.0000
  H   H5        1.0  0.14386  0.05622  0.16221  1.0000
  H   H6        1.0  0.11542  0.08427  0.22972  1.0000
  C   C10       1.0  0.24534  0.26150  0.17731  1.0000
  C   C11       1.0  0.15470  0.05289  0.24445  1.0000
  C   C12       1.0  0.18990  0.13459  0.02407  1.0000
  C   C13       1.0  0.18119  0.14890  0.05278  1.0000
  C   C14       1.0  0.16534  0.17866  0.05315  1.0000
  C   C15       1.0  0.15887  0.19423  0.02471  1.0000
  C   C16       1.0  0.22823  0.22432  0.09958  1.0000
  H   H7        1.0  0.20182  0.11137  0.02393  1.0000
  H   H8        1.0  0.18637  0.13670  0.07453  1.0000
  H   H9        1.0  0.14676  0.21735  0.02484  1.0000
  H   H10       1.0  0.22353  0.19885  0.10298  1.0000
  C   C17       1.0  0.28430  0.23818  0.26291  1.0000
  C   C18       1.0  0.25109  0.27661  0.29134  1.0000
  C   C19       1.0  0.22306  0.26383  0.27776  1.0000
  C   C20       1.0  0.22536  0.23802  0.25682  1.0000
  C   C21       1.0  0.25626  0.22532  0.24942  1.0000
  H   H11       1.0  0.17226  0.24797  0.12287  1.0000
  H   H12       1.0  0.30803  0.22805  0.25703  1.0000
  H   H13       1.0  0.19933  0.27403  0.28355  1.0000
  H   H14       1.0  0.25855  0.20560  0.23329  1.0000
  C   C22       1.0  0.21439  0.27273  0.18600  1.0000
  H   H15       1.0  0.06659  0.19734  0.00649  1.0000
  H   H16       1.0  0.26582  0.26459  0.19297  1.0000
  H   H17       1.0  0.18972  0.01561  0.25574  1.0000
  C   C23       1.0  0.28197  0.26370  0.28420  1.0000
  S   S9        1.0  0.31818  0.27708  0.30237  1.0000
  H   H18       1.0  0.10588  0.12644  0.06869  1.0000
  H   H19       1.0  0.99331  0.21848  0.17543  1.0000
  H   H20       1.0  0.00070  0.10527  0.20447  1.0000
  H   H21       1.0  0.25325  0.22658  0.09038  1.0000
  C   C24       1.0  0.07877  0.17446  0.00988  1.0000
  H   H22       1.0  0.21065  0.28439  0.20844  1.0000
  C   C25       1.0  0.99920  0.12989  0.19781  1.0000
  C   C26       1.0  0.08412  0.16356  0.04041  1.0000
  N   N1        1.0  0.10179  0.03622  0.22899  1.0000
  H   H23       1.0  0.07201  0.05368  0.19202  1.0000
  H   H24       1.0  0.21112  0.23362  0.08134  1.0000
  H   H25       1.0  0.05370  0.02364  0.21529  1.0000
  H   H26       1.0  0.27349  0.23629  0.14250  1.0000
  H   H27       1.0  0.07657  0.17793  0.06039  1.0000
  C   C27       1.0  0.14152  0.00546  0.16566  1.0000
  N   N2        1.0  0.22356  0.24149  0.12919  1.0000
  C   C28       1.0  0.19302  0.25192  0.13787  1.0000
  C   C29       1.0  0.24947  0.24554  0.14878  1.0000
  C   C30       1.0  0.18796  0.26757  0.16640  1.0000
  H   H28       1.0  0.17191  0.07156  0.24709  1.0000
  H   H29       1.0  0.24878  0.29628  0.30754  1.0000
  C   C31       1.0  0.16470  0.02145  0.24934  1.0000
  C   C32       1.0  0.11163  0.11695  0.01934  1.0000
  H   H30       1.0  0.12573  0.09508  0.02275  1.0000
  C   C33       1.0  0.11131  0.00530  0.23397  1.0000
  H   H31       1.0  0.11569  0.00542  0.16091  1.0000
  C   C34       1.0  0.20775  0.00615  0.17934  1.0000
  C   C35       1.0  0.18257  0.14972  0.99557  1.0000
  H   H32       1.0  0.23338  0.00634  0.18503  1.0000
  H   H33       1.0  0.32619  0.20896  0.31673  1.0000
  C   C36       1.0  0.14283  0.99748  0.24439  1.0000
  Fe  Fe5       1.0  0.32099  0.38409  0.36316  1.0000
  S   S10       1.0  0.35112  0.37390  0.40568  1.0000
  S   S11       1.0  0.29482  0.43232  0.36090  1.0000
  H   H34       1.0  0.22133  0.25810  0.37049  1.0000
  S   S12       1.0  0.35974  0.30085  0.38067  1.0000
  Fe  Fe6       1.0  0.32391  0.32950  0.40968  1.0000
  S   S13       1.0  0.29989  0.31445  0.45475  1.0000
  Fe  Fe7       1.0  0.38500  0.34661  0.37337  1.0000
  S   S14       1.0  0.29083  0.34101  0.36905  1.0000
  S   S15       1.0  0.36178  0.35273  0.58549  1.0000
  C   C37       1.0  0.31109  0.22936  0.37652  1.0000
  C   C38       1.0  0.31675  0.46748  0.35901  1.0000
  C   C39       1.0  0.26000  0.22861  0.35063  1.0000
  C   C40       1.0  0.35002  0.46675  0.35250  1.0000
  C   C41       1.0  0.31803  0.32318  0.49122  1.0000
  C   C42       1.0  0.34876  0.33613  0.49288  1.0000
  C   C43       1.0  0.36206  0.34410  0.52209  1.0000
  C   C44       1.0  0.34477  0.33944  0.54992  1.0000
  C   C45       1.0  0.31413  0.32622  0.54832  1.0000
  C   C46       1.0  0.30088  0.31803  0.51904  1.0000
  H   H35       1.0  0.36227  0.34014  0.47167  1.0000
  H   H36       1.0  0.38577  0.35433  0.52312  1.0000
  H   H37       1.0  0.30058  0.32257  0.56958  1.0000
  H   H38       1.0  0.27710  0.30796  0.51796  1.0000
  H   H39       1.0  0.36608  0.44051  0.51253  1.0000
  H   H40       1.0  0.31555  0.44089  0.42457  1.0000
  H   H41       1.0  0.26437  0.41655  0.42038  1.0000
  H   H42       1.0  0.27780  0.37704  0.43100  1.0000
  Fe  Fe8       1.0  0.34577  0.34677  0.63610  1.0000
  C   C47       1.0  0.24646  0.24977  0.37266  1.0000
  S   S16       1.0  0.43725  0.35744  0.38596  1.0000
  H   H43       1.0  0.28180  0.38515  0.49977  1.0000
  C   C48       1.0  0.34302  0.44350  0.46716  1.0000
  C   C49       1.0  0.32344  0.41256  0.51000  1.0000
  N   N3        1.0  0.29544  0.41277  0.46057  1.0000
  H   H44       1.0  0.33662  0.22216  0.37777  1.0000
  H   H45       1.0  0.32591  0.40386  0.53381  1.0000
  H   H46       1.0  0.24695  0.39792  0.45370  1.0000
  C   C50       1.0  0.47352  0.34681  0.36585  1.0000
  H   H47       1.0  0.24492  0.22070  0.33146  1.0000
  C   C51       1.0  0.26985  0.40053  0.44043  1.0000
  C   C52       1.0  0.31735  0.43313  0.44870  1.0000
  C   C53       1.0  0.29841  0.40222  0.49070  1.0000
  H   H48       1.0  0.45301  0.31171  0.33584  1.0000
  H   H49       1.0  0.31335  0.25826  0.41823  1.0000
  C   C54       1.0  0.47503  0.32287  0.34318  1.0000
  H   H50       1.0  0.36072  0.45906  0.45734  1.0000
  C   C55       1.0  0.29816  0.24997  0.39931  1.0000
  H   H51       1.0  0.25574  0.27700  0.41441  1.0000
  C   C56       1.0  0.26573  0.26042  0.39719  1.0000
  C   C57       1.0  0.34603  0.43310  0.49802  1.0000
  N   N4        1.0  0.29199  0.21881  0.35270  1.0000
  H   H52       1.0  0.45248  0.44840  0.63852  1.0000
  H   H53       1.0  0.36302  0.44428  0.34926  1.0000
  S   S17       1.0  0.35636  0.35982  0.32994  1.0000
  Fe  Fe9       1.0  0.32824  0.31551  0.33922  1.0000
  H   H54       1.0  0.48801  0.29666  0.41048  1.0000
  H   H55       1.0  0.33363  0.44756  0.64885  1.0000
  H   H56       1.0  0.31643  0.17539  0.34074  1.0000
  H   H57       1.0  0.39188  0.49437  0.34297  1.0000
  C   C58       1.0  0.30636  0.19712  0.32929  1.0000
  H   H58       1.0  0.41516  0.49417  0.65222  1.0000
  C   C59       1.0  0.17622  0.00406  0.82560  1.0000
  H   H59       1.0  0.42892  0.40456  0.72544  1.0000
  Fe  Fe10      1.0  0.31203  0.31772  0.69311  1.0000
  S   S18       1.0  0.33634  0.35024  0.72681  1.0000
  S   S19       1.0  0.27278  0.28244  0.70605  1.0000
  Fe  Fe11      1.0  0.32527  0.38869  0.69184  1.0000
  S   S20       1.0  0.30890  0.43651  0.71148  1.0000
  H   H60       1.0  0.25179  0.39925  0.70598  1.0000
  N   N5        1.0  0.21559  0.33473  0.73431  1.0000
  H   H61       1.0  0.36637  0.46696  0.74584  1.0000
  C   C60       1.0  0.00643  0.13179  0.83759  1.0000
  Fe  Fe12      1.0  0.19077  0.18191  0.85071  1.0000
  S   S21       1.0  0.16141  0.19422  0.89409  1.0000
  S   S22       1.0  0.23000  0.21544  0.83347  1.0000
  Fe  Fe13      1.0  0.16379  0.11497  0.84839  1.0000
  S   S23       1.0  0.13239  0.12238  0.89070  1.0000
  S   S24       1.0  0.16712  0.06856  0.82139  1.0000
  Fe  Fe14      1.0  0.12016  0.16998  0.87003  1.0000
  S   S25       1.0  0.06962  0.19203  0.87743  1.0000
  Fe  Fe15      1.0  0.17533  0.14585  0.91188  1.0000
  S   S26       1.0  0.19136  0.12944  0.96019  1.0000
  S   S27       1.0  0.14827  0.16115  0.82532  1.0000
  S   S28       1.0  0.20787  0.13494  0.87084  1.0000
  C   C61       1.0  0.17283  0.03275  0.84216  1.0000
  C   C62       1.0  0.17379  0.03237  0.87484  1.0000
  C   C63       1.0  0.27718  0.11272  0.83560  1.0000
  C   C64       1.0  0.24001  0.09836  0.79584  1.0000
  C   C65       1.0  0.46587  0.33892  0.70064  1.0000
  H   H62       1.0  0.17154  0.05432  0.88786  1.0000
  C   C66       1.0  0.25250  0.06099  0.83845  1.0000
  C   C67       1.0  0.25932  0.38009  0.75215  1.0000
  C   C68       1.0  0.03425  0.17160  0.86761  1.0000
  C   C69       1.0  0.03538  0.14594  0.84688  1.0000
  N   N6        1.0  0.25720  0.09110  0.82248  1.0000
  H   H63       1.0  0.05847  0.13756  0.83736  1.0000
  C   C70       1.0  0.26222  0.26320  0.74161  1.0000
  C   C71       1.0  0.27804  0.26882  0.77001  1.0000
  C   C72       1.0  0.26762  0.25421  0.79777  1.0000
  C   C73       1.0  0.24121  0.23388  0.79769  1.0000
  C   C74       1.0  0.22542  0.22821  0.76927  1.0000
  C   C75       1.0  0.23600  0.24262  0.74148  1.0000
  H   H64       1.0  0.29825  0.28449  0.77063  1.0000
  H   H65       1.0  0.28021  0.25867  0.81952  1.0000
  H   H66       1.0  0.20521  0.21256  0.76867  1.0000
  H   H67       1.0  0.22362  0.23789  0.71968  1.0000
  C   C76       1.0  0.31800  0.47138  0.69108  1.0000
  H   H68       1.0  0.40256  0.45217  0.76582  1.0000
  H   H69       1.0  0.24204  0.04316  0.82250  1.0000
  H   H70       1.0  0.16891  0.32281  0.71766  1.0000
  C   C77       1.0  0.46539  0.32959  0.66927  1.0000
  C   C78       1.0  0.26363  0.14969  0.79437  1.0000
  C   C79       1.0  0.22915  0.33366  0.76359  1.0000
  H   H71       1.0  0.00301  0.20222  0.89569  1.0000
  H   H72       1.0  0.00743  0.11246  0.82093  1.0000
  H   H73       1.0  0.27594  0.05087  0.84751  1.0000
  C   C80       1.0  0.28065  0.14234  0.82178  1.0000
  C   C81       1.0  0.22370  0.35778  0.71368  1.0000
  H   H74       1.0  0.22897  0.13361  0.76055  1.0000
  H   H75       1.0  0.23536  0.06479  0.85829  1.0000
  H   H76       1.0  0.17848  0.00342  0.91612  1.0000
  H   H77       1.0  0.26588  0.17271  0.78368  1.0000
  S   S29       1.0  0.43039  0.33839  0.72364  1.0000
  H   H78       1.0  0.22338  0.31495  0.77973  1.0000
  H   H79       1.0  0.37443  0.42535  0.74788  1.0000
  C   C82       1.0  0.19240  0.31108  0.72451  1.0000
  H   H80       1.0  0.28976  0.10750  0.85741  1.0000
  H   H81       1.0  0.29560  0.15993  0.83270  1.0000
  H   H82       1.0  0.16186  0.19179  0.97420  1.0000
  H   H83       1.0  0.22339  0.08166  0.78592  1.0000
  H   H84       1.0  0.10136  0.01396  0.85664  1.0000
  H   H85       1.0  0.10200  0.01851  0.79912  1.0000
  H   H86       1.0  0.26257  0.35489  0.79585  1.0000
  C   C83       1.0  0.24539  0.38096  0.72239  1.0000
  H   H87       1.0  0.18761  0.29394  0.74345  1.0000
  C   C84       1.0  0.40163  0.47426  0.69650  1.0000
  H   H88       1.0  0.11607  0.11553  0.96930  1.0000
  H   H89       1.0  0.06525  0.18769  0.95157  1.0000
  C   C85       1.0  0.24301  0.12770  0.78136  1.0000
  H   H90       1.0  0.21365  0.35812  0.69021  1.0000
  H   H91       1.0  0.20245  0.29736  0.70426  1.0000
  H   H92       1.0  0.99702  0.21015  0.81566  1.0000
  Fe  Fe16      1.0  0.38174  0.34071  0.69855  1.0000
  C   C86       1.0  0.44348  0.42371  0.68143  1.0000
  C   C87       1.0  0.41860  0.47443  0.66820  1.0000
  C   C88       1.0  0.38627  0.44846  0.74550  1.0000
  S   S30       1.0  0.35873  0.30501  0.66706  1.0000
  C   C89       1.0  0.42599  0.42430  0.70946  1.0000
  C   C90       1.0  0.43949  0.44884  0.66057  1.0000
  C   C91       1.0  0.25136  0.35619  0.77287  1.0000
  N   N7        1.0  0.40488  0.44903  0.71634  1.0000
  H   H93       1.0  0.27663  0.39769  0.75889  1.0000
  H   H94       1.0  0.17577  0.00417  0.80030  1.0000
  N   N8        1.0  0.08943  0.15686  0.98474  1.0000
  H   H95       1.0  0.48930  0.25788  0.68313  1.0000
  S   S31       1.0  0.29753  0.35730  0.65954  1.0000
  C   C92       1.0  0.08496  0.16908  0.95292  1.0000
  C   C93       1.0  0.00408  0.18236  0.87965  1.0000
  C   C94       1.0  0.17768  0.00348  0.89081  1.0000
  H   H96       1.0  0.45955  0.40360  0.67575  1.0000
  H   H97       1.0  0.07812  0.14996  0.93651  1.0000
  C   C95       1.0  0.33019  0.47014  0.66059  1.0000
  H   H98       1.0  0.10785  0.17929  0.94455  1.0000
  S   S32       1.0  0.37207  0.38135  0.66634  1.0000
  H   H99       1.0  0.47244  0.27415  0.73672  1.0000
  H   H100      1.0  0.38536  0.49419  0.70214  1.0000
  C   C96       1.0  0.10604  0.12864  0.98914  1.0000
  H   H101      1.0  0.44267  0.32357  0.65830  1.0000
  C   C97       1.0  0.09984  0.99547  0.80988  1.0000
  Fe  Fe17      1.0  0.18328  0.82721  0.19413  1.0000
  S   S33       1.0  0.13444  0.85277  0.20058  1.0000
  S   S34       1.0  0.20284  0.80491  0.24018  1.0000
  Fe  Fe18      1.0  0.18356  0.84403  0.12400  1.0000
  S   S35       1.0  0.13511  0.86972  0.12597  1.0000
  S   S36       1.0  0.21119  0.84556  0.07792  1.0000
  Fe  Fe19      1.0  0.15338  0.89149  0.17035  1.0000
  S   S37       1.0  0.13565  0.94258  0.17849  1.0000
  Fe  Fe20      1.0  0.11986  0.82963  0.15586  1.0000
  S   S38       1.0  0.07216  0.80572  0.14749  1.0000
  S   S39       1.0  0.20332  0.86827  0.16710  1.0000
  S   S40       1.0  0.16719  0.80155  0.15065  1.0000
  H   H102      1.0  0.20503  0.95534  0.18403  1.0000
  H   H103      1.0  0.27889  0.71204  0.22546  1.0000
  C   C98       1.0  0.03383  0.84905  0.18102  1.0000
  C   C99       1.0  0.03483  0.82294  0.16081  1.0000
  H   H104      1.0  0.00338  0.88032  0.20932  1.0000
  H   H105      1.0  0.05617  0.86001  0.18772  1.0000
  C   C100      1.0  0.33840  0.51960  0.27569  1.0000
  C   C101      1.0  0.39459  0.72723  0.28717  1.0000
  H   H106      1.0  0.01918  0.79406  0.22734  1.0000
  C   C102      1.0  0.21061  0.84075  0.01382  1.0000
  C   C103      1.0  0.19639  0.83093  0.04187  1.0000
  C   C104      1.0  0.17037  0.81059  0.04047  1.0000
  C   C105      1.0  0.15844  0.80057  0.01125  1.0000
  H   H107      1.0  0.40753  0.71063  0.27187  1.0000
  H   H108      1.0  0.23091  0.85630  0.01472  1.0000
  H   H109      1.0  0.15946  0.80254  0.06189  1.0000
  H   H110      1.0  0.13832  0.78479  0.01041  1.0000
  C   C106      1.0  0.23024  0.77332  0.25236  1.0000
  C   C107      1.0  0.24600  0.75262  0.23121  1.0000
  C   C108      1.0  0.26699  0.72780  0.24218  1.0000
  H   H111      1.0  0.24199  0.75569  0.20636  1.0000
  H   H112      1.0  0.27769  0.52737  0.29732  1.0000
  H   H113      1.0  0.13520  0.79752  0.25717  1.0000
  H   H114      1.0  0.24576  0.57775  0.30349  1.0000
  C   C109      1.0  0.00389  0.86049  0.19327  1.0000
  H   H115      1.0  0.35159  0.73054  0.25816  1.0000
  H   H116      1.0  0.43313  0.72808  0.32100  1.0000
  S   S41       1.0  0.29992  0.69148  0.28664  1.0000
  H   H117      1.0  0.32722  0.62825  0.26980  1.0000
  H   H118      1.0  0.11903  0.75862  0.18390  1.0000
  C   C110      1.0  0.05401  0.81460  0.25851  1.0000
  C   C111      1.0  0.36331  0.73843  0.27947  1.0000
  C   C112      1.0  0.27274  0.72321  0.27442  1.0000
  C   C113      1.0  0.27038  0.57780  0.29450  1.0000
  H   H119      1.0  0.27057  0.62856  0.28931  1.0000
  C   C114      1.0  0.15839  0.97682  0.17241  1.0000
  N   N9        1.0  0.10025  0.77751  0.22660  1.0000
  C   C115      1.0  0.17995  0.91677  0.02381  1.0000
  C   C116      1.0  0.23602  0.76872  0.28461  1.0000
  C   C117      1.0  0.28427  0.60629  0.28658  1.0000
  H   H120      1.0  0.15077  0.97285  0.24666  1.0000
  C   C118      1.0  0.34661  0.75904  0.29981  1.0000
  H   H121      1.0  0.12437  0.73329  0.21777  1.0000
  C   C119      1.0  0.25709  0.74397  0.29558  1.0000
  C   C120      1.0  0.31615  0.60613  0.27563  1.0000
  C   C121      1.0  0.19179  0.97718  0.17855  1.0000
  H   H122      1.0  0.22402  0.78444  0.30130  1.0000
  C   C122      1.0  0.12446  0.75807  0.20943  1.0000
  H   H123      1.0  0.10157  0.84472  0.02178  1.0000
  C   C123      1.0  0.40888  0.73714  0.31510  1.0000
  C   C124      1.0  0.00561  0.80889  0.15244  1.0000
  H   H124      1.0  0.32201  0.76731  0.29425  1.0000
  C   C125      1.0  0.33379  0.57739  0.27275  1.0000
  H   H125      1.0  0.06061  0.76113  0.19943  1.0000
  C   C126      1.0  0.08678  0.81548  0.26689  1.0000
  C   C127      1.0  0.18138  0.91765  0.99121  1.0000
  H   H126      1.0  0.00615  0.78867  0.13685  1.0000
  H   H127      1.0  0.09523  0.98629  0.22837  1.0000
  H   H128      1.0  0.15563  0.89815  0.06367  1.0000
  C   C128      1.0  0.04451  0.79446  0.23454  1.0000
  C   C129      1.0  0.06809  0.77590  0.21880  1.0000
  N   N10       1.0  0.13450  0.88270  0.02082  1.0000
  C   C130      1.0  0.15605  0.89927  0.03831  1.0000
  H   H129      1.0  0.33785  0.51264  0.25066  1.0000
  C   C131      1.0  0.10970  0.79643  0.25077  1.0000
  H   H130      1.0  0.03598  0.82972  0.27027  1.0000
  H   H131      1.0  0.09454  0.83114  0.28540  1.0000
  H   H132      1.0  0.35884  0.57753  0.26496  1.0000
  H   H133      1.0  0.14939  0.76702  0.21252  1.0000
  C   C132      1.0  0.28858  0.54942  0.29099  1.0000
  H   H134      1.0  0.08797  0.88061  0.04184  1.0000
  N   N11       1.0  0.31993  0.54953  0.28038  1.0000
  H   H135      1.0  0.19766  0.92890  0.03788  1.0000
  H   H136      1.0  0.11882  0.85438  0.05869  1.0000
  H   H137      1.0  0.26100  0.74087  0.32043  1.0000
  H   H138      1.0  0.32845  0.50026  0.28996  1.0000
  H   H139      1.0  0.36410  0.52196  0.28331  1.0000
  C   C133      1.0  0.10938  0.86485  0.03649  1.0000
  Fe  Fe21      1.0  0.35485  0.60982  0.35591  1.0000
  C   C134      1.0  0.47489  0.67815  0.36059  1.0000
  C   C135      1.0  0.48703  0.71230  0.61173  1.0000
  Fe  Fe22      1.0  0.32699  0.65785  0.40277  1.0000
  S   S42       1.0  0.34246  0.69976  0.37465  1.0000
  S   S43       1.0  0.29995  0.65978  0.44916  1.0000
  C   C136      1.0  0.45370  0.71394  0.60550  1.0000
  H   H140      1.0  0.28343  0.61794  0.57257  1.0000
  Fe  Fe23      1.0  0.38947  0.67115  0.36859  1.0000
  S   S44       1.0  0.43813  0.69343  0.37715  1.0000
  S   S45       1.0  0.30521  0.63306  0.36099  1.0000
  S   S46       1.0  0.37500  0.63144  0.39955  1.0000
  S   S47       1.0  0.36950  0.69447  0.57756  1.0000
  C   C137      1.0  0.38044  0.61024  0.54659  1.0000
  H   H141      1.0  0.39732  0.75218  0.38388  1.0000
  H   H142      1.0  0.40627  0.72555  0.62415  1.0000
  C   C138      1.0  0.35070  0.60154  0.49881  1.0000
  H   H143      1.0  0.30014  0.59255  0.50445  1.0000
  Fe  Fe24      1.0  0.32407  0.67340  0.33244  1.0000
  H   H144      1.0  0.40239  0.61689  0.55869  1.0000
  Fe  Fe25      1.0  0.35529  0.67546  0.62523  1.0000
  C   C139      1.0  0.29429  0.59419  0.56687  1.0000
  C   C140      1.0  0.31892  0.67161  0.48439  1.0000
  C   C141      1.0  0.30182  0.66976  0.51274  1.0000
  C   C142      1.0  0.31699  0.67657  0.54148  1.0000
  C   C143      1.0  0.34922  0.68598  0.54203  1.0000
  C   C144      1.0  0.36600  0.68877  0.51362  1.0000
  C   C145      1.0  0.35107  0.68130  0.48495  1.0000
  H   H145      1.0  0.27684  0.66261  0.51248  1.0000
  H   H146      1.0  0.30365  0.67497  0.56314  1.0000
  H   H147      1.0  0.39084  0.69631  0.51380  1.0000
  H   H148      1.0  0.36447  0.68293  0.46330  1.0000
  H   H149      1.0  0.35282  0.60671  0.58884  1.0000
  C   C146      1.0  0.31673  0.52535  0.36032  1.0000
  C   C147      1.0  0.34976  0.52459  0.35259  1.0000
  C   C148      1.0  0.32288  0.59632  0.51655  1.0000
  H   H150      1.0  0.29975  0.58156  0.58918  1.0000
  H   H151      1.0  0.30370  0.54785  0.36304  1.0000
  S   S48       1.0  0.38941  0.63600  0.64009  1.0000
  N   N12       1.0  0.32400  0.59767  0.54854  1.0000
  H   H152      1.0  0.27611  0.58035  0.55399  1.0000
  C   C149      1.0  0.37960  0.60866  0.51399  1.0000
  S   S49       1.0  0.37026  0.55931  0.34306  1.0000
  H   H153      1.0  0.40094  0.61409  0.50044  1.0000
  C   C150      1.0  0.43218  0.72408  0.62887  1.0000
  C   C151      1.0  0.35224  0.60466  0.56358  1.0000
  H   H154      1.0  0.34933  0.60179  0.47342  1.0000
  C   C152      1.0  0.40698  0.76682  0.36469  1.0000
  H   H155      1.0  0.44435  0.70714  0.58274  1.0000
  S   S50       1.0  0.31082  0.65079  0.64092  1.0000
  S   S51       1.0  0.34385  0.56212  0.63937  1.0000
  C   C153      1.0  0.47505  0.65696  0.33537  1.0000
  C   C154      1.0  0.33775  0.49822  0.64511  1.0000
  H   H156      1.0  0.45759  0.64387  0.64938  1.0000
  H   H157      1.0  0.40164  0.79220  0.36983  1.0000
  H   H158      1.0  0.43388  0.76299  0.36447  1.0000
  H   H159      1.0  0.34693  0.49704  0.62142  1.0000
  H   H160      1.0  0.27450  0.49761  0.36838  1.0000
  C   C155      1.0  0.30024  0.49687  0.36321  1.0000
  H   H161      1.0  0.45234  0.64871  0.32621  1.0000
  S   S52       1.0  0.37274  0.64809  0.32451  1.0000
  H   H162      1.0  0.34794  0.78349  0.34382  1.0000
  N   N13       1.0  0.39237  0.75753  0.33486  1.0000
  C   C156      1.0  0.36634  0.49519  0.34904  1.0000
  C   C157      1.0  0.36146  0.76816  0.32773  1.0000
  C   C158      1.0  0.01064  0.85588  0.82176  1.0000
  S   S53       1.0  0.35026  0.63412  0.70659  1.0000
  C   C159      1.0  0.09785  0.96116  0.89047  1.0000
  H   H163      1.0  0.09427  0.91399  0.84922  1.0000
  H   H164      1.0  0.09516  0.91738  0.79169  1.0000
  Fe  Fe26      1.0  0.39190  0.66058  0.68616  1.0000
  S   S54       1.0  0.43994  0.66763  0.71143  1.0000
  Fe  Fe27      1.0  0.31841  0.67478  0.68808  1.0000
  S   S55       1.0  0.27343  0.69481  0.71484  1.0000
  C   C160      1.0  0.19013  0.74114  0.89405  1.0000
  H   H165      1.0  0.29038  0.76446  0.89862  1.0000
  Fe  Fe28      1.0  0.19767  0.82958  0.83851  1.0000
  S   S56       1.0  0.16905  0.87427  0.82503  1.0000
  S   S57       1.0  0.24224  0.80895  0.81172  1.0000
  Fe  Fe29      1.0  0.16239  0.82568  0.90163  1.0000
  S   S58       1.0  0.13082  0.86877  0.89238  1.0000
  H   H166      1.0  0.01089  0.86308  0.79751  1.0000
  Fe  Fe30      1.0  0.12550  0.84961  0.84392  1.0000
  S   S59       1.0  0.07742  0.85661  0.81821  1.0000
  Fe  Fe31      1.0  0.17610  0.89046  0.87460  1.0000
  S   S60       1.0  0.18350  0.93906  0.89570  1.0000
  S   S61       1.0  0.15342  0.80395  0.85411  1.0000
  S   S62       1.0  0.20828  0.84826  0.88717  1.0000
  C   C161      1.0  0.03970  0.84120  0.86905  1.0000
  C   C162      1.0  0.04025  0.85074  0.83780  1.0000
  C   C163      1.0  0.47958  0.64790  0.66234  1.0000
  H   H167      1.0  0.06227  0.83696  0.88161  1.0000
  C   C164      1.0  0.21687  0.75949  0.90097  1.0000
  C   C165      1.0  0.18021  0.97471  0.87433  1.0000
  H   H168      1.0  0.26385  0.79893  0.90492  1.0000
  H   H169      1.0  0.18166  0.95306  0.82868  1.0000
  C   C166      1.0  0.24989  0.77788  0.78374  1.0000
  C   C167      1.0  0.22556  0.75822  0.77295  1.0000
  C   C168      1.0  0.23327  0.73311  0.75195  1.0000
  C   C169      1.0  0.26532  0.72722  0.74122  1.0000
  C   C170      1.0  0.28964  0.74689  0.75205  1.0000
  C   C171      1.0  0.28196  0.77191  0.77315  1.0000
  H   H170      1.0  0.20078  0.76235  0.78073  1.0000
  H   H171      1.0  0.21417  0.71820  0.74374  1.0000
  H   H172      1.0  0.31440  0.74278  0.74419  1.0000
  H   H173      1.0  0.30110  0.78679  0.78131  1.0000
  C   C172      1.0  0.09641  0.93880  0.80571  1.0000
  C   C173      1.0  0.17196  0.81125  0.98322  1.0000
  N   N14       1.0  0.09830  0.96367  0.85629  1.0000
  C   C174      1.0  0.09610  0.93697  0.83836  1.0000
  H   H174      1.0  0.00968  0.82878  0.90810  1.0000
  C   C175      1.0  0.32162  0.52900  0.69061  1.0000
  H   H175      1.0  0.21670  0.71054  0.82461  1.0000
  C   C176      1.0  0.33361  0.52774  0.66004  1.0000
  H   H176      1.0  0.31818  0.55163  0.70228  1.0000
  N   N15       1.0  0.24261  0.76030  0.88082  1.0000
  N   N16       1.0  0.47686  0.73013  0.66440  1.0000
  C   C177      1.0  0.24306  0.74226  0.85419  1.0000
  C   C178      1.0  0.21661  0.72390  0.84636  1.0000
  H   H177      1.0  0.21660  0.77342  0.92236  1.0000
  H   H178      1.0  0.20909  0.83946  0.96325  1.0000
  H   H179      1.0  0.16942  0.74126  0.90977  1.0000
  H   H180      1.0  0.30410  0.50211  0.72954  1.0000
  C   C179      1.0  0.00984  0.83652  0.88401  1.0000
  C   C180      1.0  0.17952  0.97507  0.84162  1.0000
  C   C181      1.0  0.18991  0.72351  0.86640  1.0000
  C   C182      1.0  0.27056  0.77954  0.88829  1.0000
  H   H181      1.0  0.07238  0.96122  0.89893  1.0000
  H   H182      1.0  0.26358  0.74273  0.83831  1.0000
  C   C183      1.0  0.09848  0.96825  0.79143  1.0000
  H   H183      1.0  0.27968  0.79100  0.86678  1.0000
  H   H184      1.0  0.16898  0.70980  0.86038  1.0000
  S   S63       1.0  0.15522  0.79916  0.94705  1.0000
  C   C184      1.0  0.19825  0.83126  0.98461  1.0000
  H   H185      1.0  0.11890  0.87005  0.97489  1.0000
  H   H186      1.0  0.16047  0.90113  0.94825  1.0000
  H   H187      1.0  0.11079  0.98091  0.90162  1.0000
  H   H188      1.0  0.11082  0.93904  0.89819  1.0000
  S   S64       1.0  0.36054  0.70238  0.67063  1.0000
  H   H189      1.0  0.47358  0.72897  0.71399  1.0000
  H   H190      1.0  0.42715  0.73882  0.67677  1.0000
  C   C185      1.0  0.31363  0.50091  0.70598  1.0000
  C   C186      1.0  0.47781  0.65828  0.69338  1.0000
  C   C187      1.0  0.48876  0.73933  0.69537  1.0000
  C   C188      1.0  0.15904  0.90107  0.97357  1.0000
  H   H191      1.0  0.48779  0.76547  0.69774  1.0000
  H   H192      1.0  0.09916  0.96992  0.76612  1.0000
  H   H193      1.0  0.20005  0.93072  0.97954  1.0000
  C   C189      1.0  0.44418  0.73190  0.65843  1.0000
  C   C190      1.0  0.09954  0.99274  0.84250  1.0000
  C   C191      1.0  0.13557  0.88363  0.98882  1.0000
  Fe  Fe32      1.0  0.34545  0.61243  0.65857  1.0000
  H   H194      1.0  0.79077  0.34461  0.24349  1.0000
  H   H195      1.0  0.94057  0.01122  0.19740  1.0000
  H   H196      1.0  0.91407  0.05560  0.17289  1.0000
  C   C192      1.0  0.78637  0.32066  0.25268  1.0000
  H   H197      1.0  0.75521  0.03100  0.19504  1.0000
  C   C193      1.0  0.77394  0.12600  0.25099  1.0000
  Fe  Fe33      1.0  0.81035  0.17044  0.19049  1.0000
  S   S65       1.0  0.85388  0.15332  0.21833  1.0000
  S   S66       1.0  0.76557  0.19842  0.20955  1.0000
  Fe  Fe34      1.0  0.83682  0.13915  0.12929  1.0000
  S   S67       1.0  0.88240  0.12079  0.15302  1.0000
  S   S68       1.0  0.82881  0.12089  0.07974  1.0000
  Fe  Fe35      1.0  0.84958  0.10719  0.19208  1.0000
  S   S69       1.0  0.85808  0.05959  0.21573  1.0000
  Fe  Fe36      1.0  0.88301  0.16801  0.17669  1.0000
  S   S70       1.0  0.92791  0.19711  0.18105  1.0000
  S   S71       1.0  0.80371  0.12279  0.16745  1.0000
  S   S72       1.0  0.83971  0.18799  0.14986  1.0000
  N   N17       1.0  0.76395  0.06436  0.23122  1.0000
  S   S73       1.0  0.65685  0.35458  0.32354  1.0000
  H   H198      1.0  0.72431  0.08393  0.20449  1.0000
  C   C194      1.0  0.96850  0.14497  0.19322  1.0000
  H   H199      1.0  0.94662  0.13197  0.19642  1.0000
  C   C195      1.0  0.82381  0.02580  0.17185  1.0000
  C   C196      1.0  0.84331  0.02475  0.19869  1.0000
  C   C197      1.0  0.85006  0.25398  0.20724  1.0000
  H   H200      1.0  0.81773  0.04825  0.16089  1.0000
  H   H201      1.0  0.88414  0.26428  0.24381  1.0000
  C   C198      1.0  0.84018  0.19069  0.01577  1.0000
  C   C199      1.0  0.83699  0.17490  0.04451  1.0000
  C   C200      1.0  0.83863  0.14186  0.04545  1.0000
  C   C201      1.0  0.84468  0.12485  0.01761  1.0000
  H   H202      1.0  0.73611  0.02307  0.23224  1.0000
  H   H203      1.0  0.83224  0.18827  0.06573  1.0000
  H   H204      1.0  0.84610  0.09929  0.01814  1.0000
  C   C202      1.0  0.74496  0.26657  0.29313  1.0000
  C   C203      1.0  0.77569  0.25103  0.28990  1.0000
  C   C204      1.0  0.78225  0.22949  0.26511  1.0000
  C   C205      1.0  0.75820  0.22340  0.24287  1.0000
  C   C206      1.0  0.72733  0.23846  0.24642  1.0000
  C   C207      1.0  0.72069  0.25979  0.27135  1.0000
  C   C208      1.0  0.76743  0.13104  0.00550  1.0000
  H   H205      1.0  0.80610  0.21814  0.26288  1.0000
  H   H206      1.0  0.70843  0.23399  0.22948  1.0000
  H   H207      1.0  0.69702  0.27161  0.27324  1.0000
  H   H208      1.0  0.86646  0.23700  0.19563  1.0000
  H   H209      1.0  0.81060  0.24822  0.17459  1.0000
  C   C209      1.0  0.96620  0.17704  0.18531  1.0000
  H   H210      1.0  0.73291  0.13901  0.22185  1.0000
  N   N18       1.0  0.80807  0.29713  0.23737  1.0000
  C   C210      1.0  0.79820  0.28232  0.21065  1.0000
  C   C211      1.0  0.83862  0.29110  0.24917  1.0000
  C   C212      1.0  0.81895  0.26046  0.19529  1.0000
  C   C213      1.0  0.86001  0.26935  0.23436  1.0000
  H   H211      1.0  0.79472  0.25606  0.30651  1.0000
  H   H212      1.0  0.77383  0.28665  0.20151  1.0000
  H   H213      1.0  0.84646  0.30288  0.27031  1.0000
  C   C214      1.0  0.74849  0.11970  0.23054  1.0000
  H   H214      1.0  0.83819  0.21625  0.01514  1.0000
  C   C215      1.0  0.78857  0.07027  0.25177  1.0000
  H   H215      1.0  0.80472  0.05120  0.25994  1.0000
  C   C216      1.0  0.77159  0.09982  0.01585  1.0000
  H   H216      1.0  0.81452  0.10585  0.27700  1.0000
  H   H217      1.0  0.79004  0.32062  0.27849  1.0000
  H   H218      1.0  0.78128  0.05142  0.00181  1.0000
  C   C217      1.0  0.74386  0.08856  0.22076  1.0000
  H   H219      1.0  0.76399  0.14978  0.02270  1.0000
  H   H220      1.0  0.77815  0.15017  0.25822  1.0000
  H   H221      1.0  0.76039  0.31523  0.24887  1.0000
  C   C218      1.0  0.75824  0.03191  0.22089  1.0000
  H   H222      1.0  0.77907  0.01547  0.22670  1.0000
  C   C219      1.0  0.79420  0.10118  0.26164  1.0000
  H   H223      1.0  0.77157  0.09468  0.04073  1.0000
  C   C220      1.0  0.77740  0.07565  0.99406  1.0000
  H   H224      1.0  0.92758  0.04777  0.13329  1.0000
  C   C221      1.0  0.90925  0.04195  0.15117  1.0000
  H   H225      1.0  0.79635  0.99868  0.13877  1.0000
  H   H226      1.0  0.88473  0.05005  0.14282  1.0000
  C   C222      1.0  0.85103  0.99540  0.21258  1.0000
  S   S74       1.0  0.73965  0.29689  0.32220  1.0000
  H   H227      1.0  0.50648  0.29378  0.31359  1.0000
  H   H228      1.0  0.61433  0.46658  0.31385  1.0000
  C   C223      1.0  0.81174  0.99769  0.15934  1.0000
  N   N19       1.0  0.91019  0.00784  0.15709  1.0000
  C   C224      1.0  0.60488  0.49077  0.31643  1.0000
  H   H229      1.0  0.87968  0.99790  0.11809  1.0000
  C   C225      1.0  0.92806  0.99566  0.18157  1.0000
  Fe  Fe37      1.0  0.65977  0.32292  0.40960  1.0000
  S   S75       1.0  0.62068  0.35637  0.39217  1.0000
  S   S76       1.0  0.65225  0.30317  0.45853  1.0000
  Fe  Fe38      1.0  0.66050  0.38244  0.36860  1.0000
  S   S77       1.0  0.70017  0.35039  0.38891  1.0000
  S   S78       1.0  0.65593  0.29060  0.36776  1.0000
  Fe  Fe39      1.0  0.67509  0.35480  0.63248  1.0000
  H   H230      1.0  0.55443  0.36183  0.37047  1.0000
  S   S79       1.0  0.70106  0.36322  0.58664  1.0000
  C   C226      1.0  0.50231  0.36109  0.37514  1.0000
  C   C227      1.0  0.56562  0.30379  0.43343  1.0000
  H   H231      1.0  0.49422  0.31798  0.62850  1.0000
  C   C228      1.0  0.58071  0.28047  0.41469  1.0000
  H   H232      1.0  0.79197  0.31879  0.62922  1.0000
  H   H233      1.0  0.53220  0.35631  0.45012  1.0000
  C   C229      1.0  0.53251  0.35085  0.36279  1.0000
  C   C230      1.0  0.66506  0.32142  0.49368  1.0000
  C   C231      1.0  0.68785  0.34519  0.49385  1.0000
  C   C232      1.0  0.69850  0.35798  0.52246  1.0000
  C   C233      1.0  0.68597  0.34764  0.55108  1.0000
  C   C234      1.0  0.66280  0.32425  0.55087  1.0000
  C   C235      1.0  0.65267  0.31100  0.52233  1.0000
  H   H234      1.0  0.69769  0.35329  0.47197  1.0000
  H   H235      1.0  0.71652  0.37598  0.52239  1.0000
  H   H236      1.0  0.65290  0.31610  0.57269  1.0000
  H   H237      1.0  0.63504  0.29263  0.52243  1.0000
  Fe  Fe40      1.0  0.61948  0.32670  0.34902  1.0000
  C   C236      1.0  0.66628  0.47041  0.36477  1.0000
  S   S80       1.0  0.56073  0.32385  0.64613  1.0000
  Fe  Fe41      1.0  0.69378  0.32003  0.34524  1.0000
  C   C237      1.0  0.72684  0.49449  0.41593  1.0000
  H   H238      1.0  0.57378  0.24622  0.37812  1.0000
  S   S81       1.0  0.63048  0.38451  0.64352  1.0000
  N   N20       1.0  0.74587  0.29799  0.62976  1.0000
  C   C238      1.0  0.56208  0.26323  0.39388  1.0000
  C   C239      1.0  0.51407  0.29196  0.41211  1.0000
  H   H239      1.0  0.60393  0.45690  0.65382  1.0000
  C   C240      1.0  0.51760  0.33472  0.45092  1.0000
  C   C241      1.0  0.73641  0.29307  0.59947  1.0000
  S   S82       1.0  0.65044  0.43496  0.37881  1.0000
  C   C242      1.0  0.53428  0.32622  0.34092  1.0000
  C   C243      1.0  0.52847  0.26869  0.39280  1.0000
  H   H240      1.0  0.74378  0.30891  0.58107  1.0000
  H   H241      1.0  0.50131  0.37983  0.39243  1.0000
  C   C244      1.0  0.71622  0.26826  0.59185  1.0000
  H   H242      1.0  0.58053  0.31748  0.44908  1.0000
  S   S83       1.0  0.65332  0.30947  0.64713  1.0000
  C   C245      1.0  0.69189  0.47102  0.34338  1.0000
  H   H243      1.0  0.56651  0.47823  0.34766  1.0000
  H   H244      1.0  0.75754  0.34629  0.62506  1.0000
  N   N21       1.0  0.53276  0.30968  0.43151  1.0000
  H   H245      1.0  0.70268  0.44904  0.33462  1.0000
  C   C246      1.0  0.76673  0.32443  0.63706  1.0000
  H   H246      1.0  0.69044  0.22880  0.60984  1.0000
  H   H247      1.0  0.51583  0.32657  0.47550  1.0000
  C   C247      1.0  0.70643  0.24790  0.61535  1.0000
  H   H248      1.0  0.60682  0.27625  0.41590  1.0000
  C   C248      1.0  0.64084  0.47544  0.62409  1.0000
  S   S84       1.0  0.57221  0.31047  0.32753  1.0000
  C   C249      1.0  0.71694  0.25255  0.64605  1.0000
  H   H249      1.0  0.51385  0.25595  0.37618  1.0000
  H   H250      1.0  0.70787  0.26528  0.56792  1.0000
  H   H251      1.0  0.65027  0.45227  0.61681  1.0000
  C   C250      1.0  0.61468  0.47804  0.64472  1.0000
  H   H252      1.0  0.69123  0.47310  0.44513  1.0000
  H   H253      1.0  0.49278  0.34167  0.44232  1.0000
  H   H254      1.0  0.73674  0.47203  0.40720  1.0000
  C   C251      1.0  0.73676  0.27787  0.65288  1.0000
  C   C252      1.0  0.50535  0.31270  0.33069  1.0000
  C   C253      1.0  0.49463  0.32643  0.65243  1.0000
  Fe  Fe42      1.0  0.67390  0.31881  0.69520  1.0000
  S   S85       1.0  0.62867  0.34646  0.71062  1.0000
  S   S86       1.0  0.68965  0.27381  0.72245  1.0000
  Fe  Fe43      1.0  0.61011  0.33984  0.66184  1.0000
  C   C254      1.0  0.90566  0.23085  0.80454  1.0000
  Fe  Fe44      1.0  0.65266  0.38941  0.69118  1.0000
  S   S87       1.0  0.64452  0.43667  0.71590  1.0000
  Fe  Fe45      1.0  0.82722  0.17915  0.83517  1.0000
  S   S88       1.0  0.84754  0.13042  0.82216  1.0000
  S   S89       1.0  0.81366  0.21907  0.80012  1.0000
  Fe  Fe46      1.0  0.84711  0.16944  0.90467  1.0000
  S   S90       1.0  0.86935  0.12109  0.89633  1.0000
  S   S91       1.0  0.84540  0.19435  0.95185  1.0000
  Fe  Fe47      1.0  0.89036  0.14148  0.85280  1.0000
  S   S92       1.0  0.94032  0.12632  0.83461  1.0000
  Fe  Fe48      1.0  0.82513  0.11354  0.86683  1.0000
  S   S93       1.0  0.80007  0.06824  0.87890  1.0000
  S   S94       1.0  0.87190  0.19079  0.86335  1.0000
  S   S95       1.0  0.80118  0.16126  0.87767  1.0000
  C   C255      1.0  0.76453  0.17082  0.96400  1.0000
  H   H255      1.0  0.90168  0.18536  0.74929  1.0000
  H   H256      1.0  0.85165  0.12723  0.96755  1.0000
  H   H257      1.0  0.97305  0.25926  0.83955  1.0000
  H   H258      1.0  0.79487  0.00433  0.90044  1.0000
  H   H259      1.0  0.88591  0.03742  0.88361  1.0000
  H   H260      1.0  0.95203  0.17658  0.87990  1.0000
  N   N22       1.0  0.91889  0.20334  0.79238  1.0000
  C   C256      1.0  0.81277  0.03157  0.86202  1.0000
  C   C257      1.0  0.82800  0.02999  0.83282  1.0000
  H   H261      1.0  0.60184  0.27773  0.68341  1.0000
  H   H262      1.0  0.83237  0.05153  0.82019  1.0000
  C   C258      1.0  0.90892  0.00810  0.84812  1.0000
  C   C259      1.0  0.77829  0.23428  0.77974  1.0000
  C   C260      1.0  0.77981  0.26351  0.76412  1.0000
  C   C261      1.0  0.75292  0.27630  0.74706  1.0000
  C   C262      1.0  0.72409  0.25979  0.74492  1.0000
  C   C263      1.0  0.72261  0.23052  0.76043  1.0000
  C   C264      1.0  0.74934  0.21794  0.77785  1.0000
  H   H263      1.0  0.80193  0.27651  0.76542  1.0000
  H   H264      1.0  0.75458  0.29893  0.73563  1.0000
  H   H265      1.0  0.70056  0.21740  0.75903  1.0000
  H   H266      1.0  0.74764  0.19543  0.78954  1.0000
  C   C265      1.0  0.52473  0.34410  0.69753  1.0000
  C   C266      1.0  0.89517  0.01383  0.87747  1.0000
  C   C267      1.0  0.50755  0.26245  0.70080  1.0000
  H   H267      1.0  0.70034  0.44798  0.67594  1.0000
  C   C268      1.0  0.69085  0.47048  0.68467  1.0000
  C   C269      1.0  0.66426  0.47145  0.70498  1.0000
  C   C270      1.0  0.97517  0.16785  0.87076  1.0000
  H   H268      1.0  0.77560  0.11964  0.92797  1.0000
  H   H269      1.0  0.61381  0.27779  0.72366  1.0000
  C   C271      1.0  0.97143  0.21643  0.81230  1.0000
  H   H270      1.0  0.84795  0.99938  0.79664  1.0000
  C   C272      1.0  0.52174  0.27895  0.75298  1.0000
  C   C273      1.0  0.77440  0.11434  0.95274  1.0000
  H   H271      1.0  0.70922  0.23717  0.66470  1.0000
  S   S96       1.0  0.69940  0.36248  0.67933  1.0000
  C   C274      1.0  0.89853  0.18176  0.77477  1.0000
  C   C275      1.0  0.84777  0.14063  0.98888  1.0000
  N   N23       1.0  0.56362  0.26831  0.71488  1.0000
  C   C276      1.0  0.95141  0.19624  0.79565  1.0000
  C   C277      1.0  0.83672  0.00041  0.81949  1.0000
  H   H272      1.0  0.91398  0.27256  0.83227  1.0000
  H   H273      1.0  0.74429  0.28156  0.67693  1.0000
  C   C278      1.0  0.77868  0.08288  0.96227  1.0000
  C   C279      1.0  0.97622  0.14280  0.84930  1.0000
  H   H274      1.0  0.91036  0.02724  0.83140  1.0000
  H   H275      1.0  0.77807  0.17508  0.94206  1.0000
  H   H276      1.0  0.54757  0.34930  0.70867  1.0000
  C   C280      1.0  0.95793  0.24394  0.82577  1.0000
  C   C281      1.0  0.54061  0.26089  0.69314  1.0000
  H   H277      1.0  0.87235  0.18560  0.78055  1.0000
  H   H278      1.0  0.54770  0.25492  0.66934  1.0000
  H   H279      1.0  0.57283  0.28314  0.76175  1.0000
  H   H280      1.0  0.96185  0.17429  0.78623  1.0000
  C   C282      1.0  0.80686  0.00334  0.87796  1.0000
  H   H281      1.0  0.87992  0.23669  0.80174  1.0000
  C   C283      1.0  0.55461  0.27706  0.74456  1.0000
  H   H282      1.0  0.90507  0.15675  0.78072  1.0000
  C   C284      1.0  0.92486  0.25135  0.82176  1.0000
  C   C285      1.0  0.84506  0.17364  0.98778  1.0000
  H   H283      1.0  0.60642  0.24083  0.70446  1.0000
  C   C286      1.0  0.59808  0.26600  0.70626  1.0000
  H   H284      1.0  0.78325  0.06433  0.94503  1.0000
  C   C287      1.0  0.52443  0.33311  0.66662  1.0000
  N   N24       1.0  0.76931  0.13799  0.97432  1.0000
  H   H285      1.0  0.77429  0.18753  0.98155  1.0000
  H   H286      1.0  0.73831  0.17643  0.96005  1.0000
  H   H287      1.0  0.49599  0.35419  0.73879  1.0000
  C   C288      1.0  0.49550  0.34683  0.71454  1.0000
  C   C289      1.0  0.49810  0.27160  0.73090  1.0000
  H   H288      1.0  0.51454  0.28676  0.77623  1.0000
  H   H289      1.0  0.76702  0.32982  0.66255  1.0000
  Fe  Fe49      1.0  0.82229  0.81657  0.18946  1.0000
  S   S97       1.0  0.86953  0.80192  0.16555  1.0000
  S   S98       1.0  0.79345  0.77573  0.21043  1.0000
  Fe  Fe50      1.0  0.82636  0.88457  0.16411  1.0000
  S   S99       1.0  0.87278  0.87383  0.13831  1.0000
  S   S100      1.0  0.80330  0.93372  0.15688  1.0000
  Fe  Fe51      1.0  0.85030  0.82881  0.12355  1.0000
  S   S101      1.0  0.85998  0.80785  0.07509  1.0000
  Fe  Fe52      1.0  0.88842  0.84834  0.18195  1.0000
  S   S102      1.0  0.93777  0.86062  0.20201  1.0000
  S   S103      1.0  0.80223  0.84089  0.14603  1.0000
  S   S104      1.0  0.84278  0.86154  0.20914  1.0000
  C   C290      1.0  0.81960  0.96828  0.17310  1.0000
  C   C291      1.0  0.91359  0.94289  0.16679  1.0000
  C   C292      1.0  0.83946  0.96722  0.19970  1.0000
  C   C293      1.0  0.89416  0.98826  0.13727  1.0000
  H   H290      1.0  0.84554  0.94471  0.21058  1.0000
  C   C294      1.0  0.84343  0.82245  0.03936  1.0000
  C   C295      1.0  0.81450  0.84084  0.03835  1.0000
  C   C296      1.0  0.80039  0.84922  0.00930  1.0000
  H   H291      1.0  0.64150  0.51043  0.28741  1.0000
  H   H292      1.0  0.94377  0.95319  0.20638  1.0000
  C   C297      1.0  0.85836  0.81314  0.01108  1.0000
  H   H293      1.0  0.80271  0.84812  0.05993  1.0000
  S   S105      1.0  0.66677  0.64725  0.30975  1.0000
  H   H294      1.0  0.77773  0.86299  0.00871  1.0000
  H   H295      1.0  0.88071  0.79888  0.01162  1.0000
  H   H296      1.0  0.91473  0.91758  0.17084  1.0000
  H   H297      1.0  0.88199  0.94025  0.12655  1.0000
  S   S106      1.0  0.57120  0.64471  0.31464  1.0000
  H   H298      1.0  0.61698  0.57296  0.26495  1.0000
  H   H299      1.0  0.95328  0.80966  0.15760  1.0000
  C   C298      1.0  0.73597  0.74181  0.29694  1.0000
  C   C299      1.0  0.73955  0.72298  0.27005  1.0000
  C   C300      1.0  0.75715  0.73383  0.24402  1.0000
  C   C301      1.0  0.77145  0.76364  0.24428  1.0000
  C   C302      1.0  0.76775  0.78254  0.27110  1.0000
  C   C303      1.0  0.75021  0.77166  0.29717  1.0000
  H   H300      1.0  0.61948  0.59512  0.30078  1.0000
  H   H301      1.0  0.75980  0.71887  0.22356  1.0000
  H   H302      1.0  0.77850  0.80549  0.27182  1.0000
  H   H303      1.0  0.72890  0.69999  0.26935  1.0000
  C   C304      1.0  0.62519  0.57180  0.28968  1.0000
  N   N25       1.0  0.60912  0.54625  0.30593  1.0000
  H   H304      1.0  0.86608  0.99436  0.23337  1.0000
  C   C305      1.0  0.97465  0.84641  0.18490  1.0000
  C   C306      1.0  0.62020  0.51566  0.30167  1.0000
  C   C307      1.0  0.89549  0.95555  0.14187  1.0000
  N   N26       1.0  0.79968  0.75541  0.10880  1.0000
  C   C308      1.0  0.78718  0.77435  0.08550  1.0000
  C   C309      1.0  0.78341  0.75273  0.13644  1.0000
  C   C310      1.0  0.75778  0.79145  0.08969  1.0000
  C   C311      1.0  0.75381  0.76928  0.14136  1.0000
  C   C312      1.0  0.74105  0.78889  0.11788  1.0000
  C   C313      1.0  0.83154  0.73922  0.10508  1.0000
  H   H305      1.0  0.80029  0.77691  0.06375  1.0000
  H   H306      1.0  0.79371  0.73837  0.15525  1.0000
  H   H307      1.0  0.74853  0.80715  0.07148  1.0000
  H   H308      1.0  0.74158  0.76773  0.16377  1.0000
  H   H309      1.0  0.71863  0.80258  0.12183  1.0000
  H   H310      1.0  0.83947  0.73861  0.08024  1.0000
  H   H311      1.0  0.85009  0.75214  0.11853  1.0000
  H   H312      1.0  0.83101  0.71452  0.11370  1.0000
  H   H313      1.0  0.50462  0.63082  0.30181  1.0000
  C   C314      1.0  0.97560  0.82075  0.16417  1.0000
  H   H314      1.0  0.65208  0.56812  0.29050  1.0000
  H   H315      1.0  0.74770  0.78653  0.31771  1.0000
  C   C315      1.0  0.92996  0.96300  0.18682  1.0000
  C   C316      1.0  0.50473  0.64682  0.32160  1.0000
  H   H316      1.0  0.72404  0.50060  0.31755  1.0000
  Fe  Fe53      1.0  0.68269  0.61241  0.34699  1.0000
  H   H317      1.0  0.60099  0.58168  0.63624  1.0000
  C   C317      1.0  0.70488  0.74767  0.46501  1.0000
  Fe  Fe54      1.0  0.65648  0.65425  0.40008  1.0000
  S   S107      1.0  0.63787  0.69200  0.36700  1.0000
  S   S108      1.0  0.64125  0.65369  0.45104  1.0000
  C   C318      1.0  0.73858  0.52286  0.40481  1.0000
  H   H318      1.0  0.57329  0.57713  0.32718  1.0000
  H   H319      1.0  0.50404  0.70388  0.59396  1.0000
  S   S109      1.0  0.71433  0.72930  0.33087  1.0000
  S   S110      1.0  0.63530  0.61492  0.37220  1.0000
  S   S111      1.0  0.70564  0.64912  0.37755  1.0000
  Fe  Fe55      1.0  0.69129  0.66736  0.62436  1.0000
  S   S112      1.0  0.71441  0.68215  0.57861  1.0000
  C   C319      1.0  0.66362  0.65850  0.48602  1.0000
  C   C320      1.0  0.69648  0.66595  0.48619  1.0000
  C   C321      1.0  0.71219  0.67233  0.51480  1.0000
  C   C322      1.0  0.69527  0.67101  0.54332  1.0000
  C   C323      1.0  0.66275  0.66259  0.54305  1.0000
  C   C324      1.0  0.64703  0.65646  0.51455  1.0000
  H   H320      1.0  0.70949  0.66764  0.46435  1.0000
  H   H321      1.0  0.73740  0.67876  0.51487  1.0000
  H   H322      1.0  0.64940  0.66162  0.56478  1.0000
  H   H323      1.0  0.62160  0.65073  0.51463  1.0000
  C   C325      1.0  0.65255  0.73445  0.44670  1.0000
  C   C326      1.0  0.53434  0.67806  0.35878  1.0000
  H   H324      1.0  0.69777  0.60276  0.43873  1.0000
  C   C327      1.0  0.72429  0.55157  0.41503  1.0000
  H   H325      1.0  0.75904  0.73731  0.64100  1.0000
  C   C328      1.0  0.49830  0.72084  0.64142  1.0000
  C   C329      1.0  0.66422  0.52817  0.36614  1.0000
  C   C330      1.0  0.69015  0.52891  0.34516  1.0000
  H   H326      1.0  0.63633  0.72855  0.42768  1.0000
  C   C331      1.0  0.60372  0.50800  0.65500  1.0000
  H   H327      1.0  0.54574  0.53401  0.35417  1.0000
  C   C332      1.0  0.64113  0.73289  0.47743  1.0000
  C   C333      1.0  0.53449  0.65732  0.33321  1.0000
  C   C334      1.0  0.69590  0.74229  0.40852  1.0000
  S   S113      1.0  0.66145  0.62462  0.62788  1.0000
  C   C335      1.0  0.68768  0.52426  0.44719  1.0000
  Fe  Fe56      1.0  0.62024  0.65204  0.33754  1.0000
  H   H328      1.0  0.65405  0.73627  0.52622  1.0000
  N   N27       1.0  0.68396  0.74215  0.44081  1.0000
  S   S114      1.0  0.57568  0.64784  0.64238  1.0000
  H   H329      1.0  0.55705  0.68635  0.36790  1.0000
  C   C336      1.0  0.50993  0.64369  0.64759  1.0000
  C   C337      1.0  0.65248  0.49909  0.37596  1.0000
  C   C338      1.0  0.50464  0.68867  0.37217  1.0000
  H   H330      1.0  0.73010  0.75261  0.46041  1.0000
  Fe  Fe57      1.0  0.68609  0.68460  0.34189  1.0000
  H   H331      1.0  0.51092  0.63626  0.62335  1.0000
  C   C339      1.0  0.66217  0.73882  0.50224  1.0000
  N   N28       1.0  0.61843  0.53463  0.64493  1.0000
  H   H332      1.0  0.71567  0.75922  0.40542  1.0000
  H   H333      1.0  0.70540  0.71832  0.40182  1.0000
  N   N29       1.0  0.69935  0.55198  0.43617  1.0000
  H   H334      1.0  0.75754  0.52267  0.38721  1.0000
  H   H335      1.0  0.71107  0.74972  0.51530  1.0000
  H   H336      1.0  0.65360  0.54989  0.37536  1.0000
  C   C340      1.0  0.64427  0.53227  0.62489  1.0000
  H   H337      1.0  0.65903  0.58470  0.43585  1.0000
  H   H338      1.0  0.73265  0.57341  0.40511  1.0000
  C   C341      1.0  0.70386  0.50024  0.33372  1.0000
  H   H339      1.0  0.61659  0.72551  0.48196  1.0000
  H   H340      1.0  0.67631  0.74947  0.39174  1.0000
  C   C342      1.0  0.69426  0.74630  0.49606  1.0000
  H   H341      1.0  0.68179  0.58325  0.47204  1.0000
  H   H342      1.0  0.66732  0.52457  0.46326  1.0000
  C   C343      1.0  0.70124  0.49511  0.43726  1.0000
  C   C344      1.0  0.68381  0.58207  0.44613  1.0000
  C   C345      1.0  0.56666  0.52859  0.33944  1.0000
  S   S115      1.0  0.70709  0.56508  0.33425  1.0000
  S   S116      1.0  0.65609  0.69787  0.65208  1.0000
  H   H343      1.0  0.67699  0.50089  0.59909  1.0000
  C   C346      1.0  0.65579  0.50269  0.61409  1.0000
  H   H344      1.0  0.65687  0.55326  0.61806  1.0000
  H   H345      1.0  0.63261  0.49879  0.39248  1.0000
  H   H346      1.0  0.50474  0.70508  0.39163  1.0000
  H   H347      1.0  0.52421  0.71887  0.64622  1.0000
  C   C347      1.0  0.57811  0.49735  0.33561  1.0000
  C   C348      1.0  0.60742  0.56596  0.65627  1.0000
  C   C349      1.0  0.58243  0.55290  0.32418  1.0000
  C   C350      1.0  0.81251  0.78050  0.71266  1.0000
  Fe  Fe58      1.0  0.68915  0.61316  0.67172  1.0000
  C   C351      1.0  0.79200  0.80525  0.72313  1.0000
  Fe  Fe59      1.0  0.68503  0.68209  0.69479  1.0000
  C   C352      1.0  0.78458  0.75670  0.87603  1.0000
  S   S117      1.0  0.69496  0.72195  0.73034  1.0000
  C   C353      1.0  0.70528  0.49873  0.67571  1.0000
  C   C354      1.0  0.75038  0.79564  0.90436  1.0000
  S   S118      1.0  0.65370  0.63963  0.70337  1.0000
  H   H348      1.0  0.58413  0.50966  0.67188  1.0000
  Fe  Fe60      1.0  0.89188  0.84160  0.87014  1.0000
  S   S119      1.0  0.86354  0.88276  0.89093  1.0000
  S   S120      1.0  0.94357  0.83466  0.88807  1.0000
  Fe  Fe61      1.0  0.83171  0.81711  0.83464  1.0000
  S   S121      1.0  0.79952  0.85738  0.85268  1.0000
  S   S122      1.0  0.81861  0.77496  0.80302  1.0000
  Fe  Fe62      1.0  0.84185  0.88848  0.84314  1.0000
  S   S123      1.0  0.84340  0.93568  0.81810  1.0000
  Fe  Fe63      1.0  0.82438  0.84845  0.89934  1.0000
  S   S124      1.0  0.79597  0.84925  0.94496  1.0000
  S   S125      1.0  0.87257  0.84893  0.82153  1.0000
  S   S126      1.0  0.85401  0.80655  0.88203  1.0000
  C   C355      1.0  0.81550  0.84010  0.98103  1.0000
  C   C356      1.0  0.92777  0.92096  0.85159  1.0000
  H   H349      1.0  0.63210  0.50178  0.73239  1.0000
  C   C357      1.0  0.79708  0.76781  0.92914  1.0000
  H   H350      1.0  0.95811  0.85464  0.82406  1.0000
  C   C358      1.0  0.90332  0.95844  0.88965  1.0000
  C   C359      1.0  0.83115  0.97220  0.83556  1.0000
  C   C360      1.0  0.81636  0.97377  0.86497  1.0000
  H   H351      1.0  0.83974  0.74370  0.94828  1.0000
  H   H352      1.0  0.81177  0.95221  0.87749  1.0000
  C   C361      1.0  0.72904  0.73451  0.75266  1.0000
  C   C362      1.0  0.75950  0.71875  0.75159  1.0000
  C   C363      1.0  0.78627  0.73105  0.76785  1.0000
  C   C364      1.0  0.78314  0.75934  0.78529  1.0000
  C   C365      1.0  0.75250  0.77470  0.78703  1.0000
  C   C366      1.0  0.72570  0.76230  0.77088  1.0000
  H   H353      1.0  0.76254  0.69725  0.73796  1.0000
  H   H354      1.0  0.80975  0.71880  0.76643  1.0000
  H   H355      1.0  0.74956  0.79646  0.80024  1.0000
  H   H356      1.0  0.70228  0.77471  0.77199  1.0000
  C   C367      1.0  0.84476  0.82227  0.98207  1.0000
  C   C368      1.0  0.53728  0.65959  0.69491  1.0000
  H   H357      1.0  0.51413  0.73036  0.69947  1.0000
  C   C369      1.0  0.83098  0.73024  0.90032  1.0000
  C   C370      1.0  0.66645  0.52920  0.70689  1.0000
  H   H358      1.0  0.55940  0.66443  0.70751  1.0000
  C   C371      1.0  0.79991  0.75684  0.69364  1.0000
  C   C372      1.0  0.69286  0.52823  0.68634  1.0000
  H   H359      1.0  0.65715  0.55169  0.71582  1.0000
  H   H360      1.0  0.75785  0.81817  0.89376  1.0000
  C   C373      1.0  0.50683  0.66347  0.70979  1.0000
  H   H361      1.0  0.74267  0.80097  0.92879  1.0000
  H   H362      1.0  0.72835  0.72978  0.66992  1.0000
  H   H363      1.0  0.76995  0.76117  0.85525  1.0000
  H   H364      1.0  0.83773  0.77912  0.72020  1.0000
  H   H365      1.0  0.72903  0.78687  0.89142  1.0000
  H   H366      1.0  0.85670  0.81509  0.96054  1.0000
  H   H367      1.0  0.50571  0.67128  0.73391  1.0000
  N   N30       1.0  0.91699  0.95306  0.86087  1.0000
  C   C374      1.0  0.74744  0.78203  0.69549  1.0000
  H   H368      1.0  0.92864  0.97272  0.81664  1.0000
  H   H369      1.0  0.85222  0.71436  0.89884  1.0000
  N   N31       1.0  0.77765  0.77240  0.90339  1.0000
  H   H370      1.0  0.90902  0.91040  0.83644  1.0000
  S   S127      1.0  0.72215  0.65434  0.66626  1.0000
  H   H371      1.0  0.80126  0.82305  0.73887  1.0000
  H   H372      1.0  0.90062  0.93914  0.90594  1.0000
  S   S128      1.0  0.71096  0.56300  0.67284  1.0000
  C   C375      1.0  0.82395  0.74662  0.92804  1.0000
  C   C376      1.0  0.81120  0.73529  0.87412  1.0000
  H   H373      1.0  0.81701  0.72356  0.85207  1.0000
  C   C377      1.0  0.89217  0.98886  0.89835  1.0000
  H   H374      1.0  0.79233  0.78110  0.95050  1.0000
  H   H375      1.0  0.95104  0.92120  0.83851  1.0000
  C   C378      1.0  0.98025  0.84131  0.86795  1.0000
  C   C379      1.0  0.98071  0.85117  0.83675  1.0000
  H   H376      1.0  0.93198  0.90529  0.87217  1.0000
  N   N32       1.0  0.76763  0.75757  0.68574  1.0000
  C   C380      1.0  0.65242  0.50089  0.71637  1.0000
  C   C381      1.0  0.53883  0.65008  0.66356  1.0000
  C   C382      1.0  0.75930  0.80620  0.71434  1.0000
  H   H377      1.0  0.58565  0.56500  0.67149  1.0000
  H   H378      1.0  0.72171  0.78225  0.68979  1.0000
  C   C383      1.0  0.91929  0.97728  0.83997  1.0000
  H   H379      1.0  0.74297  0.82488  0.72306  1.0000
  H   H380      1.0  0.62709  0.57681  0.67004  1.0000
  Fe  Fe64      1.0  0.62782  0.65380  0.65872  1.0000
  H   H381      1.0  0.81587  0.73736  0.68607  1.0000
  H   H382      1.0  0.72592  0.49776  0.66007  1.0000
  C   C384      1.0  0.75487  0.73231  0.66613  1.0000
  H   H383      1.0  0.76669  0.70910  0.67216  1.0000
  H   H384      1.0  0.88060  0.99291  0.92085  1.0000
