data_image0
_chemical_formula_structural       FeS2FeS2FeSFeS3H2CSC2HFeSHFeS2FeS2FeSFeS3CHFeCSCHS2HSH2SHC2H3C6H4C7H3C7H4C6H4C2H3NH2C2SC5H2CHCH2SFeH2CH2CHNC3HCH2CHFeNHCHSCHFeH2CH4CH2CNHCHC2HC7NC4HCH2C3H2CHNCSHCHNFeH2NHC3H3C3H2CHS2FeHSCSCSFeSFeCSFeSFeHSHS2H4C2HC4HC7H4CHSNC6H4C2H3CFeH2CH2NC3HSCHCH3CNH2C3FeH2C2HCHCNCSHCH2NSCHC6H2CH2CH2CFeH2FeHC2H2C2HFeCH2CHSH2C2H2CNHS2CSNFeSFeCHFeCHFeCH3S2CSCHC2H2C3HCHC2HCH2FeCHC2H3CNH2C2HCNSCHCHCHSC2H2CHSCHSCSHSH2FeCHCH2SFeSHCSFeC2HFeSCS2HSHFeSFeSCSHCH2C2FeCSFeSHCS2CH2SH2CSC3HCHC4H4C2S2HCH4C2HC8H2CH2SH3CSH4C3HNHC2SCNCHFeH5SHC2H2CHFeHCFeC2H5C3SCSFeSFeS2FeS2FeSFeS3CFeS2FeS2FeSFeS3HC2HCNHC2H2C4HC7H4CHNC8H5C6H5CHCH3SH3C2H2NH2C3H2C2HNHNC2H5CHCHC2NC2NC6H4CH6CSHC3HFeHC2HSH3CHCH5C3HC4H2CHCH5C2H4CHCHNCFeHCFeS2FeS2FeSFeS4FeS2FeHFeS2FeS2FeS2FeSFeS3CSFeHSCHSHSC8H4C6H5C6H4C6H4C6H4SCH2CHC2H2C2H2C4HC2H8CH9CNC7HCNHCHCH3SCNC6H2FeH4NC3H2CHNC4HCH3CSHCNH5CHCH3CH4C2H2CFeS2FeS2FeSFeS3FeCSC2H2C2SFeS2FeS2FeSFeS4HSCFeSFeSHCHCH3SC2NH3CHC3H2C6H11C2FeC5H2C3H2C6H4C6H4C2HFeCH6C2SC3H2CHC2H2CHNCH3CH2CHC5H4SHNH3CNHNSHNCHC3HSHNHC2H2CFeC3HC2H2CHC2FeH3SH2SFeSFeCSHS2FeS2FeHFeCS3C4H5CH3C6H5CFeC7H5CSC3HSH2CHC3HN2CSH3SC3HSCH3C2SC2H3C2HCH2C2NHCH3C2HFeCHCFeCNSC2H3FeH2CHCSH2C2SC2HFeCSFeSHFeCHC2FeS2CH3CH2FeHC2HC2H2CH6CSC3HSHCHSHC6H2NH2CSH4C2H2CH3C2FeCSCHC2HC2SCHC3HC2NCHSHSHFeSFeSHSHNCSCS2CFeH2FeSCH2C2SCHC5HC3HSH3SCHC5H3C2H3CHC3HCHFeCH3C2H4SFeHC6NH2CFeCH2CSCHC2HNCH9CHCSHCSCHNH2SH2FeNHNHSFeSC2HCH3FeSFeS2FeS2FeSFeS3CFeS2FeS2FeSFeS3HC3H2C6H4C3H3C2H4C3HC6H4CHC6H2S2H3CHCHFeHCHSC2H3CHC3HCH5CHCHCHCN2H2CHNH3C2H2NH5SC2NC4NHCHC3H2C3HCH2C2HC2SH2SCHCHC4SCH2SCFeS2FeS2FeSFeS3FeHSFeSC2S2FeS2FeS2FeSFeS3FeNSCH3SH2C5HC7H4C2H2C7H4CHC2HC6HCH2C2H2C7H4C6H3NC6H8CNC6H9SCHNHNFe2H2CFeCNH2CH8CH2CH3CH2SC2S3CFeHCH3C2HCH
_chemical_formula_sum              "Fe128 S256 H768 C768 N64"
_cell_length_a       45.7312
_cell_length_b       57.4458
_cell_length_c       56.9225
_cell_angle_alpha    88.6524
_cell_angle_beta     90.7092
_cell_angle_gamma    90.0955

_space_group_name_H-M_alt    "P 1"
_space_group_IT_number       1

loop_
  _space_group_symop_operation_xyz
  'x, y, z'

loop_
  _atom_site_type_symbol
  _atom_site_label
  _atom_site_symmetry_multiplicity
  _atom_site_fract_x
  _atom_site_fract_y
  _atom_site_fract_z
  _atom_site_occupancy
  Fe  Fe1       1.0  0.40927  0.24084  0.13761  1.0000
  S   S1        1.0  0.38612  0.27032  0.15491  1.0000
  S   S2        1.0  0.45633  0.23283  0.14823  1.0000
  Fe  Fe2       1.0  0.35253  0.22228  0.11525  1.0000
  S   S3        1.0  0.32552  0.25005  0.13139  1.0000
  S   S4        1.0  0.33656  0.19403  0.09052  1.0000
  Fe  Fe3       1.0  0.36172  0.27437  0.12047  1.0000
  S   S5        1.0  0.34600  0.30908  0.10529  1.0000
  Fe  Fe4       1.0  0.35217  0.24368  0.16452  1.0000
  S   S6        1.0  0.32886  0.24288  0.19972  1.0000
  S   S7        1.0  0.38759  0.24699  0.10224  1.0000
  S   S8        1.0  0.37641  0.21379  0.14928  1.0000
  H   H1        1.0  0.46809  0.25039  0.10048  1.0000
  H   H2        1.0  0.02639  0.18695  0.02368  1.0000
  C   C1        1.0  0.25304  0.22923  0.45016  1.0000
  S   S9        1.0  0.16321  0.11667  0.03846  1.0000
  C   C2        1.0  0.27993  0.28518  0.17978  1.0000
  C   C3        1.0  0.10802  0.05121  0.00999  1.0000
  H   H3        1.0  0.02026  0.12952  0.43578  1.0000
  Fe  Fe5       1.0  0.18656  0.15097  0.03330  1.0000
  S   S10       1.0  0.20318  0.17489  0.06202  1.0000
  H   H4        1.0  0.11922  0.08078  0.03095  1.0000
  Fe  Fe6       1.0  0.41885  0.25133  0.38136  1.0000
  S   S11       1.0  0.40205  0.27789  0.35520  1.0000
  S   S12       1.0  0.46415  0.25782  0.39666  1.0000
  Fe  Fe7       1.0  0.35917  0.22598  0.38279  1.0000
  S   S13       1.0  0.33868  0.25064  0.35600  1.0000
  S   S14       1.0  0.33753  0.19612  0.40324  1.0000
  Fe  Fe8       1.0  0.38144  0.24779  0.33666  1.0000
  S   S15       1.0  0.39564  0.24343  0.29874  1.0000
  Fe  Fe9       1.0  0.36157  0.27843  0.37703  1.0000
  S   S16       1.0  0.34168  0.31303  0.38673  1.0000
  S   S17       1.0  0.40047  0.22096  0.36209  1.0000
  S   S18       1.0  0.37966  0.25388  0.40453  1.0000
  C   C4        1.0  0.28907  0.18346  0.00541  1.0000
  H   H5        1.0  0.42972  0.32395  0.05376  1.0000
  Fe  Fe10      1.0  0.18154  0.16223  0.45358  1.0000
  C   C5        1.0  0.48869  0.24755  0.10964  1.0000
  S   S19       1.0  0.20176  0.17634  0.41964  1.0000
  C   C6        1.0  0.02231  0.10168  0.49032  1.0000
  H   H6        1.0  0.39854  0.19153  0.28563  1.0000
  S   S20       1.0  0.14240  0.13805  0.45799  1.0000
  S   S21       1.0  0.16014  0.19039  0.47375  1.0000
  H   H7        1.0  0.41340  0.16682  0.30160  1.0000
  S   S22       1.0  0.07834  0.17889  0.48866  1.0000
  H   H8        1.0  0.48967  0.20178  0.08469  1.0000
  H   H9        1.0  0.28438  0.16495  0.01019  1.0000
  S   S23       1.0  0.20965  0.06811  0.01208  1.0000
  H   H10       1.0  0.30737  0.17872  0.35600  1.0000
  C   C7        1.0  0.49529  0.26357  0.31693  1.0000
  C   C8        1.0  0.36113  0.31051  0.43288  1.0000
  H   H11       1.0  0.35294  0.15886  0.36916  1.0000
  H   H12       1.0  0.37829  0.30930  0.46826  1.0000
  H   H13       1.0  0.36621  0.29258  0.42987  1.0000
  C   C9        1.0  0.29962  0.19097  0.40738  1.0000
  C   C10       1.0  0.27813  0.20268  0.39401  1.0000
  C   C11       1.0  0.24829  0.19794  0.39792  1.0000
  C   C12       1.0  0.23958  0.18186  0.41553  1.0000
  C   C13       1.0  0.26110  0.17032  0.42900  1.0000
  C   C14       1.0  0.29094  0.17463  0.42471  1.0000
  H   H14       1.0  0.28445  0.21521  0.38052  1.0000
  H   H15       1.0  0.23177  0.20681  0.38729  1.0000
  H   H16       1.0  0.25474  0.15771  0.44242  1.0000
  H   H17       1.0  0.30737  0.16534  0.43504  1.0000
  C   C15       1.0  0.16726  0.05960  0.49603  1.0000
  C   C16       1.0  0.02480  0.12126  0.01010  1.0000
  C   C17       1.0  0.34780  0.31939  0.16702  1.0000
  C   C18       1.0  0.42992  0.31513  0.40737  1.0000
  C   C19       1.0  0.13315  0.01597  0.01928  1.0000
  C   C20       1.0  0.05185  0.13245  0.01333  1.0000
  C   C21       1.0  0.34822  0.32424  0.41503  1.0000
  H   H18       1.0  0.35093  0.20351  0.29390  1.0000
  H   H19       1.0  0.51035  0.19206  0.12160  1.0000
  H   H20       1.0  0.27563  0.27250  0.19442  1.0000
  C   C22       1.0  0.32614  0.19227  0.32386  1.0000
  C   C23       1.0  0.34773  0.24394  0.22709  1.0000
  C   C24       1.0  0.33171  0.24619  0.24787  1.0000
  C   C25       1.0  0.34599  0.24683  0.26996  1.0000
  C   C26       1.0  0.37645  0.24484  0.27145  1.0000
  C   C27       1.0  0.39242  0.24279  0.25066  1.0000
  C   C28       1.0  0.37820  0.24253  0.22857  1.0000
  H   H21       1.0  0.30810  0.24727  0.24689  1.0000
  H   H22       1.0  0.33341  0.24848  0.28581  1.0000
  H   H23       1.0  0.41599  0.24123  0.25160  1.0000
  H   H24       1.0  0.39080  0.24081  0.21274  1.0000
  C   C29       1.0  0.29922  0.18814  0.08380  1.0000
  C   C30       1.0  0.27651  0.20132  0.09293  1.0000
  C   C31       1.0  0.24722  0.19659  0.08657  1.0000
  C   C32       1.0  0.24025  0.17879  0.07087  1.0000
  C   C33       1.0  0.26294  0.16546  0.06188  1.0000
  C   C34       1.0  0.29225  0.17013  0.06833  1.0000
  H   H25       1.0  0.28147  0.21517  0.10490  1.0000
  H   H26       1.0  0.22983  0.20693  0.09370  1.0000
  H   H27       1.0  0.25789  0.15156  0.04999  1.0000
  H   H28       1.0  0.30961  0.15969  0.06131  1.0000
  C   C35       1.0  0.04623  0.15129  0.45840  1.0000
  C   C36       1.0  0.04579  0.16729  0.47654  1.0000
  H   H29       1.0  0.21967  0.21196  0.47082  1.0000
  H   H30       1.0  0.40403  0.30296  0.08608  1.0000
  H   H31       1.0  0.31044  0.28926  0.21994  1.0000
  N   N1        1.0  0.07289  0.09238  0.48434  1.0000
  H   H32       1.0  0.28037  0.27482  0.16353  1.0000
  H   H33       1.0  0.26180  0.29797  0.17854  1.0000
  C   C37       1.0  0.02591  0.16857  0.01993  1.0000
  C   C38       1.0  0.05236  0.15615  0.01841  1.0000
  S   S24       1.0  0.15148  0.16521  0.00855  1.0000
  C   C39       1.0  0.26236  0.21247  0.02791  1.0000
  C   C40       1.0  0.48906  0.27880  0.33493  1.0000
  C   C41       1.0  0.36380  0.32188  0.08087  1.0000
  C   C42       1.0  0.40715  0.32807  0.05734  1.0000
  C   C43       1.0  0.48885  0.24020  0.13324  1.0000
  H   H34       1.0  0.06686  0.14619  0.45099  1.0000
  H   H35       1.0  0.27626  0.25055  0.41372  1.0000
  C   C44       1.0  0.32060  0.29801  0.20504  1.0000
  H   H36       1.0  0.35836  0.30829  0.22544  1.0000
  C   C45       1.0  0.20808  0.02105  0.00418  1.0000
  H   H37       1.0  0.19119  0.07012  0.46525  1.0000
  H   H38       1.0  0.32545  0.22065  0.45612  1.0000
  S   S25       1.0  0.20669  0.14749  0.48471  1.0000
  Fe  Fe11      1.0  0.13106  0.12955  0.01085  1.0000
  H   H39       1.0  0.39698  0.19611  0.07296  1.0000
  H   H40       1.0  0.07304  0.16493  0.02107  1.0000
  C   C46       1.0  0.41608  0.33533  0.39901  1.0000
  H   H41       1.0  0.28121  0.21430  0.03949  1.0000
  H   H42       1.0  0.46661  0.28166  0.34001  1.0000
  C   C47       1.0  0.14908  0.02690  0.03706  1.0000
  H   H43       1.0  0.47763  0.25477  0.30779  1.0000
  N   N2        1.0  0.46525  0.18631  0.11273  1.0000
  C   C48       1.0  0.43826  0.17962  0.12052  1.0000
  C   C49       1.0  0.04393  0.08911  0.47894  1.0000
  C   C50       1.0  0.41342  0.18279  0.10622  1.0000
  H   H44       1.0  0.20162  0.02958  0.45337  1.0000
  C   C51       1.0  0.41626  0.19319  0.08398  1.0000
  H   H45       1.0  0.15731  0.05940  0.05420  1.0000
  H   H46       1.0  0.43577  0.17208  0.13803  1.0000
  C   C52       1.0  0.29274  0.24811  0.42808  1.0000
  H   H47       1.0  0.39197  0.17754  0.11242  1.0000
  Fe  Fe12      1.0  0.18942  0.10428  0.00801  1.0000
  N   N3        1.0  0.30791  0.29723  0.18316  1.0000
  H   H48       1.0  0.29750  0.26522  0.43598  1.0000
  C   C53       1.0  0.12334  0.06257  0.02778  1.0000
  H   H49       1.0  0.38276  0.32753  0.19122  1.0000
  S   S26       1.0  0.08421  0.11622  0.00972  1.0000
  C   C54       1.0  0.23677  0.22459  0.03296  1.0000
  H   H50       1.0  0.48677  0.18738  0.14599  1.0000
  Fe  Fe13      1.0  0.12388  0.16523  0.48142  1.0000
  H   H51       1.0  0.16581  0.01746  0.04700  1.0000
  H   H52       1.0  0.03735  0.07703  0.46551  1.0000
  C   C55       1.0  0.29282  0.20379  0.47742  1.0000
  H   H53       1.0  0.43110  0.29999  0.39643  1.0000
  H   H54       1.0  0.41876  0.19604  0.31232  1.0000
  H   H55       1.0  0.44621  0.20847  0.05907  1.0000
  H   H56       1.0  0.39711  0.16140  0.34444  1.0000
  C   C56       1.0  0.44160  0.31431  0.43019  1.0000
  H   H57       1.0  0.19153  0.22999  0.02327  1.0000
  H   H58       1.0  0.30646  0.20142  0.31816  1.0000
  C   C57       1.0  0.40307  0.18414  0.30356  1.0000
  N   N4        1.0  0.28237  0.23153  0.44615  1.0000
  H   H59       1.0  0.47348  0.22350  0.36031  1.0000
  C   C58       1.0  0.17884  0.01325  0.48235  1.0000
  H   H60       1.0  0.10342  0.06463  0.48496  1.0000
  C   C59       1.0  0.01982  0.14190  0.44980  1.0000
  C   C60       1.0  0.18894  0.03250  0.46894  1.0000
  H   H61       1.0  0.23719  0.23875  0.43938  1.0000
  C   C61       1.0  0.30222  0.21914  0.45958  1.0000
  C   C62       1.0  0.49105  0.18189  0.12773  1.0000
  C   C63       1.0  0.26296  0.20131  0.48158  1.0000
  C   C64       1.0  0.24292  0.21407  0.46788  1.0000
  C   C65       1.0  0.21186  0.22146  0.01900  1.0000
  C   C66       1.0  0.18306  0.05554  0.47563  1.0000
  C   C67       1.0  0.46830  0.19629  0.09082  1.0000
  N   N5        1.0  0.37636  0.18212  0.31747  1.0000
  C   C68       1.0  0.37707  0.16976  0.33832  1.0000
  C   C69       1.0  0.35138  0.19339  0.31022  1.0000
  C   C70       1.0  0.35221  0.16822  0.35236  1.0000
  C   C71       1.0  0.32662  0.17954  0.34503  1.0000
  H   H62       1.0  0.31295  0.24161  0.41976  1.0000
  C   C72       1.0  0.49599  0.24527  0.38496  1.0000
  H   H63       1.0  0.45490  0.31388  0.47471  1.0000
  H   H64       1.0  0.22380  0.01969  0.01851  1.0000
  C   C73       1.0  0.39265  0.31616  0.07564  1.0000
  C   C74       1.0  0.34776  0.30879  0.20827  1.0000
  C   C75       1.0  0.36788  0.32006  0.45474  1.0000
  H   H65       1.0  0.31084  0.30748  0.14700  1.0000
  H   H66       1.0  0.45213  0.29837  0.43646  1.0000
  C   C76       1.0  0.09539  0.07871  0.47280  1.0000
  H   H67       1.0  0.02422  0.10293  0.00619  1.0000
  N   N6        1.0  0.26303  0.19759  0.00949  1.0000
  C   C77       1.0  0.44383  0.20009  0.07621  1.0000
  S   S27       1.0  0.21531  0.13773  0.00500  1.0000
  H   H68       1.0  0.30808  0.18915  0.01623  1.0000
  C   C78       1.0  0.14434  0.05044  0.04110  1.0000
  H   H69       1.0  0.35838  0.32734  0.15186  1.0000
  N   N7        1.0  0.11343  0.02829  0.00567  1.0000
  Fe  Fe14      1.0  0.16645  0.12495  0.49055  1.0000
  H   H70       1.0  0.30853  0.19364  0.48774  1.0000
  H   H71       1.0  0.23590  0.23544  0.04828  1.0000
  N   N8        1.0  0.43920  0.33309  0.44442  1.0000
  H   H72       1.0  0.11438  0.08991  0.46803  1.0000
  C   C79       1.0  0.32092  0.30804  0.16435  1.0000
  C   C80       1.0  0.01881  0.17390  0.48586  1.0000
  C   C81       1.0  0.36144  0.31950  0.18909  1.0000
  H   H73       1.0  0.50699  0.30072  0.36148  1.0000
  H   H74       1.0  0.49660  0.16309  0.12788  1.0000
  H   H75       1.0  0.08715  0.07088  0.45634  1.0000
  C   C82       1.0  0.21301  0.20671  0.99994  1.0000
  C   C83       1.0  0.45115  0.33211  0.46844  1.0000
  C   C84       1.0  0.49453  0.22916  0.36691  1.0000
  H   H76       1.0  0.25525  0.18939  0.49527  1.0000
  H   H77       1.0  0.09212  0.06104  0.99951  1.0000
  C   C85       1.0  0.51206  0.28953  0.34701  1.0000
  H   H78       1.0  0.40586  0.33581  0.38167  1.0000
  S   S28       1.0  0.19140  0.17064  0.94738  1.0000
  S   S29       1.0  0.15650  0.11567  0.98067  1.0000
  Fe  Fe15      1.0  0.11909  0.32474  0.63999  1.0000
  H   H79       1.0  0.20593  0.30735  0.90886  1.0000
  S   S30       1.0  0.20612  0.20291  0.52601  1.0000
  C   C86       1.0  0.19763  0.04314  0.99693  1.0000
  S   S31       1.0  0.13571  0.29423  0.66140  1.0000
  C   C87       1.0  0.27749  0.32428  0.94807  1.0000
  S   S32       1.0  0.19845  0.30033  0.63400  1.0000
  Fe  Fe16      1.0  0.15545  0.28225  0.62768  1.0000
  S   S33       1.0  0.14789  0.24504  0.61661  1.0000
  Fe  Fe17      1.0  0.17654  0.31525  0.66576  1.0000
  C   C88       1.0  0.24822  0.32400  0.80474  1.0000
  S   S34       1.0  0.13560  0.31129  0.60590  1.0000
  Fe  Fe18      1.0  0.15645  0.29421  0.83263  1.0000
  S   S35       1.0  0.15801  0.27548  0.79796  1.0000
  Fe  Fe19      1.0  0.14454  0.28914  0.88546  1.0000
  H   H80       1.0  0.24336  0.30523  0.55735  1.0000
  S   S36       1.0  0.13363  0.26788  0.91832  1.0000
  H   H81       1.0  0.14665  0.22467  0.51085  1.0000
  S   S37       1.0  0.11507  0.29270  0.85356  1.0000
  S   S38       1.0  0.18528  0.28650  0.86422  1.0000
  H   H82       1.0  0.06984  0.23113  0.58284  1.0000
  H   H83       1.0  0.04313  0.31879  0.86002  1.0000
  H   H84       1.0  0.15666  0.25948  0.75068  1.0000
  H   H85       1.0  0.14478  0.04324  0.52514  1.0000
  C   C89       1.0  0.01519  0.33521  0.64849  1.0000
  C   C90       1.0  0.18172  0.31088  0.72756  1.0000
  H   H86       1.0  0.09259  0.26967  0.58989  1.0000
  C   C91       1.0  0.17531  0.31308  0.77001  1.0000
  C   C92       1.0  0.16594  0.28989  0.77099  1.0000
  C   C93       1.0  0.16382  0.27745  0.75009  1.0000
  C   C94       1.0  0.17144  0.28795  0.72841  1.0000
  H   H87       1.0  0.09200  0.19999  0.93811  1.0000
  C   C95       1.0  0.23194  0.28405  0.80484  1.0000
  C   C96       1.0  0.18960  0.21449  0.55112  1.0000
  C   C97       1.0  0.16785  0.20229  0.56331  1.0000
  C   C98       1.0  0.15555  0.21176  0.58351  1.0000
  C   C99       1.0  0.16448  0.23365  0.59145  1.0000
  C   C100      1.0  0.18592  0.24604  0.57905  1.0000
  C   C101      1.0  0.19861  0.23638  0.55908  1.0000
  H   H88       1.0  0.16097  0.18532  0.55750  1.0000
  H   H89       1.0  0.13908  0.20204  0.59309  1.0000
  H   H90       1.0  0.19295  0.26291  0.58504  1.0000
  H   H91       1.0  0.21550  0.24587  0.54977  1.0000
  C   C102      1.0  0.10237  0.30896  0.72808  1.0000
  H   H92       1.0  0.09956  0.29301  0.71846  1.0000
  S   S39       1.0  0.19640  0.32321  0.70153  1.0000
  N   N9        1.0  0.22728  0.31372  0.94119  1.0000
  C   C103      1.0  0.17467  0.19741  0.93920  1.0000
  C   C104      1.0  0.15275  0.20715  0.95278  1.0000
  C   C105      1.0  0.14062  0.22886  0.94622  1.0000
  C   C106      1.0  0.14981  0.24079  0.92579  1.0000
  C   C107      1.0  0.17150  0.23098  0.91206  1.0000
  C   C108      1.0  0.18394  0.20939  0.91881  1.0000
  H   H93       1.0  0.14521  0.19808  0.96839  1.0000
  H   H94       1.0  0.12390  0.23642  0.95695  1.0000
  H   H95       1.0  0.17863  0.23996  0.89623  1.0000
  H   H96       1.0  0.20077  0.20190  0.90814  1.0000
  C   C109      1.0  0.16787  0.02442  0.96709  1.0000
  C   C110      1.0  0.17746  0.04472  0.97829  1.0000
  H   H97       1.0  0.15242  0.02588  0.95259  1.0000
  H   H98       1.0  0.16941  0.06159  0.97243  1.0000
  H   H99       1.0  0.19579  0.32947  0.96315  1.0000
  C   C111      1.0  0.04138  0.31711  0.61711  1.0000
  Fe  Fe20      1.0  0.17934  0.15036  0.98051  1.0000
  H   H100      1.0  0.23828  0.28888  0.73487  1.0000
  H   H101      1.0  0.27668  0.32269  0.52779  1.0000
  C   C112      1.0  0.18343  0.32344  0.74841  1.0000
  H   H102      1.0  0.11155  0.31220  0.79834  1.0000
  H   H103      1.0  0.26272  0.30189  0.92063  1.0000
  N   N10       1.0  0.30638  0.33611  0.55337  1.0000
  C   C113      1.0  0.26950  0.31619  0.58676  1.0000
  C   C114      1.0  0.20551  0.30097  0.92739  1.0000
  C   C115      1.0  0.03490  0.17163  0.96198  1.0000
  H   H104      1.0  0.07837  0.32915  0.79534  1.0000
  S   S40       1.0  0.14865  0.32782  0.89071  1.0000
  C   C116      1.0  0.09413  0.22555  0.55110  1.0000
  H   H105      1.0  0.17042  0.27800  0.71250  1.0000
  C   C117      1.0  0.25274  0.30179  0.74353  1.0000
  H   H106      1.0  0.23926  0.18291  0.98086  1.0000
  H   H107      1.0  0.23166  0.26772  0.77135  1.0000
  H   H108      1.0  0.22292  0.26895  0.81404  1.0000
  C   C118      1.0  0.23776  0.30443  0.81690  1.0000
  N   N11       1.0  0.06276  0.17569  0.95435  1.0000
  H   H109      1.0  0.17723  0.32281  0.78596  1.0000
  H   H110      1.0  0.14411  0.26216  0.52812  1.0000
  C   C119      1.0  0.11909  0.26875  0.55887  1.0000
  C   C120      1.0  0.09825  0.25998  0.57443  1.0000
  C   C121      1.0  0.06994  0.19671  0.94415  1.0000
  Fe  Fe21      1.0  0.18331  0.17488  0.50509  1.0000
  H   H111      1.0  0.23403  0.30514  0.83563  1.0000
  H   H112      1.0  0.06678  0.13373  0.52531  1.0000
  C   C122      1.0  0.12733  0.25549  0.53977  1.0000
  C   C123      1.0  0.03051  0.11768  0.50725  1.0000
  H   H113      1.0  0.07626  0.14013  0.95779  1.0000
  C   C124      1.0  0.16254  0.01734  0.50247  1.0000
  H   H114      1.0  0.09613  0.29247  0.76195  1.0000
  C   C125      1.0  0.25285  0.32287  0.78052  1.0000
  N   N12       1.0  0.11513  0.23407  0.53629  1.0000
  C   C126      1.0  0.23685  0.28350  0.78065  1.0000
  S   S41       1.0  0.14596  0.15134  0.51413  1.0000
  H   H115      1.0  0.02919  0.15506  0.97022  1.0000
  C   C127      1.0  0.04181  0.32942  0.63801  1.0000
  H   H116      1.0  0.12951  0.28538  0.56199  1.0000
  H   H117      1.0  0.01829  0.18635  0.49981  1.0000
  N   N13       1.0  0.24696  0.30283  0.76878  1.0000
  S   S42       1.0  0.15958  0.08813  0.50588  1.0000
  C   C128      1.0  0.08561  0.23826  0.57055  1.0000
  H   H118      1.0  0.09509  0.16013  0.97652  1.0000
  C   C129      1.0  0.25617  0.31207  0.93549  1.0000
  C   C130      1.0  0.10042  0.30880  0.75263  1.0000
  C   C131      1.0  0.06006  0.12083  0.51270  1.0000
  C   C132      1.0  0.08107  0.10782  0.50114  1.0000
  C   C133      1.0  0.03131  0.33466  0.85579  1.0000
  C   C134      1.0  0.15694  0.04035  0.50929  1.0000
  H   H119      1.0  0.10875  0.22382  0.50102  1.0000
  H   H120      1.0  0.30027  0.32363  0.94300  1.0000
  C   C135      1.0  0.08546  0.15803  0.95867  1.0000
  H   H121      1.0  0.07552  0.01092  0.99325  1.0000
  H   H122      1.0  0.05482  0.23098  0.93326  1.0000
  C   C136      1.0  0.09724  0.01671  0.98684  1.0000
  H   H123      1.0  0.12349  0.20152  0.52057  1.0000
  H   H124      1.0  0.19377  0.20395  0.98909  1.0000
  C   C137      1.0  0.10863  0.32975  0.71601  1.0000
  Fe  Fe22      1.0  0.17784  0.33031  0.61369  1.0000
  H   H125      1.0  0.18287  0.30328  0.93392  1.0000
  H   H126      1.0  0.06174  0.31271  0.60884  1.0000
  Fe  Fe23      1.0  0.12186  0.33096  0.85715  1.0000
  H   H127      1.0  0.08437  0.20862  0.54815  1.0000
  C   C138      1.0  0.04896  0.21431  0.94134  1.0000
  C   C139      1.0  0.12389  0.22046  0.51614  1.0000
  H   H128      1.0  0.10325  0.15949  0.94556  1.0000
  H   H129      1.0  0.21026  0.28200  0.92797  1.0000
  C   C140      1.0  0.23888  0.19482  0.99540  1.0000
  C   C141      1.0  0.02055  0.21036  0.94925  1.0000
  H   H130      1.0  0.29879  0.33096  0.61233  1.0000
  Fe  Fe24      1.0  0.18839  0.32546  0.86793  1.0000
  C   C142      1.0  0.29437  0.32841  0.59381  1.0000
  H   H131      1.0  0.27589  0.29700  0.74065  1.0000
  H   H132      1.0  0.10399  0.11032  0.50550  1.0000
  C   C143      1.0  0.21876  0.32763  0.95906  1.0000
  H   H133      1.0  0.25441  0.30924  0.59975  1.0000
  S   S43       1.0  0.16225  0.33270  0.83469  1.0000
  H   H134      1.0  0.09430  0.02867  0.97136  1.0000
  H   H135      1.0  0.11038  0.33010  0.69697  1.0000
  C   C144      1.0  0.28210  0.32403  0.54629  1.0000
  C   C145      1.0  0.26329  0.31394  0.56288  1.0000
  H   H136      1.0  0.29531  0.18468  0.98662  1.0000
  H   H137      1.0  0.24808  0.31883  0.73453  1.0000
  C   C146      1.0  0.10179  0.32834  0.79046  1.0000
  N   N14       1.0  0.10471  0.32882  0.76480  1.0000
  H   H138      1.0  0.27337  0.62466  0.07146  1.0000
  S   S44       1.0  0.37371  0.35475  0.48613  1.0000
  S   S45       1.0  0.33655  0.64614  0.48999  1.0000
  C   C147      1.0  0.27123  0.66980  0.43530  1.0000
  S   S46       1.0  0.37000  0.60905  0.45542  1.0000
  N   N15       1.0  0.42021  0.53822  0.49470  1.0000
  Fe  Fe25      1.0  0.41240  0.62575  0.46650  1.0000
  S   S47       1.0  0.45511  0.60913  0.45578  1.0000
  Fe  Fe26      1.0  0.35122  0.64541  0.45238  1.0000
  C   C148      1.0  0.41955  0.56374  0.49329  1.0000
  H   H139      1.0  0.40306  0.37019  0.40730  1.0000
  Fe  Fe27      1.0  0.35600  0.64652  0.04368  1.0000
  C   C149      1.0  0.35992  0.41712  0.07206  1.0000
  H   H140      1.0  0.46315  0.41320  0.06580  1.0000
  Fe  Fe28      1.0  0.42016  0.63221  0.03419  1.0000
  C   C150      1.0  0.40492  0.42750  0.05274  1.0000
  H   H141      1.0  0.38995  0.55926  0.02351  1.0000
  H   H142      1.0  0.32696  0.34359  0.07119  1.0000
  H   H143      1.0  0.29121  0.66666  0.11397  1.0000
  S   S48       1.0  0.37964  0.61195  0.04388  1.0000
  S   S49       1.0  0.33985  0.47551  0.47699  1.0000
  C   C151      1.0  0.26879  0.62078  0.01218  1.0000
  S   S50       1.0  0.41306  0.36176  0.02304  1.0000
  C   C152      1.0  0.37890  0.50395  0.00378  1.0000
  H   H144      1.0  0.45343  0.38365  0.05827  1.0000
  C   C153      1.0  0.31214  0.59026  0.07166  1.0000
  C   C154      1.0  0.37589  0.43266  0.05805  1.0000
  H   H145      1.0  0.33720  0.42069  0.07586  1.0000
  H   H146      1.0  0.32082  0.60419  0.08312  1.0000
  C   C155      1.0  0.38190  0.54551  0.01248  1.0000
  C   C156      1.0  0.41501  0.50122  0.47620  1.0000
  C   C157      1.0  0.41407  0.52559  0.47516  1.0000
  H   H147      1.0  0.36097  0.38442  0.09152  1.0000
  C   C158      1.0  0.36194  0.34350  0.45903  1.0000
  H   H148      1.0  0.27683  0.65968  0.45098  1.0000
  C   C159      1.0  0.36365  0.35072  0.04860  1.0000
  C   C160      1.0  0.44809  0.40238  0.05520  1.0000
  H   H149      1.0  0.47218  0.34179  0.46922  1.0000
  C   C161      1.0  0.48857  0.62347  0.46186  1.0000
  H   H150      1.0  0.45182  0.40592  0.03618  1.0000
  H   H151      1.0  0.43552  0.34001  0.48080  1.0000
  Fe  Fe29      1.0  0.39340  0.38900  0.99811  1.0000
  C   C162      1.0  0.49673  0.63274  0.03496  1.0000
  H   H152      1.0  0.41707  0.43958  0.04161  1.0000
  C   C163      1.0  0.34201  0.54625  0.47981  1.0000
  C   C164      1.0  0.34062  0.52324  0.47177  1.0000
  H   H153      1.0  0.33861  0.56077  0.46762  1.0000
  H   H154      1.0  0.33626  0.52023  0.45335  1.0000
  H   H155      1.0  0.41228  0.37618  0.08172  1.0000
  C   C165      1.0  0.49494  0.63955  0.01127  1.0000
  N   N16       1.0  0.41764  0.40736  0.06106  1.0000
  H   H156      1.0  0.33117  0.57953  0.06661  1.0000
  H   H157      1.0  0.36572  0.44844  0.05097  1.0000
  C   C166      1.0  0.34841  0.35726  0.44146  1.0000
  C   C167      1.0  0.48910  0.64537  0.47208  1.0000
  H   H158      1.0  0.34370  0.37537  0.44460  1.0000
  C   C168      1.0  0.39280  0.34547  0.04387  1.0000
  N   N17       1.0  0.29715  0.60063  0.05105  1.0000
  S   S51       1.0  0.46491  0.62596  0.05105  1.0000
  C   C169      1.0  0.38910  0.52211  0.01789  1.0000
  H   H159      1.0  0.40908  0.49119  0.46093  1.0000
  C   C170      1.0  0.26321  0.62869  0.03468  1.0000
  H   H160      1.0  0.42400  0.36796  0.44760  1.0000
  C   C171      1.0  0.42623  0.35318  0.43620  1.0000
  H   H161      1.0  0.33130  0.35832  0.40585  1.0000
  S   S52       1.0  0.32634  0.65401  0.07479  1.0000
  C   C172      1.0  0.40236  0.39229  0.07529  1.0000
  C   C173      1.0  0.37326  0.39687  0.08091  1.0000
  H   H162      1.0  0.40535  0.57018  0.47855  1.0000
  H   H163      1.0  0.29671  0.57918  0.08186  1.0000
  C   C174      1.0  0.27743  0.61816  0.05405  1.0000
  H   H164      1.0  0.40776  0.53431  0.45875  1.0000
  S   S53       1.0  0.39755  0.66650  0.03770  1.0000
  C   C175      1.0  0.34143  0.34758  0.41953  1.0000
  H   H165      1.0  0.46879  0.65377  0.47646  1.0000
  S   S54       1.0  0.39423  0.42375  0.48795  1.0000
  C   C176      1.0  0.28829  0.60243  0.00935  1.0000
  S   S55       1.0  0.32777  0.66115  0.42003  1.0000
  H   H166      1.0  0.35244  0.36413  0.03833  1.0000
  S   S56       1.0  0.35352  0.41112  0.00220  1.0000
  H   H167      1.0  0.47395  0.64024  0.00240  1.0000
  H   H168      1.0  0.44193  0.57078  0.49051  1.0000
  Fe  Fe30      1.0  0.37033  0.61212  0.00510  1.0000
  C   C177      1.0  0.34432  0.50416  0.48744  1.0000
  H   H169      1.0  0.28040  0.49933  0.48184  1.0000
  C   C178      1.0  0.30232  0.59245  0.02910  1.0000
  H   H170      1.0  0.31772  0.57839  0.02666  1.0000
  H   H171      1.0  0.24839  0.64315  0.03717  1.0000
  S   S57       1.0  0.39504  0.66174  0.45976  1.0000
  Fe  Fe31      1.0  0.35876  0.61081  0.49355  1.0000
  S   S58       1.0  0.38849  0.47478  0.01170  1.0000
  H   H172      1.0  0.40266  0.51809  0.03315  1.0000
  C   C179      1.0  0.41443  0.35459  0.41341  1.0000
  S   S59       1.0  0.34404  0.64563  0.00520  1.0000
  Fe  Fe32      1.0  0.38739  0.66352  0.99912  1.0000
  C   C180      1.0  0.34932  0.33913  0.06725  1.0000
  C   C181      1.0  0.42280  0.48985  0.49728  1.0000
  H   H173      1.0  0.24901  0.51017  0.49730  1.0000
  Fe  Fe33      1.0  0.38126  0.66090  0.49754  1.0000
  S   S60       1.0  0.08572  0.35664  0.84731  1.0000
  C   C182      1.0  0.42808  0.52721  0.51540  1.0000
  S   S61       1.0  0.07501  0.33864  0.65110  1.0000
  S   S62       1.0  0.38490  0.39252  0.53638  1.0000
  H   H174      1.0  0.44897  0.48254  0.99299  1.0000
  S   S63       1.0  0.36813  0.44728  0.53600  1.0000
  H   H175      1.0  0.39487  0.48508  0.92293  1.0000
  Fe  Fe34      1.0  0.40699  0.42597  0.52593  1.0000
  S   S64       1.0  0.45192  0.43983  0.53549  1.0000
  Fe  Fe35      1.0  0.34433  0.41340  0.54235  1.0000
  S   S65       1.0  0.31717  0.40682  0.57511  1.0000
  C   C183      1.0  0.49973  0.41673  0.94893  1.0000
  S   S66       1.0  0.20001  0.34665  0.58146  1.0000
  H   H176      1.0  0.42184  0.48678  0.90031  1.0000
  C   C184      1.0  0.11283  0.35008  0.72854  1.0000
  H   H177      1.0  0.33126  0.34874  0.58235  1.0000
  H   H178      1.0  0.46010  0.39468  0.51437  1.0000
  C   C185      1.0  0.43230  0.48071  0.95747  1.0000
  C   C186      1.0  0.34978  0.50835  0.51120  1.0000
  Fe  Fe36      1.0  0.34593  0.40528  0.96330  1.0000
  C   C187      1.0  0.42947  0.50286  0.51701  1.0000
  S   S67       1.0  0.29804  0.39772  0.95318  1.0000
  Fe  Fe37      1.0  0.41095  0.41381  0.95280  1.0000
  S   S68       1.0  0.44543  0.41786  0.92467  1.0000
  H   H179      1.0  0.01540  0.34476  0.66464  1.0000
  C   C188      1.0  0.28812  0.45663  0.53831  1.0000
  S   S69       1.0  0.38456  0.38128  0.96013  1.0000
  S   S70       1.0  0.37152  0.43754  0.95248  1.0000
  C   C189      1.0  0.48423  0.41898  0.92746  1.0000
  H   H180      1.0  0.28740  0.52370  0.54044  1.0000
  H   H181      1.0  0.43312  0.53726  0.53082  1.0000
  S   S71       1.0  0.40200  0.62599  0.50475  1.0000
  H   H182      1.0  0.27692  0.46159  0.50178  1.0000
  H   H183      1.0  0.23082  0.36654  0.54244  1.0000
  C   C190      1.0  0.48127  0.40290  0.51629  1.0000
  S   S72       1.0  0.41236  0.63015  0.99539  1.0000
  C   C191      1.0  0.28325  0.35716  0.89582  1.0000
  C   C192      1.0  0.35041  0.53130  0.51933  1.0000
  C   C193      1.0  0.03122  0.37535  0.84411  1.0000
  H   H184      1.0  0.04286  0.39114  0.83929  1.0000
  C   C194      1.0  0.25252  0.35539  0.89494  1.0000
  H   H185      1.0  0.19160  0.34113  0.74790  1.0000
  C   C195      1.0  0.29759  0.37037  0.91315  1.0000
  C   C196      1.0  0.28132  0.38220  0.92976  1.0000
  C   C197      1.0  0.25056  0.38075  0.92861  1.0000
  C   C198      1.0  0.23623  0.36733  0.91144  1.0000
  H   H186      1.0  0.30033  0.45709  0.57495  1.0000
  H   H187      1.0  0.48794  0.41313  0.96495  1.0000
  H   H188      1.0  0.23772  0.38990  0.94128  1.0000
  H   H189      1.0  0.21261  0.36633  0.91094  1.0000
  C   C199      1.0  0.41537  0.47713  0.91657  1.0000
  C   C200      1.0  0.48332  0.42503  0.52591  1.0000
  S   S73       1.0  0.32730  0.41107  0.50535  1.0000
  S   S74       1.0  0.23583  0.33757  0.87329  1.0000
  H   H190      1.0  0.25254  0.33993  0.81413  1.0000
  C   C201      1.0  0.29488  0.46752  0.55933  1.0000
  H   H191      1.0  0.51271  0.45259  0.53585  1.0000
  H   H192      1.0  0.41042  0.57102  0.50958  1.0000
  H   H193      1.0  0.35251  0.49395  0.52352  1.0000
  H   H194      1.0  0.35380  0.53432  0.53786  1.0000
  C   C202      1.0  0.36140  0.50945  0.98409  1.0000
  C   C203      1.0  0.34641  0.55036  0.50372  1.0000
  H   H195      1.0  0.48829  0.42539  0.89025  1.0000
  C   C204      1.0  0.28750  0.50483  0.53974  1.0000
  C   C205      1.0  0.23134  0.36493  0.58030  1.0000
  C   C206      1.0  0.24233  0.37174  0.55820  1.0000
  C   C207      1.0  0.26831  0.38483  0.55628  1.0000
  C   C208      1.0  0.28351  0.39143  0.57654  1.0000
  C   C209      1.0  0.27213  0.38517  0.59866  1.0000
  C   C210      1.0  0.24625  0.37189  0.60057  1.0000
  C   C211      1.0  0.46714  0.47442  0.92771  1.0000
  H   H196      1.0  0.27658  0.38969  0.53915  1.0000
  H   H197      1.0  0.28361  0.39033  0.61445  1.0000
  C   C212      1.0  0.49985  0.42367  0.90691  1.0000
  H   H198      1.0  0.50073  0.47619  0.98121  1.0000
  H   H199      1.0  0.32123  0.37130  0.91374  1.0000
  S   S75       1.0  0.15924  0.34667  0.64580  1.0000
  H   H200      1.0  0.43555  0.49401  0.53343  1.0000
  H   H201      1.0  0.40984  0.48298  0.96284  1.0000
  H   H202      1.0  0.34020  0.53692  0.96366  1.0000
  C   C213      1.0  0.28156  0.47019  0.51819  1.0000
  S   S76       1.0  0.35364  0.58018  0.98588  1.0000
  H   H203      1.0  0.29309  0.59623  0.99193  1.0000
  H   H204      1.0  0.32599  0.36647  0.53873  1.0000
  H   H205      1.0  0.31815  0.34451  0.51763  1.0000
  H   H206      1.0  0.26092  0.33818  0.77114  1.0000
  C   C214      1.0  0.35402  0.53286  0.97878  1.0000
  C   C215      1.0  0.04692  0.35499  0.84951  1.0000
  C   C216      1.0  0.50673  0.39118  0.50957  1.0000
  H   H207      1.0  0.29612  0.34810  0.88311  1.0000
  N   N18       1.0  0.43884  0.47784  0.93433  1.0000
  H   H208      1.0  0.23798  0.36687  0.61768  1.0000
  C   C217      1.0  0.51097  0.43547  0.52842  1.0000
  C   C218      1.0  0.45444  0.48043  0.97466  1.0000
  S   S77       1.0  0.42224  0.41983  0.99026  1.0000
  C   C219      1.0  0.11060  0.34934  0.75308  1.0000
  N   N19       1.0  0.28139  0.49398  0.51908  1.0000
  C   C220      1.0  0.29463  0.49178  0.56009  1.0000
  H   H209      1.0  0.29994  0.50043  0.57634  1.0000
  Fe  Fe38      1.0  0.38154  0.44163  0.99088  1.0000
  H   H210      1.0  0.28809  0.43776  0.53769  1.0000
  H   H211      1.0  0.35314  0.49569  0.97317  1.0000
  H   H212      1.0  0.41073  0.45872  0.91212  1.0000
  H   H213      1.0  0.11791  0.36625  0.71922  1.0000
  H   H214      1.0  0.11380  0.36525  0.76268  1.0000
  S   S78       1.0  0.34516  0.57875  0.51509  1.0000
  H   H215      1.0  0.23274  0.35174  0.98561  1.0000
  C   C221      1.0  0.48338  0.47699  0.96805  1.0000
  C   C222      1.0  0.32553  0.34739  0.53603  1.0000
  H   H216      1.0  0.11320  0.34327  0.79865  1.0000
  H   H217      1.0  0.50503  0.37392  0.50248  1.0000
  C   C223      1.0  0.36420  0.55102  0.99292  1.0000
  H   H218      1.0  0.28527  0.34879  0.97555  1.0000
  Fe  Fe39      1.0  0.36904  0.39164  0.49879  1.0000
  H   H219      1.0  0.47217  0.47101  0.90954  1.0000
  C   C224      1.0  0.48984  0.47407  0.94442  1.0000
  Fe  Fe40      1.0  0.35423  0.44364  0.49852  1.0000
  C   C225      1.0  0.26906  0.33841  0.96638  1.0000
  C   C226      1.0  0.27310  0.50788  0.49811  1.0000
  H   H220      1.0  0.28373  0.52533  0.49819  1.0000
  H   H221      1.0  0.51214  0.47060  0.93913  1.0000
  H   H222      1.0  0.25825  0.62898  0.99695  1.0000
  H   H223      1.0  0.42354  0.47097  0.49841  1.0000
  H   H224      1.0  0.34819  0.34055  0.53787  1.0000
  C   C227      1.0  0.23952  0.34016  0.97192  1.0000
  C   C228      1.0  0.31263  0.33840  0.57677  1.0000
  C   C229      1.0  0.24321  0.67987  0.43272  1.0000
  S   S79       1.0  0.20242  0.88376  0.03721  1.0000
  C   C230      1.0  0.21164  0.78133  0.06006  1.0000
  S   S80       1.0  0.12428  0.93996  0.47862  1.0000
  Fe  Fe41      1.0  0.14394  0.90479  0.47294  1.0000
  S   S81       1.0  0.12702  0.88344  0.44273  1.0000
  Fe  Fe42      1.0  0.18125  0.78331  0.37069  1.0000
  S   S82       1.0  0.16024  0.76296  0.39975  1.0000
  S   S83       1.0  0.20448  0.81583  0.38289  1.0000
  Fe  Fe43      1.0  0.16177  0.74856  0.33362  1.0000
  S   S84       1.0  0.14004  0.72551  0.36108  1.0000
  S   S85       1.0  0.15190  0.73562  0.29659  1.0000
  Fe  Fe44      1.0  0.12235  0.75882  0.37487  1.0000
  S   S86       1.0  0.07661  0.76878  0.38591  1.0000
  Fe  Fe45      1.0  0.18040  0.73164  0.38346  1.0000
  S   S87       1.0  0.20013  0.70594  0.41061  1.0000
  S   S88       1.0  0.14199  0.78162  0.34666  1.0000
  S   S89       1.0  0.20358  0.75220  0.35514  1.0000
  C   C231      1.0  0.21218  0.81571  0.02504  1.0000
  Fe  Fe46      1.0  0.18420  0.73237  0.11214  1.0000
  S   S90       1.0  0.19206  0.76871  0.12495  1.0000
  S   S91       1.0  0.21326  0.71908  0.08258  1.0000
  Fe  Fe47      1.0  0.12227  0.73117  0.13432  1.0000
  S   S92       1.0  0.12637  0.76725  0.14816  1.0000
  S   S93       1.0  0.07986  0.71110  0.13965  1.0000
  Fe  Fe48      1.0  0.14610  0.77642  0.11314  1.0000
  S   S94       1.0  0.12865  0.80502  0.08874  1.0000
  Fe  Fe49      1.0  0.17173  0.75604  0.15908  1.0000
  S   S95       1.0  0.19241  0.76672  0.19399  1.0000
  S   S96       1.0  0.13885  0.74098  0.09868  1.0000
  S   S97       1.0  0.16693  0.71899  0.14713  1.0000
  H   H225      1.0  0.21228  0.85849  0.08096  1.0000
  C   C232      1.0  0.25843  0.69849  0.05916  1.0000
  C   C233      1.0  0.04704  0.72425  0.12919  1.0000
  H   H226      1.0  0.25183  0.73676  0.25690  1.0000
  C   C234      1.0  0.04690  0.74704  0.11999  1.0000
  N   N20       1.0  0.19051  0.78155  0.04283  1.0000
  H   H227      1.0  0.06726  0.75651  0.11826  1.0000
  C   C235      1.0  0.24510  0.70129  0.08111  1.0000
  C   C236      1.0  0.21161  0.70877  0.21585  1.0000
  H   H228      1.0  0.21173  0.95625  0.43715  1.0000
  H   H229      1.0  0.20584  0.98378  0.99934  1.0000
  C   C237      1.0  0.03136  0.73594  0.30575  1.0000
  C   C238      1.0  0.04517  0.75261  0.37828  1.0000
  C   C239      1.0  0.04716  0.73063  0.36839  1.0000
  C   C240      1.0  0.47625  0.68909  0.04449  1.0000
  H   H230      1.0  0.06834  0.72265  0.36623  1.0000
  C   C241      1.0  0.08654  0.85818  0.07307  1.0000
  C   C242      1.0  0.16042  0.74744  0.26836  1.0000
  C   C243      1.0  0.18228  0.76422  0.26504  1.0000
  C   C244      1.0  0.19099  0.77068  0.24209  1.0000
  C   C245      1.0  0.17771  0.76072  0.22226  1.0000
  C   C246      1.0  0.15492  0.74476  0.22560  1.0000
  C   C247      1.0  0.14650  0.73806  0.24853  1.0000
  H   H231      1.0  0.19313  0.77165  0.28010  1.0000
  H   H232      1.0  0.20857  0.78310  0.23967  1.0000
  H   H233      1.0  0.14454  0.73694  0.21052  1.0000
  H   H234      1.0  0.12959  0.72506  0.25088  1.0000
  C   C248      1.0  0.23556  0.69327  0.41254  1.0000
  H   H235      1.0  0.04041  0.71965  0.29994  1.0000
  N   N21       1.0  0.08239  0.86867  0.05144  1.0000
  C   C249      1.0  0.10774  0.86656  0.08869  1.0000
  C   C250      1.0  0.22215  0.71369  0.28984  1.0000
  C   C251      1.0  0.14923  0.86385  0.42767  1.0000
  C   C252      1.0  0.13574  0.84770  0.41292  1.0000
  C   C253      1.0  0.15258  0.83267  0.39948  1.0000
  C   C254      1.0  0.18308  0.83415  0.40016  1.0000
  C   C255      1.0  0.19665  0.85038  0.41484  1.0000
  C   C256      1.0  0.17977  0.86496  0.42888  1.0000
  H   H236      1.0  0.11212  0.84679  0.41185  1.0000
  H   H237      1.0  0.14190  0.82020  0.38825  1.0000
  H   H238      1.0  0.22026  0.85154  0.41547  1.0000
  H   H239      1.0  0.19033  0.87740  0.44018  1.0000
  H   H240      1.0  0.05169  0.78587  0.33086  1.0000
  C   C257      1.0  0.18317  0.86064  0.05091  1.0000
  C   C258      1.0  0.15813  0.85136  0.04035  1.0000
  C   C259      1.0  0.14265  0.83331  0.05160  1.0000
  C   C260      1.0  0.15188  0.82447  0.07361  1.0000
  C   C261      1.0  0.17735  0.83324  0.08400  1.0000
  C   C262      1.0  0.19291  0.85139  0.07268  1.0000
  H   H241      1.0  0.15013  0.85847  0.02381  1.0000
  H   H242      1.0  0.12290  0.82664  0.04352  1.0000
  H   H243      1.0  0.18443  0.82669  0.10112  1.0000
  H   H244      1.0  0.09226  0.75991  0.30340  1.0000
  H   H245      1.0  0.20442  0.70455  0.29961  1.0000
  C   C263      1.0  0.23273  0.72350  0.22529  1.0000
  H   H246      1.0  0.24347  0.70620  0.29565  1.0000
  C   C264      1.0  0.16927  0.83806  0.48933  1.0000
  H   H247      1.0  0.36733  0.70323  0.42941  1.0000
  H   H248      1.0  0.21313  0.78298  0.45837  1.0000
  H   H249      1.0  0.24929  0.70729  0.04376  1.0000
  S   S98       1.0  0.14512  0.92131  0.00087  1.0000
  H   H250      1.0  0.45998  0.68401  0.05738  1.0000
  H   H251      1.0  0.25027  0.82924  0.04268  1.0000
  H   H252      1.0  0.15885  0.76013  0.02581  1.0000
  C   C265      1.0  0.14712  0.90134  0.38279  1.0000
  C   C266      1.0  0.28217  0.67557  0.09858  1.0000
  H   H253      1.0  0.08900  0.75352  0.33454  1.0000
  H   H254      1.0  0.11182  0.85750  0.10537  1.0000
  N   N22       1.0  0.04915  0.75262  0.31508  1.0000
  H   H255      1.0  0.24554  0.73469  0.21371  1.0000
  H   H256      1.0  0.14247  0.89149  0.09339  1.0000
  C   C267      1.0  0.12502  0.88553  0.08191  1.0000
  C   C268      1.0  0.29181  0.67272  0.41749  1.0000
  C   C269      1.0  0.19038  0.79858  0.02560  1.0000
  H   H257      1.0  0.21360  0.82896  0.48198  1.0000
  H   H258      1.0  0.22734  0.67730  0.44649  1.0000
  C   C270      1.0  0.09911  0.88738  0.04471  1.0000
  C   C271      1.0  0.25620  0.69628  0.39479  1.0000
  H   H259      1.0  0.20811  0.70846  0.19695  1.0000
  N   N23       1.0  0.18334  0.81114  0.45982  1.0000
  H   H260      1.0  0.09635  0.89522  0.02728  1.0000
  N   N24       1.0  0.21847  0.71176  0.26432  1.0000
  C   C272      1.0  0.28356  0.68447  0.05694  1.0000
  C   C273      1.0  0.46799  0.69356  0.02108  1.0000
  H   H261      1.0  0.29355  0.72732  0.42550  1.0000
  H   H262      1.0  0.24719  0.69163  0.11782  1.0000
  H   H263      1.0  0.36151  0.73440  0.42650  1.0000
  H   H264      1.0  0.08695  0.73048  0.31414  1.0000
  H   H265      1.0  0.20524  0.90071  0.38809  1.0000
  C   C274      1.0  0.35056  0.71716  0.42729  1.0000
  H   H266      1.0  0.29973  0.68809  0.38323  1.0000
  C   C275      1.0  0.13991  0.83462  0.48341  1.0000
  H   H267      1.0  0.22105  0.73226  0.29485  1.0000
  C   C276      1.0  0.21202  0.92815  0.41258  1.0000
  C   C277      1.0  0.06144  0.85897  0.03459  1.0000
  N   N25       1.0  0.32989  0.71614  0.44676  1.0000
  C   C278      1.0  0.29559  0.67290  0.07667  1.0000
  C   C279      1.0  0.16829  0.94707  0.42559  1.0000
  N   N26       1.0  0.16489  0.91583  0.39834  1.0000
  C   C280      1.0  0.15162  0.93221  0.41163  1.0000
  C   C281      1.0  0.03760  0.77294  0.32291  1.0000
  C   C282      1.0  0.23368  0.79825  0.06011  1.0000
  C   C283      1.0  0.19866  0.94497  0.42608  1.0000
  C   C284      1.0  0.20630  0.79850  0.44771  1.0000
  C   C285      1.0  0.33957  0.70982  0.46882  1.0000
  H   H268      1.0  0.12797  0.93362  0.41177  1.0000
  H   H269      1.0  0.25012  0.79814  0.07402  1.0000
  H   H270      1.0  0.12588  0.89681  0.39108  1.0000
  H   H271      1.0  0.21137  0.76815  0.07400  1.0000
  C   C286      1.0  0.29077  0.71402  0.48376  1.0000
  H   H272      1.0  0.04888  0.87316  0.02546  1.0000
  H   H273      1.0  0.17711  0.68433  0.22366  1.0000
  H   H274      1.0  0.15819  0.88454  0.37932  1.0000
  H   H275      1.0  0.15777  0.96004  0.43619  1.0000
  H   H276      1.0  0.17420  0.74779  0.05231  1.0000
  H   H277      1.0  0.04554  0.84705  0.04325  1.0000
  C   C287      1.0  0.19412  0.69536  0.23086  1.0000
  S   S99       1.0  0.18980  0.91621  0.48088  1.0000
  H   H278      1.0  0.36237  0.70545  0.47195  1.0000
  C   C288      1.0  0.08083  0.74895  0.31677  1.0000
  C   C289      1.0  0.30129  0.72230  0.44298  1.0000
  C   C290      1.0  0.02036  0.75769  0.11312  1.0000
  H   H279      1.0  0.23562  0.92626  0.41306  1.0000
  Fe  Fe50      1.0  0.16938  0.95084  0.48993  1.0000
  H   H280      1.0  0.02327  0.70208  0.35325  1.0000
  C   C291      1.0  0.23594  0.72475  0.24971  1.0000
  C   C292      1.0  0.19472  0.91377  0.39855  1.0000
  H   H281      1.0  0.07443  0.84260  0.07804  1.0000
  S   S100      1.0  0.18750  0.98453  0.47352  1.0000
  H   H282      1.0  0.44510  0.69236  0.01607  1.0000
  H   H283      1.0  0.03952  0.73188  0.18223  1.0000
  H   H284      1.0  0.01942  0.76990  0.16818  1.0000
  C   C293      1.0  0.32017  0.70854  0.48761  1.0000
  H   H285      1.0  0.10969  0.81656  0.46087  1.0000
  C   C294      1.0  0.19784  0.69709  0.25521  1.0000
  H   H286      1.0  0.51253  0.68586  0.06884  1.0000
  H   H287      1.0  0.13471  0.91032  0.05409  1.0000
  H   H288      1.0  0.12296  0.84416  0.49223  1.0000
  H   H289      1.0  0.25058  0.70640  0.37912  1.0000
  H   H290      1.0  0.14851  0.79543  0.44045  1.0000
  C   C295      1.0  0.13244  0.81908  0.46585  1.0000
  C   C296      1.0  0.16677  0.76439  0.04371  1.0000
  C   C297      1.0  0.12066  0.89610  0.05982  1.0000
  H   H291      1.0  0.21156  0.82961  0.01177  1.0000
  C   C298      1.0  0.15455  0.80727  0.45428  1.0000
  C   C299      1.0  0.28404  0.68586  0.39717  1.0000
  C   C300      1.0  0.02039  0.71212  0.13115  1.0000
  C   C301      1.0  0.23389  0.81554  0.04248  1.0000
  H   H292      1.0  0.14291  0.91074  0.36584  1.0000
  H   H293      1.0  0.33929  0.71386  0.41026  1.0000
  C   C302      1.0  0.28124  0.72111  0.46134  1.0000
  H   H294      1.0  0.25831  0.72496  0.45795  1.0000
  C   C303      1.0  0.25718  0.68974  0.10085  1.0000
  H   H295      1.0  0.07340  0.84923  0.02105  1.0000
  H   H296      1.0  0.13753  0.99781  0.01584  1.0000
  H   H297      1.0  0.14827  0.77137  0.05389  1.0000
  H   H298      1.0  0.22549  0.80995  0.44435  1.0000
  H   H299      1.0  0.19863  0.79265  0.43019  1.0000
  C   C304      1.0  0.19084  0.82606  0.47731  1.0000
  C   C305      1.0  0.01896  0.95607  0.48398  1.0000
  H   H300      1.0  0.02036  0.69442  0.13806  1.0000
  H   H301      1.0  0.18347  0.68722  0.26676  1.0000
  H   H302      1.0  0.17296  0.79936  0.01250  1.0000
  H   H303      1.0  0.02054  0.77533  0.10606  1.0000
  C   C306      1.0  0.50575  0.69011  0.05091  1.0000
  H   H304      1.0  0.29353  0.68257  0.03996  1.0000
  C   C307      1.0  0.01750  0.76256  0.38143  1.0000
  H   H305      1.0  0.03589  0.94689  0.47476  1.0000
  N   N27       1.0  0.48855  0.69860  0.00448  1.0000
  C   C308      1.0  0.02162  0.71897  0.36114  1.0000
  Fe  Fe51      1.0  0.18371  0.89713  0.00247  1.0000
  H   H306      1.0  0.01587  0.77955  0.38907  1.0000
  C   C309      1.0  0.01601  0.73467  0.18168  1.0000
  Fe  Fe52      1.0  0.41268  0.79664  0.85315  1.0000
  S   S101      1.0  0.38611  0.76831  0.83662  1.0000
  S   S102      1.0  0.46072  0.78633  0.85064  1.0000
  Fe  Fe53      1.0  0.35671  0.82194  0.86794  1.0000
  S   S103      1.0  0.32720  0.79527  0.85188  1.0000
  S   S104      1.0  0.33970  0.85055  0.89165  1.0000
  Fe  Fe54      1.0  0.35816  0.76915  0.86840  1.0000
  S   S105      1.0  0.34037  0.73629  0.88580  1.0000
  Fe  Fe55      1.0  0.35795  0.79674  0.82110  1.0000
  S   S106      1.0  0.34160  0.78949  0.78384  1.0000
  S   S107      1.0  0.38620  0.79549  0.88624  1.0000
  S   S108      1.0  0.38592  0.82547  0.83583  1.0000
  S   S109      1.0  0.16450  0.87141  0.97778  1.0000
  Fe  Fe56      1.0  0.16823  0.93872  0.97052  1.0000
  S   S110      1.0  0.14757  0.91528  0.94361  1.0000
  S   S111      1.0  0.16317  0.97737  0.96095  1.0000
  Fe  Fe57      1.0  0.12704  0.89670  0.97437  1.0000
  H   H307      1.0  0.44479  0.75568  0.60345  1.0000
  Fe  Fe58      1.0  0.18713  0.89225  0.94952  1.0000
  S   S112      1.0  0.20742  0.87322  0.91878  1.0000
  S   S113      1.0  0.20908  0.91682  0.97445  1.0000
  Fe  Fe59      1.0  0.41766  0.81204  0.60596  1.0000
  S   S114      1.0  0.39941  0.78767  0.63344  1.0000
  S   S115      1.0  0.46281  0.80483  0.59152  1.0000
  Fe  Fe60      1.0  0.35798  0.83702  0.59802  1.0000
  S   S116      1.0  0.33576  0.81418  0.62501  1.0000
  S   S117      1.0  0.33826  0.86819  0.57778  1.0000
  Fe  Fe61      1.0  0.37640  0.81903  0.64728  1.0000
  S   S118      1.0  0.37906  0.83301  0.68446  1.0000
  Fe  Fe62      1.0  0.36091  0.78487  0.60864  1.0000
  S   S119      1.0  0.34188  0.74942  0.60035  1.0000
  S   S120      1.0  0.39740  0.84380  0.62109  1.0000
  S   S121      1.0  0.38031  0.80753  0.58033  1.0000
  C   C310      1.0  0.34807  0.78473  0.95059  1.0000
  S   S122      1.0  0.07642  0.93682  0.53428  1.0000
  Fe  Fe63      1.0  0.18037  0.90533  0.51834  1.0000
  H   H308      1.0  0.10935  0.00129  0.98054  1.0000
  S   S123      1.0  0.20657  0.87736  0.53899  1.0000
  C   C311      1.0  0.44610  0.74178  0.59091  1.0000
  H   H309      1.0  0.51191  0.85770  0.57698  1.0000
  S   S124      1.0  0.16316  0.94078  0.52813  1.0000
  H   H310      1.0  0.34813  0.81785  0.93180  1.0000
  S   S125      1.0  0.39430  0.69471  0.51482  1.0000
  C   C312      1.0  0.46682  0.72667  0.55558  1.0000
  C   C313      1.0  0.41629  0.87799  0.57011  1.0000
  C   C314      1.0  0.35456  0.73480  0.57540  1.0000
  C   C315      1.0  0.34445  0.71222  0.57069  1.0000
  C   C316      1.0  0.35573  0.69974  0.55177  1.0000
  C   C317      1.0  0.37710  0.70990  0.53743  1.0000
  C   C318      1.0  0.38669  0.73259  0.54188  1.0000
  C   C319      1.0  0.37566  0.74489  0.56083  1.0000
  H   H311      1.0  0.32820  0.70422  0.58195  1.0000
  H   H312      1.0  0.42216  0.71207  0.62900  1.0000
  H   H313      1.0  0.40332  0.74052  0.53093  1.0000
  H   H314      1.0  0.38396  0.76203  0.56433  1.0000
  C   C320      1.0  0.30194  0.87004  0.56617  1.0000
  C   C321      1.0  0.29288  0.89059  0.55425  1.0000
  C   C322      1.0  0.26390  0.89318  0.54570  1.0000
  C   C323      1.0  0.24356  0.87522  0.54905  1.0000
  C   C324      1.0  0.25266  0.85467  0.56099  1.0000
  C   C325      1.0  0.28163  0.85206  0.56947  1.0000
  H   H315      1.0  0.30831  0.90470  0.55170  1.0000
  H   H316      1.0  0.25726  0.90911  0.53663  1.0000
  H   H317      1.0  0.23714  0.84066  0.56370  1.0000
  H   H318      1.0  0.28817  0.83618  0.57868  1.0000
  H   H319      1.0  0.47259  0.83509  0.86189  1.0000
  C   C326      1.0  0.35867  0.72422  0.91072  1.0000
  C   C327      1.0  0.38379  0.73467  0.91995  1.0000
  C   C328      1.0  0.39681  0.72564  0.94071  1.0000
  C   C329      1.0  0.38495  0.70603  0.95233  1.0000
  C   C330      1.0  0.35998  0.69542  0.94302  1.0000
  C   C331      1.0  0.34688  0.70452  0.92225  1.0000
  H   H320      1.0  0.39308  0.74979  0.91121  1.0000
  H   H321      1.0  0.41612  0.73393  0.94782  1.0000
  H   H322      1.0  0.48116  0.72853  0.54061  1.0000
  H   H323      1.0  0.32747  0.69633  0.91517  1.0000
  C   C332      1.0  0.35262  0.80181  0.75646  1.0000
  C   C333      1.0  0.34542  0.79012  0.73571  1.0000
  C   C334      1.0  0.35408  0.79900  0.71356  1.0000
  C   C335      1.0  0.36958  0.81997  0.71192  1.0000
  C   C336      1.0  0.37677  0.83166  0.73266  1.0000
  C   C337      1.0  0.36856  0.82257  0.75485  1.0000
  H   H324      1.0  0.33308  0.77405  0.73679  1.0000
  H   H325      1.0  0.34840  0.78979  0.69779  1.0000
  H   H326      1.0  0.38862  0.84796  0.73157  1.0000
  H   H327      1.0  0.37413  0.83180  0.77064  1.0000
  C   C338      1.0  0.30274  0.85598  0.89946  1.0000
  C   C339      1.0  0.29697  0.86977  0.91900  1.0000
  C   C340      1.0  0.26799  0.87465  0.92566  1.0000
  C   C341      1.0  0.24438  0.86609  0.91256  1.0000
  C   C342      1.0  0.25016  0.85230  0.89304  1.0000
  C   C343      1.0  0.27910  0.84712  0.88661  1.0000
  H   H328      1.0  0.31507  0.87668  0.92910  1.0000
  H   H329      1.0  0.26396  0.88514  0.94080  1.0000
  H   H330      1.0  0.23210  0.84570  0.88268  1.0000
  H   H331      1.0  0.28309  0.83669  0.87140  1.0000
  S   S126      1.0  0.08135  0.88168  0.97931  1.0000
  C   C344      1.0  0.04324  0.92221  0.52781  1.0000
  H   H332      1.0  0.47959  0.83874  0.55092  1.0000
  H   H333      1.0  0.38833  0.85605  0.54939  1.0000
  C   C345      1.0  0.27345  0.85076  0.64826  1.0000
  H   H334      1.0  0.27904  0.74747  0.90061  1.0000
  C   C346      1.0  0.49667  0.81430  0.60339  1.0000
  C   C347      1.0  0.49843  0.83099  0.62088  1.0000
  H   H335      1.0  0.34296  0.74998  0.96526  1.0000
  H   H336      1.0  0.47862  0.83772  0.62837  1.0000
  C   C348      1.0  0.04878  0.92124  0.96790  1.0000
  C   C349      1.0  0.04854  0.89766  0.97456  1.0000
  H   H337      1.0  0.25669  0.92894  0.93890  1.0000
  H   H338      1.0  0.28920  0.89317  0.60769  1.0000
  C   C350      1.0  0.02221  0.93334  0.96444  1.0000
  C   C351      1.0  0.49265  0.80372  0.84993  1.0000
  C   C352      1.0  0.49278  0.82689  0.85686  1.0000
  C   C353      1.0  0.43116  0.70462  0.57773  1.0000
  H   H339      1.0  0.23963  0.91010  0.88822  1.0000
  C   C354      1.0  0.26978  0.86562  0.62860  1.0000
  C   C355      1.0  0.41059  0.85957  0.55521  1.0000
  H   H340      1.0  0.25656  0.83806  0.65227  1.0000
  H   H341      1.0  0.46319  0.71634  0.97824  1.0000
  H   H342      1.0  0.31514  0.84424  0.69647  1.0000
  H   H343      1.0  0.31341  0.82017  0.67682  1.0000
  H   H344      1.0  0.49794  0.87758  0.59761  1.0000
  H   H345      1.0  0.16529  0.96723  0.91135  1.0000
  H   H346      1.0  0.15307  0.93811  0.88108  1.0000
  H   H347      1.0  0.26678  0.95636  0.92491  1.0000
  C   C356      1.0  0.46508  0.74434  0.57193  1.0000
  H   H348      1.0  0.36611  0.78919  0.96219  1.0000
  H   H349      1.0  0.35073  0.68028  0.95183  1.0000
  H   H350      1.0  0.43806  0.71876  0.81336  1.0000
  H   H351      1.0  0.28250  0.77499  0.88604  1.0000
  H   H352      1.0  0.39079  0.70838  0.60965  1.0000
  H   H353      1.0  0.45043  0.69304  0.54555  1.0000
  H   H354      1.0  0.25803  0.77206  0.91071  1.0000
  H   H355      1.0  0.39841  0.88883  0.57585  1.0000
  H   H356      1.0  0.06939  0.93012  0.96523  1.0000
  C   C357      1.0  0.17772  0.00229  0.97475  1.0000
  N   N28       1.0  0.23015  0.93904  0.90973  1.0000
  C   C358      1.0  0.22369  0.92311  0.89294  1.0000
  C   C359      1.0  0.20950  0.95472  0.91637  1.0000
  C   C360      1.0  0.19595  0.92257  0.88233  1.0000
  C   C361      1.0  0.18171  0.95495  0.90580  1.0000
  C   C362      1.0  0.17487  0.93864  0.88880  1.0000
  C   C363      1.0  0.25867  0.93844  0.92177  1.0000
  C   C364      1.0  0.40991  0.71965  0.61372  1.0000
  H   H357      1.0  0.21422  0.96695  0.93019  1.0000
  C   C365      1.0  0.47913  0.70178  0.97991  1.0000
  N   N29       1.0  0.42921  0.72220  0.59345  1.0000
  H   H358      1.0  0.46805  0.68569  0.97383  1.0000
  C   C366      1.0  0.49737  0.87308  0.57872  1.0000
  H   H359      1.0  0.34833  0.68218  0.54860  1.0000
  C   C367      1.0  0.44499  0.88202  0.57787  1.0000
  H   H360      1.0  0.19063  0.90923  0.86978  1.0000
  H   H361      1.0  0.37902  0.75196  0.76371  1.0000
  H   H362      1.0  0.25036  0.86449  0.61748  1.0000
  S   S127      1.0  0.40173  0.69591  0.97870  1.0000
  C   C368      1.0  0.29163  0.88170  0.62303  1.0000
  N   N30       1.0  0.44072  0.77299  0.78890  1.0000
  C   C369      1.0  0.41620  0.77225  0.77494  1.0000
  C   C370      1.0  0.44879  0.75397  0.80237  1.0000
  C   C371      1.0  0.39898  0.75213  0.77425  1.0000
  C   C372      1.0  0.43205  0.73355  0.80213  1.0000
  C   C373      1.0  0.40689  0.73272  0.78804  1.0000
  C   C374      1.0  0.45707  0.79488  0.79056  1.0000
  H   H363      1.0  0.40951  0.78744  0.76463  1.0000
  H   H364      1.0  0.46782  0.75469  0.81388  1.0000
  Fe  Fe64      1.0  0.11880  0.92791  0.51600  1.0000
  H   H365      1.0  0.39318  0.71729  0.78820  1.0000
  H   H366      1.0  0.44582  0.80657  0.80286  1.0000
  H   H367      1.0  0.47967  0.79194  0.79741  1.0000
  H   H368      1.0  0.45864  0.80382  0.77310  1.0000
  N   N31       1.0  0.29806  0.85214  0.66211  1.0000
  C   C375      1.0  0.31996  0.86744  0.65636  1.0000
  C   C376      1.0  0.31705  0.88245  0.63677  1.0000
  C   C377      1.0  0.30186  0.83611  0.68233  1.0000
  H   H369      1.0  0.33993  0.86796  0.66684  1.0000
  H   H370      1.0  0.33460  0.89430  0.63197  1.0000
  C   C378      1.0  0.44981  0.70666  0.55848  1.0000
  H   H371      1.0  0.28054  0.83107  0.69011  1.0000
  N   N32       1.0  0.30314  0.77275  0.91980  1.0000
  C   C379      1.0  0.31547  0.79442  0.91821  1.0000
  C   C380      1.0  0.31221  0.75716  0.93691  1.0000
  C   C381      1.0  0.33810  0.80075  0.93353  1.0000
  C   C382      1.0  0.33498  0.76281  0.95242  1.0000
  H   H372      1.0  0.49774  0.70554  0.96806  1.0000
  C   C383      1.0  0.27935  0.76654  0.90360  1.0000
  H   H373      1.0  0.30820  0.80681  0.90475  1.0000
  H   H374      1.0  0.30269  0.73987  0.93801  1.0000
  H   H375      1.0  0.42921  0.83069  0.53712  1.0000
  C   C384      1.0  0.43352  0.84546  0.54819  1.0000
  S   S128      1.0  0.13510  0.89199  0.50958  1.0000
  H   H376      1.0  0.02259  0.95153  0.95908  1.0000
  C   C385      1.0  0.19796  0.00067  0.99333  1.0000
  N   N33       1.0  0.46736  0.86805  0.57095  1.0000
  H   H377      1.0  0.44921  0.89629  0.58959  1.0000
  H   H378      1.0  0.50736  0.77048  0.89067  1.0000
  H   H379      1.0  0.27538  0.92942  0.91123  1.0000
  H   H380      1.0  0.50649  0.88777  0.56811  1.0000
  H   H381      1.0  0.47819  0.76002  0.56992  1.0000
  C   C386      1.0  0.46199  0.85011  0.55609  1.0000
  H   H382      1.0  0.40071  0.73676  0.61856  1.0000
  C   C387      1.0  0.04194  0.90437  0.51152  1.0000
  H   H383      1.0  0.41756  0.68920  0.57953  1.0000
  H   H384      1.0  0.32792  0.70304  0.50496  1.0000
  H   H385      1.0  0.02111  0.86809  0.98283  1.0000
  C   C388      1.0  0.02152  0.88637  0.97789  1.0000
  H   H386      1.0  0.06174  0.89868  0.50318  1.0000
  H   H387      1.0  0.17534  0.85006  0.50305  1.0000
  H   H388      1.0  0.04953  0.97608  0.50440  1.0000
  H   H389      1.0  0.15472  0.00277  0.51304  1.0000
  C   C389      1.0  0.02662  0.97251  0.50064  1.0000
  C   C390      1.0  0.01731  0.92939  0.53851  1.0000
  H   H390      1.0  0.01818  0.94305  0.55126  1.0000
  H   H391      1.0  0.27541  0.71262  0.49810  1.0000
  C   C391      1.0  0.01498  0.89374  0.50613  1.0000
  Fe  Fe65      1.0  0.67388  0.27758  0.11589  1.0000
  S   S129      1.0  0.65947  0.25201  0.08898  1.0000
  S   S130      1.0  0.69040  0.31349  0.10483  1.0000
  Fe  Fe66      1.0  0.65632  0.24571  0.15722  1.0000
  S   S131      1.0  0.64058  0.21802  0.13251  1.0000
  S   S132      1.0  0.64471  0.23758  0.19552  1.0000
  Fe  Fe67      1.0  0.68190  0.22523  0.11219  1.0000
  S   S133      1.0  0.70505  0.19405  0.09617  1.0000
  Fe  Fe68      1.0  0.61977  0.24723  0.11155  1.0000
  S   S134      1.0  0.57511  0.24918  0.09339  1.0000
  S   S135      1.0  0.69907  0.25108  0.13827  1.0000
  S   S136      1.0  0.63293  0.27445  0.13714  1.0000
  Fe  Fe69      1.0  0.85956  0.15690  0.03567  1.0000
  C   C392      1.0  0.80947  0.09707  0.43429  1.0000
  S   S137      1.0  0.83702  0.17490  0.06608  1.0000
  C   C393      1.0  0.87481  0.08233  0.07461  1.0000
  C   C394      1.0  0.56585  0.30128  0.06034  1.0000
  H   H392      1.0  0.52960  0.24682  0.29788  1.0000
  H   H393      1.0  0.97772  0.12490  0.00884  1.0000
  C   C395      1.0  0.89506  0.09258  0.08983  1.0000
  C   C396      1.0  0.86179  0.12463  0.09443  1.0000
  S   S138      1.0  0.90021  0.13524  0.04201  1.0000
  Fe  Fe70      1.0  0.67567  0.25615  0.33041  1.0000
  S   S139      1.0  0.66831  0.22179  0.34934  1.0000
  S   S140      1.0  0.70091  0.25924  0.29612  1.0000
  Fe  Fe71      1.0  0.64739  0.28385  0.36996  1.0000
  S   S141      1.0  0.63836  0.25148  0.39130  1.0000
  S   S142      1.0  0.62607  0.31603  0.38426  1.0000
  Fe  Fe72      1.0  0.68386  0.24030  0.38175  1.0000
  S   S143      1.0  0.71572  0.23096  0.41174  1.0000
  Fe  Fe73      1.0  0.62359  0.23644  0.35723  1.0000
  S   S144      1.0  0.57999  0.21829  0.35136  1.0000
  S   S145      1.0  0.69376  0.27400  0.36250  1.0000
  S   S146      1.0  0.63029  0.26939  0.33609  1.0000
  S   S147      1.0  0.88995  0.17555  0.45717  1.0000
  H   H394      1.0  0.74465  0.30010  0.46885  1.0000
  S   S148      1.0  0.87803  0.11983  0.45485  1.0000
  C   C397      1.0  0.70268  0.18573  0.15822  1.0000
  Fe  Fe74      1.0  0.91594  0.14299  0.46448  1.0000
  S   S149      1.0  0.96051  0.13441  0.44956  1.0000
  Fe  Fe75      1.0  0.85095  0.15258  0.45117  1.0000
  S   S150      1.0  0.81947  0.15700  0.41975  1.0000
  H   H395      1.0  0.79518  0.20421  0.33975  1.0000
  C   C398      1.0  0.99288  0.14812  0.45951  1.0000
  H   H396      1.0  0.55673  0.30904  0.36709  1.0000
  C   C399      1.0  0.99246  0.16425  0.47751  1.0000
  H   H397      1.0  0.64214  0.29756  0.44046  1.0000
  H   H398      1.0  0.99941  0.09978  0.48537  1.0000
  H   H399      1.0  0.79226  0.12563  0.45375  1.0000
  S   S151      1.0  0.96630  0.17391  0.01673  1.0000
  C   C400      1.0  0.84216  0.11402  0.07894  1.0000
  C   C401      1.0  0.88603  0.05666  0.48750  1.0000
  N   N34       1.0  0.84864  0.09296  0.06953  1.0000
  H   H400      1.0  0.51920  0.20822  0.34314  1.0000
  H   H401      1.0  0.63134  0.31376  0.03229  1.0000
  H   H402      1.0  0.57787  0.28322  0.36365  1.0000
  C   C402      1.0  0.71202  0.27987  0.45109  1.0000
  H   H403      1.0  0.89466  0.07175  0.47820  1.0000
  C   C403      1.0  0.54797  0.22808  0.36527  1.0000
  C   C404      1.0  0.54937  0.24382  0.38362  1.0000
  C   C405      1.0  0.64582  0.32377  0.04337  1.0000
  H   H404      1.0  0.57040  0.24940  0.39031  1.0000
  H   H405      1.0  0.54879  0.29308  0.07159  1.0000
  C   C406      1.0  0.74275  0.20885  0.41433  1.0000
  C   C407      1.0  0.76118  0.20831  0.43431  1.0000
  C   C408      1.0  0.78430  0.19217  0.43651  1.0000
  C   C409      1.0  0.78917  0.17630  0.41873  1.0000
  C   C410      1.0  0.77028  0.17643  0.39900  1.0000
  C   C411      1.0  0.74723  0.19267  0.39674  1.0000
  H   H406      1.0  0.75786  0.22066  0.44808  1.0000
  H   H407      1.0  0.79861  0.19226  0.45180  1.0000
  H   H408      1.0  0.77379  0.16415  0.38521  1.0000
  H   H409      1.0  0.73311  0.19279  0.38136  1.0000
  H   H410      1.0  0.56932  0.26619  0.31970  1.0000
  H   H411      1.0  0.97183  0.16922  0.48502  1.0000
  H   H412      1.0  0.75963  0.25974  0.37848  1.0000
  H   H413      1.0  0.90416  0.12229  0.11125  1.0000
  H   H414      1.0  0.91481  0.02701  0.02047  1.0000
  H   H415      1.0  0.81228  0.10740  0.41826  1.0000
  H   H416      1.0  0.64840  0.17313  0.16338  1.0000
  C   C412      1.0  0.65857  0.17643  0.18082  1.0000
  C   C413      1.0  0.81778  0.07364  0.43537  1.0000
  Fe  Fe76      1.0  0.88376  0.11278  0.01257  1.0000
  C   C414      1.0  0.79821  0.10732  0.45422  1.0000
  C   C415      1.0  0.60937  0.33077  0.10702  1.0000
  C   C416      1.0  0.88343  0.01428  0.49290  1.0000
  C   C417      1.0  0.65754  0.31346  0.06394  1.0000
  C   C418      1.0  0.72201  0.29945  0.46300  1.0000
  H   H417      1.0  0.66052  0.33140  0.46235  1.0000
  H   H418      1.0  0.65199  0.29572  0.06850  1.0000
  C   C419      1.0  0.54223  0.24645  0.10930  1.0000
  C   C420      1.0  0.54236  0.23976  0.13306  1.0000
  C   C421      1.0  0.79695  0.24269  0.39433  1.0000
  H   H419      1.0  0.56293  0.23669  0.14222  1.0000
  H   H420      1.0  0.90988  0.03211  0.46701  1.0000
  C   C422      1.0  0.66024  0.24533  0.22308  1.0000
  C   C423      1.0  0.64510  0.23918  0.24368  1.0000
  C   C424      1.0  0.65700  0.24376  0.26607  1.0000
  C   C425      1.0  0.68450  0.25425  0.26817  1.0000
  C   C426      1.0  0.69976  0.26031  0.24756  1.0000
  C   C427      1.0  0.68763  0.25605  0.22511  1.0000
  H   H421      1.0  0.62397  0.23078  0.24234  1.0000
  H   H422      1.0  0.64505  0.23889  0.28172  1.0000
  H   H423      1.0  0.72101  0.26850  0.24898  1.0000
  H   H424      1.0  0.69953  0.26092  0.20944  1.0000
  C   C428      1.0  0.79973  0.18163  0.07170  1.0000
  C   C429      1.0  0.79337  0.20037  0.08632  1.0000
  C   C430      1.0  0.76439  0.20519  0.09297  1.0000
  C   C431      1.0  0.74142  0.19081  0.08572  1.0000
  C   C432      1.0  0.74776  0.17214  0.07100  1.0000
  C   C433      1.0  0.77663  0.16775  0.06375  1.0000
  H   H425      1.0  0.81105  0.21117  0.09266  1.0000
  H   H426      1.0  0.75998  0.21966  0.10421  1.0000
  H   H427      1.0  0.73020  0.16088  0.06529  1.0000
  H   H428      1.0  0.78106  0.15322  0.05260  1.0000
  C   C434      1.0  0.79530  0.09407  0.47489  1.0000
  C   C435      1.0  0.72157  0.32326  0.02959  1.0000
  H   H429      1.0  0.52486  0.26463  0.40752  1.0000
  Fe  Fe77      1.0  0.92155  0.15684  0.01376  1.0000
  C   C436      1.0  0.59317  0.31417  0.09480  1.0000
  H   H430      1.0  0.83194  0.19655  0.37137  1.0000
  H   H431      1.0  0.85675  0.14154  0.10152  1.0000
  H   H432      1.0  0.51611  0.23085  0.16317  1.0000
  H   H433      1.0  0.91604  0.08434  0.09335  1.0000
  H   H434      1.0  0.71652  0.30859  0.04124  1.0000
  H   H435      1.0  0.57902  0.30621  0.34162  1.0000
  C   C437      1.0  0.67507  0.31688  0.45945  1.0000
  C   C438      1.0  0.80345  0.07060  0.47527  1.0000
  S   S152      1.0  0.84143  0.13290  0.00830  1.0000
  C   C439      1.0  0.52350  0.25234  0.39342  1.0000
  C   C440      1.0  0.54681  0.27025  0.32373  1.0000
  C   C441      1.0  0.68310  0.27910  0.44308  1.0000
  H   H436      1.0  0.67526  0.26413  0.43356  1.0000
  H   H437      1.0  0.82202  0.12305  0.07417  1.0000
  C   C442      1.0  0.88842  0.11385  0.09984  1.0000
  H   H438      1.0  0.88043  0.06607  0.06644  1.0000
  C   C443      1.0  0.87675  0.04735  0.01075  1.0000
  C   C444      1.0  0.67590  0.32619  0.07866  1.0000
  H   H439      1.0  0.82936  0.06308  0.05391  1.0000
  H   H440      1.0  0.73328  0.22715  0.34379  1.0000
  C   C445      1.0  0.89466  0.03414  0.48123  1.0000
  H   H441      1.0  0.83275  0.22100  0.40663  1.0000
  N   N35       1.0  0.81472  0.06073  0.45570  1.0000
  C   C446      1.0  0.82839  0.08242  0.05267  1.0000
  H   H442      1.0  0.76042  0.23064  0.32124  1.0000
  H   H443      1.0  0.58160  0.28750  0.05550  1.0000
  H   H444      1.0  0.82694  0.06590  0.41991  1.0000
  C   C447      1.0  0.81690  0.21108  0.37250  1.0000
  H   H445      1.0  0.74795  0.25551  0.33629  1.0000
  H   H446      1.0  0.80783  0.02601  0.44488  1.0000
  C   C448      1.0  0.99886  0.15740  0.01640  1.0000
  H   H447      1.0  0.59076  0.29680  0.10243  1.0000
  C   C449      1.0  0.75341  0.23672  0.33868  1.0000
  C   C450      1.0  0.69867  0.19966  0.19698  1.0000
  C   C451      1.0  0.73007  0.19634  0.15589  1.0000
  C   C452      1.0  0.72580  0.21079  0.19513  1.0000
  C   C453      1.0  0.74154  0.20914  0.17439  1.0000
  H   H448      1.0  0.68640  0.20121  0.21308  1.0000
  H   H449      1.0  0.74200  0.19496  0.13962  1.0000
  H   H450      1.0  0.73424  0.22091  0.20959  1.0000
  H   H451      1.0  0.76243  0.21793  0.17255  1.0000
  S   S153      1.0  0.83738  0.15155  0.48897  1.0000
  H   H452      1.0  0.69217  0.31243  0.00224  1.0000
  N   N36       1.0  0.58123  0.31951  0.07320  1.0000
  H   H453      1.0  0.69376  0.17618  0.14353  1.0000
  H   H454      1.0  0.51502  0.25561  0.07927  1.0000
  H   H455      1.0  0.64317  0.18784  0.19023  1.0000
  C   C454      1.0  0.52436  0.25918  0.31131  1.0000
  N   N37       1.0  0.54050  0.28533  0.34120  1.0000
  H   H456      1.0  0.83445  0.08791  0.03455  1.0000
  N   N38       1.0  0.77618  0.23313  0.35677  1.0000
  S   S154      1.0  0.89439  0.07398  0.01754  1.0000
  H   H457      1.0  0.55506  0.30814  0.04402  1.0000
  N   N39       1.0  0.68716  0.18779  0.17847  1.0000
  C   C455      1.0  0.89257  0.02649  0.01379  1.0000
  H   H458      1.0  0.66096  0.15969  0.19077  1.0000
  C   C456      1.0  0.56453  0.29653  0.35398  1.0000
  C   C457      1.0  0.81736  0.22483  0.39237  1.0000
  C   C458      1.0  0.82306  0.03608  0.45608  1.0000
  H   H459      1.0  0.80542  0.08769  0.05582  1.0000
  S   S155      1.0  0.88254  0.18040  0.00981  1.0000
  H   H460      1.0  0.84573  0.03409  0.44958  1.0000
  N   N40       1.0  0.70354  0.31758  0.46711  1.0000
  H   H461      1.0  0.79636  0.25283  0.41015  1.0000
  C   C459      1.0  0.79594  0.21543  0.35480  1.0000
  C   C460      1.0  0.77625  0.24651  0.37634  1.0000
  H   H462      1.0  0.72660  0.26543  0.44786  1.0000
  H   H463      1.0  0.61980  0.32620  0.12373  1.0000
  C   C461      1.0  0.99841  0.13366  0.01161  1.0000
  Fe  Fe78      1.0  0.87792  0.17285  0.49547  1.0000
  C   C462      1.0  0.70788  0.32553  0.00754  1.0000
  C   C463      1.0  0.52045  0.22052  0.35722  1.0000
  C   C464      1.0  0.66447  0.29772  0.44719  1.0000
  H   H464      1.0  0.78763  0.10207  0.49077  1.0000
  C   C465      1.0  0.51531  0.25046  0.09767  1.0000
  C   C466      1.0  0.84799  0.04638  0.00219  1.0000
  H   H465      1.0  0.83552  0.06223  0.99963  1.0000
  H   H466      1.0  0.82271  0.02831  0.47415  1.0000
  C   C467      1.0  0.88020  0.00493  0.00767  1.0000
  H   H467      1.0  0.68817  0.32673  0.39045  1.0000
  C   C468      1.0  0.51578  0.23653  0.14491  1.0000
  C   C469      1.0  0.64514  0.33609  0.40184  1.0000
  Fe  Fe79      1.0  0.86753  0.12043  0.49313  1.0000
  H   H468      1.0  0.72891  0.33344  0.49413  1.0000
  H   H469      1.0  0.80169  0.06064  0.49163  1.0000
  H   H470      1.0  0.99156  0.18572  0.96636  1.0000
  S   S156      1.0  0.84726  0.17030  0.94902  1.0000
  H   H471      1.0  0.88137  0.26926  0.96975  1.0000
  H   H472      1.0  0.81101  0.26860  0.76788  1.0000
  S   S157      1.0  0.86810  0.33476  0.83751  1.0000
  Fe  Fe80      1.0  0.87417  0.29667  0.83167  1.0000
  S   S158      1.0  0.86807  0.27887  0.79662  1.0000
  Fe  Fe81      1.0  0.89128  0.28701  0.88330  1.0000
  C   C470      1.0  0.94922  0.32049  0.79821  1.0000
  S   S159      1.0  0.90892  0.26264  0.91189  1.0000
  H   H473      1.0  0.81294  0.02405  0.99035  1.0000
  S   S160      1.0  0.84856  0.28582  0.86368  1.0000
  S   S161      1.0  0.91741  0.29416  0.85075  1.0000
  Fe  Fe82      1.0  0.85711  0.28092  0.62152  1.0000
  S   S162      1.0  0.87424  0.30487  0.59346  1.0000
  S   S163      1.0  0.84511  0.24358  0.61281  1.0000
  Fe  Fe83      1.0  0.86718  0.31691  0.65961  1.0000
  H   H474      1.0  0.84021  0.04183  0.53193  1.0000
  Fe  Fe84      1.0  0.91013  0.31288  0.61912  1.0000
  C   C471      1.0  0.79673  0.32436  0.77508  1.0000
  S   S164      1.0  0.82777  0.30818  0.63697  1.0000
  S   S165      1.0  0.89461  0.28736  0.64668  1.0000
  S   S166      1.0  0.86567  0.33123  0.69676  1.0000
  C   C472      1.0  0.86875  0.29371  0.76903  1.0000
  C   C473      1.0  0.86935  0.28072  0.74840  1.0000
  C   C474      1.0  0.86853  0.29188  0.72608  1.0000
  C   C475      1.0  0.86696  0.31616  0.72423  1.0000
  H   H475      1.0  0.90594  0.23579  0.63026  1.0000
  H   H476      1.0  0.87021  0.26190  0.74967  1.0000
  H   H477      1.0  0.86888  0.28171  0.71031  1.0000
  H   H478      1.0  0.84620  0.04979  0.94919  1.0000
  H   H479      1.0  0.98831  0.31943  0.86170  1.0000
  C   C476      1.0  0.85860  0.23904  0.98286  1.0000
  H   H480      1.0  0.79610  0.27544  0.80862  1.0000
  H   H481      1.0  0.86646  0.29280  0.93791  1.0000
  H   H482      1.0  0.94086  0.27645  0.56464  1.0000
  C   C477      1.0  0.86623  0.21709  0.53933  1.0000
  C   C478      1.0  0.85818  0.20132  0.55726  1.0000
  C   C479      1.0  0.85067  0.20960  0.57957  1.0000
  C   C480      1.0  0.85120  0.23360  0.58402  1.0000
  C   C481      1.0  0.85799  0.24919  0.56570  1.0000
  C   C482      1.0  0.86563  0.24100  0.54360  1.0000
  H   H483      1.0  0.85854  0.18282  0.55414  1.0000
  H   H484      1.0  0.84503  0.19736  0.59352  1.0000
  H   H485      1.0  0.85734  0.26760  0.56842  1.0000
  H   H486      1.0  0.87158  0.25332  0.52979  1.0000
  H   H487      1.0  0.82729  0.29676  0.93776  1.0000
  C   C483      1.0  0.93683  0.25817  0.56863  1.0000
  Fe  Fe85      1.0  0.84510  0.32421  0.87111  1.0000
  C   C484      1.0  0.98791  0.31687  0.61703  1.0000
  C   C485      1.0  0.86593  0.19457  0.93688  1.0000
  C   C486      1.0  0.89232  0.20208  0.94680  1.0000
  C   C487      1.0  0.90568  0.22258  0.93834  1.0000
  C   C488      1.0  0.89285  0.23573  0.91989  1.0000
  C   C489      1.0  0.86693  0.22788  0.90940  1.0000
  C   C490      1.0  0.85353  0.20729  0.91788  1.0000
  H   H488      1.0  0.90229  0.19225  0.96120  1.0000
  H   H489      1.0  0.92578  0.22851  0.94646  1.0000
  H   H490      1.0  0.85703  0.23778  0.89502  1.0000
  H   H491      1.0  0.83324  0.20143  0.91002  1.0000
  H   H492      1.0  0.79265  0.30429  0.84010  1.0000
  C   C491      1.0  0.00022  0.33502  0.85671  1.0000
  S   S167      1.0  0.90765  0.13350  0.98462  1.0000
  C   C492      1.0  0.91414  0.22086  0.62015  1.0000
  C   C493      1.0  0.98831  0.32878  0.63817  1.0000
  C   C494      1.0  0.79387  0.33378  0.81610  1.0000
  H   H493      1.0  0.79563  0.21791  0.95939  1.0000
  S   S168      1.0  0.90694  0.14184  0.50317  1.0000
  H   H494      1.0  0.89512  0.06101  0.95895  1.0000
  H   H495      1.0  0.92659  0.26408  0.60465  1.0000
  C   C495      1.0  0.92992  0.03654  0.96515  1.0000
  H   H496      1.0  0.92030  0.19367  0.58335  1.0000
  C   C496      1.0  0.79720  0.28377  0.76242  1.0000
  C   C497      1.0  0.79381  0.31006  0.82184  1.0000
  C   C498      1.0  0.92550  0.21177  0.57948  1.0000
  H   H497      1.0  0.87519  0.23470  0.99604  1.0000
  N   N41       1.0  0.92270  0.22815  0.59636  1.0000
  N   N42       1.0  0.88284  0.02671  0.94891  1.0000
  C   C499      1.0  0.01344  0.18890  0.95970  1.0000
  S   S169      1.0  0.95476  0.31024  0.60232  1.0000
  H   H498      1.0  0.84462  0.27851  0.91650  1.0000
  H   H499      1.0  0.83204  0.20884  0.99079  1.0000
  H   H500      1.0  0.95355  0.32392  0.81660  1.0000
  S   S170      1.0  0.79801  0.33431  0.88047  1.0000
  C   C500      1.0  0.84507  0.28398  0.93508  1.0000
  C   C501      1.0  0.85353  0.03361  0.94070  1.0000
  C   C502      1.0  0.93381  0.21824  0.55667  1.0000
  H   H501      1.0  0.00408  0.22391  0.94741  1.0000
  S   S171      1.0  0.88062  0.20821  0.51232  1.0000
  C   C503      1.0  0.86629  0.05958  0.50575  1.0000
  H   H502      1.0  0.79803  0.33012  0.75682  1.0000
  H   H503      1.0  0.93301  0.21289  0.62974  1.0000
  H   H504      1.0  0.86706  0.32818  0.78291  1.0000
  C   C504      1.0  0.93922  0.24162  0.55120  1.0000
  C   C505      1.0  0.93786  0.31136  0.75136  1.0000
  S   S172      1.0  0.88671  0.32469  0.89272  1.0000
  C   C506      1.0  0.90186  0.04301  0.95739  1.0000
  C   C507      1.0  0.94000  0.33423  0.75914  1.0000
  H   H505      1.0  0.89575  0.20818  0.61941  1.0000
  H   H506      1.0  0.94448  0.04938  0.97267  1.0000
  H   H507      1.0  0.93467  0.20535  0.54303  1.0000
  C   C508      1.0  0.92864  0.25107  0.59129  1.0000
  C   C509      1.0  0.83440  0.22452  0.97995  1.0000
  H   H508      1.0  0.70716  0.33206  0.95855  1.0000
  C   C510      1.0  0.86755  0.31799  0.76719  1.0000
  H   H509      1.0  0.94457  0.24690  0.53333  1.0000
  H   H510      1.0  0.77460  0.27767  0.75872  1.0000
  C   C511      1.0  0.79550  0.29385  0.80395  1.0000
  C   C512      1.0  0.86389  0.01716  0.51131  1.0000
  N   N43       1.0  0.79695  0.30111  0.78092  1.0000
  H   H511      1.0  0.93831  0.27506  0.76191  1.0000
  C   C513      1.0  0.94108  0.29287  0.76752  1.0000
  H   H512      1.0  0.80668  0.29105  0.74590  1.0000
  H   H513      1.0  0.80198  0.25309  0.93383  1.0000
  H   H514      1.0  0.83727  0.01983  0.94532  1.0000
  C   C514      1.0  0.81769  0.24946  0.94785  1.0000
  C   C515      1.0  0.86191  0.25858  0.96797  1.0000
  H   H515      1.0  0.01434  0.30196  0.59013  1.0000
  Fe  Fe86      1.0  0.86704  0.15549  0.98275  1.0000
  C   C516      1.0  0.86649  0.32912  0.74488  1.0000
  H   H516      1.0  0.93261  0.30803  0.73309  1.0000
  C   C517      1.0  0.85541  0.03973  0.51772  1.0000
  Fe  Fe87      1.0  0.91026  0.33159  0.85862  1.0000
  C   C518      1.0  0.94680  0.29741  0.79109  1.0000
  N   N44       1.0  0.84152  0.26358  0.95077  1.0000
  S   S173      1.0  0.85368  0.08758  0.51335  1.0000
  C   C519      1.0  0.93859  0.01331  0.96382  1.0000
  C   C520      1.0  0.81384  0.22967  0.96231  1.0000
  H   H517      1.0  0.94530  0.00498  0.51323  1.0000
  H   H518      1.0  0.96009  0.00785  0.97004  1.0000
  H   H519      1.0  0.85345  0.03645  0.92134  1.0000
  Fe  Fe88      1.0  0.84741  0.33259  0.60996  1.0000
  H   H520      1.0  0.94871  0.28316  0.80388  1.0000
  H   H521      1.0  0.96796  0.33341  0.64634  1.0000
  C   C521      1.0  0.83528  0.02471  0.99681  1.0000
  H   H522      1.0  0.01402  0.12818  0.51552  1.0000
  C   C522      1.0  0.01450  0.31105  0.60656  1.0000
  S   S174      1.0  0.68608  0.41507  0.99792  1.0000
  H   H523      1.0  0.57634  0.34533  0.04575  1.0000
  H   H524      1.0  0.71347  0.35617  0.41489  1.0000
  C   C523      1.0  0.58471  0.34128  0.06330  1.0000
  C   C524      1.0  0.66758  0.52613  0.01931  1.0000
  S   S175      1.0  0.65017  0.62558  0.02580  1.0000
  C   C525      1.0  0.73282  0.36120  0.00000  1.0000
  C   C526      1.0  0.54197  0.58618  0.00998  1.0000
  H   H525      1.0  0.60550  0.34953  0.41646  1.0000
  Fe  Fe89      1.0  0.68409  0.65397  0.03183  1.0000
  C   C527      1.0  0.67147  0.54887  0.47539  1.0000
  S   S176      1.0  0.66238  0.47869  0.01452  1.0000
  Fe  Fe90      1.0  0.66940  0.61085  0.46784  1.0000
  S   S177      1.0  0.64588  0.63454  0.44145  1.0000
  H   H526      1.0  0.57526  0.49078  0.45726  1.0000
  Fe  Fe91      1.0  0.62144  0.64655  0.47309  1.0000
  C   C528      1.0  0.75336  0.59155  0.49050  1.0000
  H   H527      1.0  0.74342  0.65390  0.42115  1.0000
  C   C529      1.0  0.67064  0.35988  0.05184  1.0000
  C   C530      1.0  0.75192  0.67020  0.41419  1.0000
  Fe  Fe92      1.0  0.66791  0.40394  0.47839  1.0000
  S   S178      1.0  0.69234  0.38933  0.44771  1.0000
  S   S179      1.0  0.62795  0.42689  0.47778  1.0000
  C   C531      1.0  0.60159  0.57041  0.44933  1.0000
  H   H528      1.0  0.77211  0.57928  0.49066  1.0000
  H   H529      1.0  0.68101  0.48971  0.47596  1.0000
  H   H530      1.0  0.79198  0.65502  0.40199  1.0000
  C   C532      1.0  0.60167  0.58407  0.00251  1.0000
  H   H531      1.0  0.74109  0.58993  0.47361  1.0000
  H   H532      1.0  0.69628  0.52564  0.45410  1.0000
  Fe  Fe93      1.0  0.68063  0.66091  0.45065  1.0000
  H   H533      1.0  0.58978  0.49576  0.48649  1.0000
  C   C533      1.0  0.54207  0.62399  0.46064  1.0000
  C   C534      1.0  0.64338  0.36710  0.43042  1.0000
  H   H534      1.0  0.61408  0.48882  0.46360  1.0000
  C   C535      1.0  0.61701  0.55387  0.43692  1.0000
  C   C536      1.0  0.67151  0.54932  0.01120  1.0000
  H   H535      1.0  0.60521  0.57045  0.03808  1.0000
  H   H536      1.0  0.72930  0.47254  0.01105  1.0000
  C   C537      1.0  0.68991  0.35459  0.41540  1.0000
  H   H537      1.0  0.52584  0.62658  0.06455  1.0000
  H   H538      1.0  0.60419  0.58881  0.44502  1.0000
  H   H539      1.0  0.67482  0.56309  0.02361  1.0000
  H   H540      1.0  0.75640  0.66159  0.03854  1.0000
  H   H541      1.0  0.66780  0.52225  0.03801  1.0000
  H   H542      1.0  0.51863  0.58770  0.01292  1.0000
  C   C538      1.0  0.54976  0.63850  0.03401  1.0000
  S   S180      1.0  0.70361  0.66524  0.06695  1.0000
  C   C539      1.0  0.68261  0.34941  0.07246  1.0000
  C   C540      1.0  0.54253  0.64599  0.47066  1.0000
  C   C541      1.0  0.59051  0.57672  0.02422  1.0000
  H   H543      1.0  0.60424  0.37529  0.06679  1.0000
  S   S181      1.0  0.70576  0.63653  0.47454  1.0000
  H   H544      1.0  0.63194  0.55941  0.42319  1.0000
  C   C542      1.0  0.67383  0.36919  0.42990  1.0000
  H   H545      1.0  0.63080  0.37827  0.44152  1.0000
  S   S182      1.0  0.63412  0.35936  0.01253  1.0000
  H   H546      1.0  0.67540  0.37789  0.04739  1.0000
  C   C543      1.0  0.54769  0.64596  0.01048  1.0000
  C   C544      1.0  0.65197  0.34704  0.03739  1.0000
  C   C545      1.0  0.67565  0.33787  0.40161  1.0000
  C   C546      1.0  0.58092  0.53941  0.47322  1.0000
  C   C547      1.0  0.59365  0.49849  0.46735  1.0000
  C   C548      1.0  0.61417  0.53025  0.44310  1.0000
  H   H547      1.0  0.69715  0.34956  0.48500  1.0000
  H   H548      1.0  0.55151  0.57267  0.04487  1.0000
  N   N45       1.0  0.59661  0.52333  0.46127  1.0000
  H   H549      1.0  0.51487  0.59594  0.44814  1.0000
  H   H550      1.0  0.57119  0.57597  0.47727  1.0000
  C   C549      1.0  0.67307  0.50655  0.48118  1.0000
  S   S183      1.0  0.68255  0.57390  0.45917  1.0000
  H   H551      1.0  0.56237  0.61591  0.45585  1.0000
  H   H552      1.0  0.69678  0.35940  0.08378  1.0000
  H   H553      1.0  0.56686  0.53393  0.48753  1.0000
  H   H554      1.0  0.57079  0.63839  0.04294  1.0000
  C   C550      1.0  0.68169  0.52692  0.46885  1.0000
  C   C551      1.0  0.60054  0.35837  0.07514  1.0000
  H   H555      1.0  0.62649  0.36572  0.10600  1.0000
  H   H556      1.0  0.72795  0.34898  0.46597  1.0000
  C   C552      1.0  0.61309  0.35298  0.09706  1.0000
  H   H557      1.0  0.62680  0.51757  0.43371  1.0000
  H   H558      1.0  0.81156  0.66189  0.30983  1.0000
  H   H559      1.0  0.76144  0.37323  0.02767  1.0000
  C   C553      1.0  0.66417  0.50785  0.00345  1.0000
  C   C554      1.0  0.51595  0.65658  0.47636  1.0000
  Fe  Fe94      1.0  0.62642  0.65232  0.00321  1.0000
  C   C555      1.0  0.56045  0.57786  0.02796  1.0000
  S   S184      1.0  0.57558  0.66122  0.47586  1.0000
  C   C556      1.0  0.52429  0.63188  0.04620  1.0000
  H   H560      1.0  0.76233  0.60953  0.49120  1.0000
  C   C557      1.0  0.58325  0.56319  0.46751  1.0000
  C   C558      1.0  0.74659  0.35963  0.02208  1.0000
  H   H561      1.0  0.73258  0.51570  0.01049  1.0000
  C   C559      1.0  0.65259  0.55034  0.49441  1.0000
  C   C560      1.0  0.62910  0.35078  0.41624  1.0000
  S   S185      1.0  0.71121  0.64474  0.00078  1.0000
  C   C561      1.0  0.74085  0.34053  0.03695  1.0000
  H   H562      1.0  0.62505  0.58344  0.99989  1.0000
  C   C562      1.0  0.52029  0.64606  0.99910  1.0000
  C   C563      1.0  0.51516  0.61278  0.45623  1.0000
  C   C564      1.0  0.71499  0.33831  0.47866  1.0000
  H   H563      1.0  0.75089  0.33924  0.05432  1.0000
  C   C565      1.0  0.76200  0.67060  0.05444  1.0000
  C   C566      1.0  0.66407  0.51311  0.97932  1.0000
  N   N46       1.0  0.59920  0.37510  0.56874  1.0000
  C   C567      1.0  0.76629  0.35260  0.59166  1.0000
  H   H564      1.0  0.87840  0.34459  0.55803  1.0000
  S   S186      1.0  0.64858  0.39059  0.95535  1.0000
  H   H565      1.0  0.59269  0.61974  0.96078  1.0000
  S   S187      1.0  0.66160  0.44648  0.95302  1.0000
  H   H566      1.0  0.63440  0.35497  0.55555  1.0000
  Fe  Fe95      1.0  0.62146  0.42330  0.95388  1.0000
  S   S188      1.0  0.58444  0.42923  0.92738  1.0000
  Fe  Fe96      1.0  0.68815  0.41354  0.95847  1.0000
  S   S189      1.0  0.73526  0.40849  0.94593  1.0000
  H   H567      1.0  0.60132  0.35388  0.53862  1.0000
  S   S190      1.0  0.65059  0.64415  0.97032  1.0000
  H   H568      1.0  0.75659  0.45639  0.93171  1.0000
  N   N47       1.0  0.73702  0.48215  0.95256  1.0000
  C   C568      1.0  0.69591  0.57577  0.54676  1.0000
  S   S191      1.0  0.69194  0.42413  0.50630  1.0000
  C   C569      1.0  0.73829  0.46913  0.93073  1.0000
  S   S192      1.0  0.88526  0.34304  0.63321  1.0000
  S   S193      1.0  0.63071  0.42100  0.53569  1.0000
  C   C570      1.0  0.53641  0.42389  0.52137  1.0000
  Fe  Fe97      1.0  0.65009  0.44493  0.50798  1.0000
  H   H569      1.0  0.86978  0.37335  0.54728  1.0000
  H   H570      1.0  0.86532  0.34793  0.74359  1.0000
  Fe  Fe98      1.0  0.67085  0.39881  0.53157  1.0000
  S   S194      1.0  0.69042  0.37843  0.56289  1.0000
  C   C571      1.0  0.61672  0.38647  0.58443  1.0000
  H   H571      1.0  0.57058  0.43018  0.59862  1.0000
  H   H572      1.0  0.58382  0.59212  0.94766  1.0000
  C   C572      1.0  0.93156  0.36233  0.57840  1.0000
  C   C573      1.0  0.75057  0.35472  0.90131  1.0000
  S   S195      1.0  0.67975  0.58292  0.97574  1.0000
  C   C574      1.0  0.78817  0.36366  0.57853  1.0000
  H   H573      1.0  0.54261  0.41758  0.96602  1.0000
  C   C575      1.0  0.73653  0.35722  0.58655  1.0000
  C   C576      1.0  0.72825  0.37269  0.56811  1.0000
  C   C577      1.0  0.75013  0.38346  0.55474  1.0000
  C   C578      1.0  0.77989  0.37907  0.56003  1.0000
  C   C579      1.0  0.73406  0.47016  0.97344  1.0000
  H   H574      1.0  0.74416  0.39547  0.54057  1.0000
  C   C580      1.0  0.72496  0.60349  0.52467  1.0000
  C   C581      1.0  0.61014  0.35452  0.55692  1.0000
  C   C582      1.0  0.60675  0.40647  0.59537  1.0000
  H   H575      1.0  0.82096  0.37147  0.91067  1.0000
  S   S196      1.0  0.69633  0.66080  0.53760  1.0000
  H   H576      1.0  0.67502  0.34434  0.97197  1.0000
  H   H577      1.0  0.61903  0.59648  0.96103  1.0000
  H   H578      1.0  0.51854  0.65178  0.98088  1.0000
  S   S197      1.0  0.56585  0.38569  0.50463  1.0000
  C   C583      1.0  0.78127  0.35477  0.89932  1.0000
  H   H579      1.0  0.73745  0.37608  0.98850  1.0000
  C   C584      1.0  0.73612  0.37079  0.91558  1.0000
  C   C585      1.0  0.75221  0.38727  0.92807  1.0000
  C   C586      1.0  0.78292  0.38724  0.92620  1.0000
  C   C587      1.0  0.79738  0.37109  0.91201  1.0000
  C   C588      1.0  0.73738  0.51838  0.97290  1.0000
  H   H580      1.0  0.71250  0.37070  0.91649  1.0000
  H   H581      1.0  0.79568  0.39990  0.93568  1.0000
  H   H582      1.0  0.73779  0.34231  0.89151  1.0000
  C   C589      1.0  0.53027  0.42645  0.90755  1.0000
  C   C590      1.0  0.54604  0.42427  0.92870  1.0000
  H   H583      1.0  0.73773  0.53731  0.97247  1.0000
  H   H584      1.0  0.54175  0.43026  0.89139  1.0000
  H   H585      1.0  0.63878  0.38042  0.58818  1.0000
  C   C591      1.0  0.57110  0.38238  0.56458  1.0000
  H   H586      1.0  0.98917  0.39187  0.84126  1.0000
  C   C592      1.0  0.98481  0.35577  0.85154  1.0000
  C   C593      1.0  0.90731  0.39617  0.60606  1.0000
  C   C594      1.0  0.53437  0.40161  0.51207  1.0000
  H   H587      1.0  0.90254  0.35946  0.53759  1.0000
  C   C595      1.0  0.59533  0.60053  0.96251  1.0000
  H   H588      1.0  0.92818  0.36608  0.80178  1.0000
  Fe  Fe99      1.0  0.61103  0.40203  0.50549  1.0000
  C   C596      1.0  0.94731  0.36249  0.79054  1.0000
  H   H589      1.0  0.77227  0.34075  0.60597  1.0000
  H   H590      1.0  0.62956  0.53128  0.52158  1.0000
  H   H591      1.0  0.69743  0.54053  0.53448  1.0000
  C   C597      1.0  0.94739  0.37057  0.59768  1.0000
  C   C598      1.0  0.72414  0.56390  0.51358  1.0000
  H   H592      1.0  0.68082  0.57175  0.56085  1.0000
  H   H593      1.0  0.70350  0.36301  0.96099  1.0000
  H   H594      1.0  0.53832  0.40831  0.57130  1.0000
  H   H595      1.0  0.96749  0.36501  0.80131  1.0000
  S   S198      1.0  0.64218  0.48311  0.51613  1.0000
  Fe  Fe100     1.0  0.67693  0.64867  0.50340  1.0000
  H   H596      1.0  0.94092  0.34859  0.56812  1.0000
  C   C599      1.0  0.73848  0.50598  0.95206  1.0000
  C   C600      1.0  0.70529  0.55826  0.53204  1.0000
  C   C601      1.0  0.55393  0.59347  0.98852  1.0000
  C   C602      1.0  0.73454  0.50627  0.99428  1.0000
  C   C603      1.0  0.89218  0.38767  0.58653  1.0000
  C   C604      1.0  0.56037  0.40227  0.57524  1.0000
  N   N48       1.0  0.90446  0.37107  0.57289  1.0000
  H   H597      1.0  0.89721  0.40897  0.61707  1.0000
  H   H598      1.0  0.69843  0.61241  0.55425  1.0000
  C   C605      1.0  0.69914  0.34601  0.97001  1.0000
  Fe  Fe101     1.0  0.64525  0.39376  0.99453  1.0000
  C   C606      1.0  0.93513  0.38755  0.61162  1.0000
  H   H599      1.0  0.73233  0.45131  0.97378  1.0000
  H   H600      1.0  0.66877  0.54003  0.95251  1.0000
  C   C607      1.0  0.66827  0.53625  0.97121  1.0000
  S   S199      1.0  0.82607  0.35946  0.58487  1.0000
  C   C608      1.0  0.00064  0.37576  0.84522  1.0000
  H   H601      1.0  0.64452  0.56712  0.49958  1.0000
  C   C609      1.0  0.70577  0.59854  0.54308  1.0000
  C   C610      1.0  0.64416  0.53001  0.50684  1.0000
  H   H602      1.0  0.55698  0.37306  0.55256  1.0000
  N   N49       1.0  0.94579  0.33853  0.78230  1.0000
  C   C611      1.0  0.65431  0.50804  0.50028  1.0000
  H   H603      1.0  0.74160  0.48067  0.91507  1.0000
  H   H604      1.0  0.62110  0.41582  0.60719  1.0000
  H   H605      1.0  0.87030  0.39411  0.58265  1.0000
  H   H606      1.0  0.66144  0.49929  0.96690  1.0000
  H   H607      1.0  0.79288  0.34647  0.82994  1.0000
  H   H608      1.0  0.79657  0.38777  0.54978  1.0000
  H   H609      1.0  0.94696  0.39366  0.62693  1.0000
  H   H610      1.0  0.71762  0.45927  0.92808  1.0000
  H   H611      1.0  0.55761  0.43205  0.52342  1.0000
  C   C612      1.0  0.88810  0.36169  0.55291  1.0000
  H   H612      1.0  0.96876  0.36337  0.60208  1.0000
  C   C613      1.0  0.57846  0.41449  0.59056  1.0000
  S   S200      1.0  0.64922  0.37769  0.50363  1.0000
  H   H613      1.0  0.73234  0.62132  0.52197  1.0000
  C   C614      1.0  0.67231  0.55445  0.98706  1.0000
  S   S201      1.0  0.94598  0.35835  0.85179  1.0000
  C   C615      1.0  0.53070  0.41927  0.94954  1.0000
  H   H614      1.0  0.71984  0.34879  0.59703  1.0000
  N   N50       1.0  0.73390  0.58624  0.51020  1.0000
  H   H615      1.0  0.74017  0.51560  0.93552  1.0000
  H   H616      1.0  0.94762  0.37551  0.77582  1.0000
  S   S202      1.0  0.64256  0.62111  0.49884  1.0000
  H   H617      1.0  0.79574  0.35947  0.78796  1.0000
  H   H618      1.0  0.93645  0.34845  0.74656  1.0000
  Fe  Fe102     1.0  0.67564  0.61836  0.99315  1.0000
  N   N51       1.0  0.71356  0.34434  0.99311  1.0000
  H   H619      1.0  0.60367  0.33848  0.56678  1.0000
  N   N52       1.0  0.58341  0.59227  0.98500  1.0000
  H   H620      1.0  0.53958  0.60067  0.97490  1.0000
  S   S203      1.0  0.57794  0.65694  0.99481  1.0000
  Fe  Fe103     1.0  0.65691  0.44645  0.99215  1.0000
  S   S204      1.0  0.61552  0.42499  0.99275  1.0000
  C   C616      1.0  0.73275  0.48202  0.99459  1.0000
  C   C617      1.0  0.79546  0.34104  0.79258  1.0000
  H   H621      1.0  0.73048  0.55037  0.50166  1.0000
  C   C618      1.0  0.79326  0.73908  0.31319  1.0000
  H   H622      1.0  0.81827  0.74455  0.05769  1.0000
  H   H623      1.0  0.73208  0.68876  0.10512  1.0000
  H   H624      1.0  0.95835  0.68343  0.19286  1.0000
  Fe  Fe104     1.0  0.85894  0.90350  0.47598  1.0000
  S   S205      1.0  0.83982  0.88720  0.44336  1.0000
  Fe  Fe105     1.0  0.85742  0.77675  0.12003  1.0000
  S   S206      1.0  0.87858  0.75614  0.09218  1.0000
  S   S207      1.0  0.83992  0.81297  0.11119  1.0000
  Fe  Fe106     1.0  0.87244  0.74016  0.15845  1.0000
  S   S208      1.0  0.89444  0.71704  0.13231  1.0000
  S   S209      1.0  0.87770  0.72605  0.19620  1.0000
  Fe  Fe107     1.0  0.91496  0.74996  0.11832  1.0000
  S   S210      1.0  0.96093  0.76061  0.10769  1.0000
  Fe  Fe108     1.0  0.85554  0.72529  0.10862  1.0000
  S   S211      1.0  0.83528  0.70062  0.08189  1.0000
  S   S212      1.0  0.89514  0.77256  0.14549  1.0000
  S   S213      1.0  0.83216  0.74629  0.13550  1.0000
  C   C619      1.0  0.73517  0.69046  0.41549  1.0000
  Fe  Fe109     1.0  0.87024  0.75818  0.33025  1.0000
  S   S214      1.0  0.87969  0.72012  0.33508  1.0000
  S   S215      1.0  0.85834  0.77470  0.29459  1.0000
  Fe  Fe110     1.0  0.88244  0.76801  0.38207  1.0000
  S   S216      1.0  0.89330  0.73047  0.39014  1.0000
  S   S217      1.0  0.89100  0.78957  0.41435  1.0000
  Fe  Fe111     1.0  0.91833  0.73188  0.35664  1.0000
  S   S218      1.0  0.96278  0.71535  0.35191  1.0000
  Fe  Fe112     1.0  0.85357  0.72223  0.36836  1.0000
  S   S219      1.0  0.82478  0.69137  0.37916  1.0000
  S   S220      1.0  0.91056  0.76993  0.34987  1.0000
  S   S221      1.0  0.84093  0.75973  0.36209  1.0000
  H   H625      1.0  0.84946  0.87750  0.05328  1.0000
  C   C620      1.0  0.79081  0.69188  0.39398  1.0000
  C   C621      1.0  0.77432  0.71225  0.39566  1.0000
  C   C622      1.0  0.74653  0.71147  0.40618  1.0000
  H   H626      1.0  0.78275  0.72852  0.38858  1.0000
  H   H627      1.0  0.73372  0.72724  0.40702  1.0000
  C   C623      1.0  0.87327  0.74053  0.22316  1.0000
  C   C624      1.0  0.86118  0.76283  0.22426  1.0000
  C   C625      1.0  0.85717  0.77320  0.24623  1.0000
  C   C626      1.0  0.86545  0.76154  0.26728  1.0000
  C   C627      1.0  0.87796  0.73939  0.26614  1.0000
  C   C628      1.0  0.88165  0.72892  0.24422  1.0000
  H   H628      1.0  0.85452  0.77195  0.20823  1.0000
  H   H629      1.0  0.84742  0.79032  0.24690  1.0000
  H   H630      1.0  0.88439  0.73018  0.28215  1.0000
  H   H631      1.0  0.89093  0.71164  0.24360  1.0000
  C   C629      1.0  0.79871  0.69034  0.07872  1.0000
  C   C630      1.0  0.77727  0.69410  0.09555  1.0000
  C   C631      1.0  0.92459  0.84832  0.05829  1.0000
  H   H632      1.0  0.78295  0.70307  0.11147  1.0000
  H   H633      1.0  0.98330  0.93763  0.46759  1.0000
  H   H634      1.0  0.83710  0.86018  0.09253  1.0000
  C   C632      1.0  0.81384  0.70228  0.28748  1.0000
  C   C633      1.0  0.99365  0.74582  0.11564  1.0000
  H   H635      1.0  0.93592  0.79075  0.06577  1.0000
  H   H636      1.0  0.79642  0.75958  0.28110  1.0000
  H   H637      1.0  0.60837  0.71393  0.45737  1.0000
  H   H638      1.0  0.94004  0.87400  0.46120  1.0000
  C   C634      1.0  0.99400  0.72921  0.36368  1.0000
  C   C635      1.0  0.99198  0.75092  0.37414  1.0000
  C   C636      1.0  0.99373  0.72292  0.12460  1.0000
  H   H639      1.0  0.97079  0.75889  0.37618  1.0000
  C   C637      1.0  0.85277  0.85953  0.43557  1.0000
  C   C638      1.0  0.84608  0.85080  0.41328  1.0000
  C   C639      1.0  0.85684  0.82899  0.40659  1.0000
  C   C640      1.0  0.87401  0.81572  0.42234  1.0000
  C   C641      1.0  0.87987  0.82417  0.44486  1.0000
  C   C642      1.0  0.86956  0.84606  0.45138  1.0000
  H   H640      1.0  0.83295  0.86111  0.40100  1.0000
  H   H641      1.0  0.85224  0.82264  0.38918  1.0000
  H   H642      1.0  0.89309  0.81395  0.45716  1.0000
  H   H643      1.0  0.87480  0.85251  0.46860  1.0000
  C   C643      1.0  0.94478  0.83089  0.42145  1.0000
  H   H644      1.0  0.95797  0.78986  0.40718  1.0000
  C   C644      1.0  0.85865  0.84440  0.03802  1.0000
  C   C645      1.0  0.85903  0.82021  0.04190  1.0000
  C   C646      1.0  0.85224  0.81047  0.06398  1.0000
  C   C647      1.0  0.84504  0.82479  0.08252  1.0000
  C   C648      1.0  0.84307  0.84898  0.07835  1.0000
  C   C649      1.0  0.84996  0.85882  0.05613  1.0000
  H   H645      1.0  0.86525  0.80890  0.02788  1.0000
  H   H646      1.0  0.85269  0.79187  0.06659  1.0000
  S   S222      1.0  0.69957  0.69021  0.42769  1.0000
  S   S223      1.0  0.65738  0.68122  0.01236  1.0000
  H   H647      1.0  0.90614  0.83987  0.11556  1.0000
  H   H648      1.0  0.95083  0.83508  0.01995  1.0000
  H   H649      1.0  0.81456  0.72665  0.25793  1.0000
  C   C650      1.0  0.79888  0.74242  0.28932  1.0000
  H   H650      1.0  0.80386  0.89052  0.48373  1.0000
  C   C651      1.0  0.00739  0.77681  0.32183  1.0000
  H   H651      1.0  0.54967  0.69577  0.03856  1.0000
  Fe  Fe113     1.0  0.88024  0.95021  0.49619  1.0000
  H   H652      1.0  0.82273  0.68822  0.27740  1.0000
  C   C652      1.0  0.92193  0.81350  0.09269  1.0000
  H   H653      1.0  0.92966  0.69905  0.17774  1.0000
  S   S224      1.0  0.90156  0.92241  0.47513  1.0000
  C   C653      1.0  0.93848  0.85278  0.43042  1.0000
  C   C654      1.0  0.79774  0.71711  0.32371  1.0000
  H   H654      1.0  0.93248  0.74310  0.17697  1.0000
  H   H655      1.0  0.74039  0.73986  0.07400  1.0000
  H   H656      1.0  0.89282  0.98908  0.00970  1.0000
  C   C655      1.0  0.77944  0.67089  0.40327  1.0000
  H   H657      1.0  0.91863  0.81711  0.01867  1.0000
  C   C656      1.0  0.78103  0.72905  0.02672  1.0000
  C   C657      1.0  0.95870  0.84004  0.46786  1.0000
  C   C658      1.0  0.97451  0.75911  0.17207  1.0000
  H   H658      1.0  0.90887  0.87131  0.08482  1.0000
  C   C659      1.0  0.95595  0.74064  0.17826  1.0000
  H   H659      1.0  0.00582  0.69974  0.19284  1.0000
  H   H660      1.0  0.79265  0.76826  0.06080  1.0000
  H   H661      1.0  0.51613  0.67363  0.48405  1.0000
  H   H662      1.0  0.59899  0.71278  0.48757  1.0000
  H   H663      1.0  0.79359  0.71472  0.34234  1.0000
  C   C660      1.0  0.60887  0.72421  0.47371  1.0000
  H   H664      1.0  0.80314  0.73101  0.02032  1.0000
  C   C661      1.0  0.00104  0.73918  0.30456  1.0000
  H   H665      1.0  0.92422  0.86187  0.04465  1.0000
  C   C662      1.0  0.79418  0.85402  0.48752  1.0000
  H   H666      1.0  0.94962  0.77767  0.43541  1.0000
  C   C663      1.0  0.76019  0.71780  0.01274  1.0000
  N   N53       1.0  0.63879  0.73070  0.48053  1.0000
  N   N54       1.0  0.77381  0.73689  0.04843  1.0000
  H   H667      1.0  0.78617  0.75357  0.32359  1.0000
  H   H668      1.0  0.92710  0.86578  0.41961  1.0000
  C   C664      1.0  0.72469  0.72278  0.04317  1.0000
  H   H669      1.0  0.71581  0.70542  0.01071  1.0000
  N   N55       1.0  0.96717  0.71957  0.18543  1.0000
  H   H670      1.0  0.97333  0.71353  0.12636  1.0000
  H   H671      1.0  0.95335  0.80475  0.02811  1.0000
  H   H672      1.0  0.59523  0.74001  0.47099  1.0000
  C   C665      1.0  0.81330  0.67636  0.32236  1.0000
  C   C666      1.0  0.96815  0.96196  0.49305  1.0000
  H   H673      1.0  0.96545  0.76200  0.31276  1.0000
  H   H674      1.0  0.98676  0.72544  0.29842  1.0000
  N   N56       1.0  0.80763  0.69900  0.31080  1.0000
  H   H675      1.0  0.80729  0.67531  0.04515  1.0000
  H   H676      1.0  0.70791  0.73010  0.46001  1.0000
  H   H677      1.0  0.99817  0.79254  0.32885  1.0000
  H   H678      1.0  0.96386  0.84338  0.48616  1.0000
  H   H679      1.0  0.93626  0.70404  0.20842  1.0000
  S   S225      1.0  0.89428  0.98647  0.48338  1.0000
  C   C667      1.0  0.51754  0.69991  0.01066  1.0000
  C   C668      1.0  0.94546  0.85732  0.45380  1.0000
  N   N57       1.0  0.95775  0.81401  0.43540  1.0000
  C   C669      1.0  0.91427  0.83617  0.09820  1.0000
  C   C670      1.0  0.94706  0.70051  0.19148  1.0000
  C   C671      1.0  0.93913  0.82039  0.02877  1.0000
  C   C672      1.0  0.96468  0.81835  0.45833  1.0000
  N   N58       1.0  0.93197  0.82597  0.05303  1.0000
  H   H680      1.0  0.98691  0.78613  0.42865  1.0000
  C   C673      1.0  0.66122  0.72863  0.46500  1.0000
  H   H681      1.0  0.97452  0.80486  0.46949  1.0000
  C   C674      1.0  0.79560  0.74912  0.06273  1.0000
  C   C675      1.0  0.74843  0.68593  0.09191  1.0000
  C   C676      1.0  0.91582  0.85378  0.08097  1.0000
  H   H682      1.0  0.92039  0.79964  0.10583  1.0000
  H   H683      1.0  0.70303  0.71954  0.05013  1.0000
  C   C677      1.0  0.78964  0.87754  0.49163  1.0000
  C   C678      1.0  0.73192  0.71462  0.02112  1.0000
  C   C679      1.0  0.74055  0.67428  0.07127  1.0000
  H   H684      1.0  0.01426  0.87971  0.49379  1.0000
  C   C680      1.0  0.99680  0.71647  0.18741  1.0000
  H   H685      1.0  0.93806  0.82716  0.40358  1.0000
  H   H686      1.0  0.65717  0.72236  0.44741  1.0000
  C   C681      1.0  0.80920  0.72394  0.27633  1.0000
  C   C682      1.0  0.93066  0.80861  0.06988  1.0000
  H   H687      1.0  0.79367  0.74390  0.08159  1.0000
  C   C683      1.0  0.96350  0.79084  0.42620  1.0000
  C   C684      1.0  0.52656  0.69572  0.03396  1.0000
  S   S226      1.0  0.89541  0.92577  0.00366  1.0000
  H   H688      1.0  0.83556  0.67632  0.33047  1.0000
  H   H689      1.0  0.96548  0.77544  0.16537  1.0000
  S   S227      1.0  0.87238  0.85530  0.01108  1.0000
  C   C685      1.0  0.74599  0.73406  0.05663  1.0000
  H   H690      1.0  0.77922  0.81905  0.49480  1.0000
  C   C686      1.0  0.69009  0.73301  0.47205  1.0000
  H   H691      1.0  0.79729  0.67280  0.33659  1.0000
  C   C687      1.0  0.00473  0.75604  0.17374  1.0000
  C   C688      1.0  0.98903  0.75974  0.31272  1.0000
  C   C689      1.0  0.69581  0.74017  0.49491  1.0000
  C   C690      1.0  0.79089  0.67843  0.05825  1.0000
  S   S228      1.0  0.65424  0.67456  0.48018  1.0000
  C   C691      1.0  0.98953  0.95078  0.48007  1.0000
  H   H692      1.0  0.94535  0.95770  0.48999  1.0000
  H   H693      1.0  0.81207  0.84875  0.47644  1.0000
  S   S229      1.0  0.83625  0.93284  0.49381  1.0000
  C   C692      1.0  0.85145  0.00391  0.99912  1.0000
  Fe  Fe114     1.0  0.68809  0.83033  0.86778  1.0000
  S   S230      1.0  0.70171  0.80094  0.84462  1.0000
  S   S231      1.0  0.71288  0.84664  0.89853  1.0000
  Fe  Fe115     1.0  0.62352  0.82800  0.84999  1.0000
  S   S232      1.0  0.63267  0.79902  0.82555  1.0000
  S   S233      1.0  0.57888  0.84453  0.85473  1.0000
  Fe  Fe116     1.0  0.65945  0.78376  0.85574  1.0000
  S   S234      1.0  0.64924  0.74669  0.86756  1.0000
  Fe  Fe117     1.0  0.67363  0.81879  0.81641  1.0000
  S   S235      1.0  0.68565  0.82994  0.77889  1.0000
  S   S236      1.0  0.64774  0.81167  0.88051  1.0000
  S   S237      1.0  0.66264  0.84922  0.83916  1.0000
  Fe  Fe118     1.0  0.85835  0.90685  0.94443  1.0000
  H   H694      1.0  0.97045  0.92478  0.54107  1.0000
  S   S238      1.0  0.83894  0.89355  0.91007  1.0000
  Fe  Fe119     1.0  0.91646  0.92347  0.96827  1.0000
  S   S239      1.0  0.96239  0.93807  0.96294  1.0000
  C   C693      1.0  0.00466  0.98320  0.51345  1.0000
  C   C694      1.0  0.64409  0.73864  0.50265  1.0000
  S   S240      1.0  0.89732  0.88853  0.96061  1.0000
  S   S241      1.0  0.87993  0.94176  0.94847  1.0000
  Fe  Fe120     1.0  0.66752  0.78962  0.64770  1.0000
  S   S242      1.0  0.67021  0.82758  0.63774  1.0000
  S   S243      1.0  0.67583  0.77370  0.68410  1.0000
  Fe  Fe121     1.0  0.64683  0.77588  0.59815  1.0000
  S   S244      1.0  0.64704  0.81306  0.58497  1.0000
  S   S245      1.0  0.62821  0.74901  0.57351  1.0000
  Fe  Fe122     1.0  0.69056  0.81584  0.60388  1.0000
  S   S246      1.0  0.73293  0.82476  0.58434  1.0000
  Fe  Fe123     1.0  0.62660  0.82112  0.61966  1.0000
  S   S247      1.0  0.58622  0.84265  0.62718  1.0000
  S   S248      1.0  0.69098  0.77794  0.61547  1.0000
  S   S249      1.0  0.62333  0.78384  0.63137  1.0000
  Fe  Fe124     1.0  0.84928  0.91358  0.52735  1.0000
  N   N59       1.0  0.97588  0.97763  0.50977  1.0000
  S   S250      1.0  0.81370  0.91140  0.55531  1.0000
  C   C695      1.0  0.54824  0.75187  0.88922  1.0000
  H   H695      1.0  0.80884  0.82025  0.90325  1.0000
  H   H696      1.0  0.60823  0.81040  0.92378  1.0000
  H   H697      1.0  0.57234  0.82158  0.92885  1.0000
  S   S251      1.0  0.89237  0.93319  0.53100  1.0000
  H   H698      1.0  0.53852  0.73628  0.88207  1.0000
  H   H699      1.0  0.76771  0.82250  0.96986  1.0000
  C   C696      1.0  0.53077  0.77098  0.89419  1.0000
  C   C697      1.0  0.98899  0.90120  0.51653  1.0000
  C   C698      1.0  0.72338  0.87538  0.52946  1.0000
  C   C699      1.0  0.78637  0.82610  0.95880  1.0000
  C   C700      1.0  0.95308  0.98920  0.52309  1.0000
  H   H700      1.0  0.73837  0.83171  0.51975  1.0000
  C   C701      1.0  0.76666  0.88423  0.50594  1.0000
  C   C702      1.0  0.64722  0.72369  0.56570  1.0000
  C   C703      1.0  0.67649  0.71988  0.57215  1.0000
  C   C704      1.0  0.69139  0.70029  0.56387  1.0000
  C   C705      1.0  0.67723  0.68472  0.54882  1.0000
  C   C706      1.0  0.64790  0.68844  0.54266  1.0000
  C   C707      1.0  0.63290  0.70768  0.55129  1.0000
  H   H701      1.0  0.68770  0.73211  0.58328  1.0000
  H   H702      1.0  0.71405  0.69744  0.56879  1.0000
  H   H703      1.0  0.67677  0.74890  0.52808  1.0000
  H   H704      1.0  0.61017  0.71033  0.54648  1.0000
  C   C708      1.0  0.55192  0.83094  0.61857  1.0000
  C   C709      1.0  0.55007  0.81382  0.60157  1.0000
  H   H705      1.0  0.76376  0.90258  0.50940  1.0000
  H   H706      1.0  0.56985  0.80708  0.59399  1.0000
  C   C710      1.0  0.81068  0.83754  0.96833  1.0000
  C   C711      1.0  0.75636  0.84889  0.57843  1.0000
  C   C712      1.0  0.75052  0.87129  0.58625  1.0000
  C   C713      1.0  0.76873  0.89011  0.57947  1.0000
  C   C714      1.0  0.79275  0.88682  0.56464  1.0000
  C   C715      1.0  0.79891  0.86433  0.55726  1.0000
  C   C716      1.0  0.78094  0.84549  0.56428  1.0000
  H   H707      1.0  0.73174  0.87423  0.59716  1.0000
  H   H708      1.0  0.76390  0.90743  0.58541  1.0000
  H   H709      1.0  0.81745  0.86146  0.54607  1.0000
  H   H710      1.0  0.78586  0.82821  0.55830  1.0000
  C   C717      1.0  0.99518  0.92205  0.96767  1.0000
  H   H711      1.0  0.61422  0.77424  0.90440  1.0000
  C   C718      1.0  0.99496  0.89849  0.97450  1.0000
  C   C719      1.0  0.89133  0.00400  0.94723  1.0000
  H   H712      1.0  0.76090  0.85462  0.86522  1.0000
  C   C720      1.0  0.66393  0.73486  0.89415  1.0000
  C   C721      1.0  0.65320  0.71346  0.90290  1.0000
  C   C722      1.0  0.66484  0.70327  0.92372  1.0000
  C   C723      1.0  0.68767  0.71424  0.93575  1.0000
  C   C724      1.0  0.69820  0.73576  0.92712  1.0000
  C   C725      1.0  0.68619  0.74617  0.90652  1.0000
  H   H713      1.0  0.63611  0.70454  0.89336  1.0000
  C   C726      1.0  0.76051  0.80747  0.92626  1.0000
  H   H714      1.0  0.71588  0.74432  0.93630  1.0000
  H   H715      1.0  0.69464  0.76263  0.89992  1.0000
  C   C727      1.0  0.54587  0.82871  0.85198  1.0000
  C   C728      1.0  0.54560  0.80568  0.84461  1.0000
  H   H716      1.0  0.59237  0.73854  0.88879  1.0000
  H   H717      1.0  0.56588  0.79732  0.84009  1.0000
  C   C729      1.0  0.54384  0.79124  0.90262  1.0000
  C   C730      1.0  0.67693  0.78972  0.71027  1.0000
  C   C731      1.0  0.67675  0.77765  0.73205  1.0000
  C   C732      1.0  0.67870  0.78972  0.75328  1.0000
  C   C733      1.0  0.68159  0.81394  0.75287  1.0000
  C   C734      1.0  0.68177  0.82601  0.73108  1.0000
  C   C735      1.0  0.67908  0.81401  0.70987  1.0000
  H   H718      1.0  0.67522  0.75884  0.73251  1.0000
  H   H719      1.0  0.67870  0.78023  0.76995  1.0000
  H   H720      1.0  0.68402  0.84477  0.73063  1.0000
  H   H721      1.0  0.67935  0.82349  0.69324  1.0000
  C   C736      1.0  0.74720  0.86114  0.90048  1.0000
  C   C737      1.0  0.75549  0.87087  0.92203  1.0000
  C   C738      1.0  0.78318  0.88127  0.92508  1.0000
  C   C739      1.0  0.80302  0.88207  0.90657  1.0000
  C   C740      1.0  0.79466  0.87251  0.88494  1.0000
  C   C741      1.0  0.76693  0.86206  0.88189  1.0000
  H   H722      1.0  0.74040  0.87028  0.93652  1.0000
  H   H723      1.0  0.78922  0.88855  0.94180  1.0000
  H   H724      1.0  0.80982  0.87305  0.87049  1.0000
  N   N60       1.0  0.75209  0.81328  0.66815  1.0000
  C   C742      1.0  0.74739  0.79093  0.67611  1.0000
  C   C743      1.0  0.75592  0.83085  0.68372  1.0000
  C   C744      1.0  0.74648  0.78573  0.70023  1.0000
  C   C745      1.0  0.75481  0.82630  0.70797  1.0000
  C   C746      1.0  0.75007  0.80357  0.71623  1.0000
  C   C747      1.0  0.75372  0.81858  0.64287  1.0000
  H   H725      1.0  0.74356  0.77701  0.66387  1.0000
  H   H726      1.0  0.75960  0.84857  0.67739  1.0000
  H   H727      1.0  0.74164  0.76814  0.70642  1.0000
  H   H728      1.0  0.75713  0.84032  0.72033  1.0000
  H   H729      1.0  0.74825  0.79990  0.73497  1.0000
  H   H730      1.0  0.74683  0.80358  0.63210  1.0000
  H   H731      1.0  0.73910  0.83337  0.63786  1.0000
  H   H732      1.0  0.77647  0.82322  0.63796  1.0000
  C   C748      1.0  0.59068  0.77349  0.90179  1.0000
  N   N61       1.0  0.60861  0.82705  0.73455  1.0000
  C   C749      1.0  0.60465  0.84464  0.71818  1.0000
  C   C750      1.0  0.60885  0.80432  0.72783  1.0000
  C   C751      1.0  0.60108  0.83968  0.69433  1.0000
  C   C752      1.0  0.60556  0.79877  0.70412  1.0000
  C   C753      1.0  0.60156  0.81659  0.68734  1.0000
  C   C754      1.0  0.61172  0.83275  0.75946  1.0000
  H   H733      1.0  0.60439  0.86264  0.72351  1.0000
  H   H734      1.0  0.61242  0.79036  0.74070  1.0000
  H   H735      1.0  0.59807  0.85356  0.68123  1.0000
  H   H736      1.0  0.60689  0.78080  0.69869  1.0000
  H   H737      1.0  0.59897  0.81257  0.66890  1.0000
  H   H738      1.0  0.62080  0.81791  0.77013  1.0000
  H   H739      1.0  0.62735  0.84743  0.76170  1.0000
  H   H740      1.0  0.59023  0.83758  0.76675  1.0000
  H   H741      1.0  0.76586  0.71117  0.99568  1.0000
  S   S252      1.0  0.70431  0.70129  0.96108  1.0000
  C   C755      1.0  0.52598  0.83947  0.62824  1.0000
  H   H742      1.0  0.96116  0.99417  0.54076  1.0000
  N   N62       1.0  0.57336  0.79213  0.90673  1.0000
  H   H743      1.0  0.72930  0.89069  0.54014  1.0000
  N   N63       1.0  0.74842  0.86787  0.51571  1.0000
  Fe  Fe125     1.0  0.91123  0.90444  0.50960  1.0000
  Fe  Fe126     1.0  0.85815  0.94299  0.98348  1.0000
  H   H744      1.0  0.92583  0.97884  0.95367  1.0000
  H   H745      1.0  0.81101  0.84281  0.98654  1.0000
  C   C756      1.0  0.83403  0.83604  0.93065  1.0000
  Fe  Fe127     1.0  0.87323  0.89178  0.99468  1.0000
  C   C757      1.0  0.67265  0.74337  0.51023  1.0000
  N   N64       1.0  0.78591  0.81995  0.93570  1.0000
  H   H746      1.0  0.85327  0.85177  0.96114  1.0000
  H   H747      1.0  0.70484  0.88008  0.51754  1.0000
  C   C758      1.0  0.83456  0.84253  0.95409  1.0000
  H   H748      1.0  0.58919  0.82639  0.90069  1.0000
  H   H749      1.0  0.63661  0.67633  0.53144  1.0000
  H   H750      1.0  0.53030  0.80641  0.90538  1.0000
  H   H751      1.0  0.51940  0.85720  0.86349  1.0000
  H   H752      1.0  0.71617  0.86142  0.54200  1.0000
  H   H753      1.0  0.62628  0.74075  0.51485  1.0000
  H   H754      1.0  0.93397  0.97748  0.52586  1.0000
  H   H755      1.0  0.76222  0.78858  0.93058  1.0000
  C   C759      1.0  0.51934  0.83933  0.85785  1.0000
  H   H756      1.0  0.75859  0.80991  0.90684  1.0000
  H   H757      1.0  0.97431  0.88958  0.97688  1.0000
  C   C760      1.0  0.58644  0.81363  0.91548  1.0000
  H   H758      1.0  0.85208  0.84073  0.91925  1.0000
  H   H759      1.0  0.65669  0.68664  0.93013  1.0000
  H   H760      1.0  0.52722  0.85268  0.64145  1.0000
  C   C761      1.0  0.75257  0.84471  0.51170  1.0000
  H   H761      1.0  0.73985  0.81439  0.93347  1.0000
  H   H762      1.0  0.01089  0.99552  0.52676  1.0000
  S   S253      1.0  0.83489  0.97727  0.99093  1.0000
  C   C762      1.0  0.80940  0.82462  0.92168  1.0000
  C   C763      1.0  0.57839  0.75311  0.89298  1.0000
  S   S254      1.0  0.83372  0.90903  0.97803  1.0000
  S   S255      1.0  0.86944  0.88332  0.50915  1.0000
  S   S256      1.0  0.95576  0.88693  0.50958  1.0000
  C   C764      1.0  0.99023  0.91916  0.53267  1.0000
  Fe  Fe128     1.0  0.68320  0.67106  0.98105  1.0000
  H   H763      1.0  0.71816  0.74299  0.50082  1.0000
  C   C765      1.0  0.91927  0.99695  0.95468  1.0000
  H   H764      1.0  0.87620  0.99116  0.94049  1.0000
  H   H765      1.0  0.85519  0.00203  0.52054  1.0000
  H   H766      1.0  0.51919  0.77536  0.83815  1.0000
  C   C766      1.0  0.51907  0.79331  0.84347  1.0000
  C   C767      1.0  0.52260  0.80575  0.59386  1.0000
  H   H767      1.0  0.52154  0.79284  0.58033  1.0000
  C   C768      1.0  0.77566  0.83742  0.49771  1.0000
  H   H768      1.0  0.53408  0.70314  0.99747  1.0000
