data_image0
_chemical_formula_structural       HCFeH2CHCH2C2HCSH4FeHCHSCHSCHC3H4SCH3CNSHSCS2H4CN2FeHC2HFeCHC5HC3H2CH2C2H2CHCSCHCHSH2SCHC3H2C2HCFeHSHSFeCS2FeC2HCHCSC2HFeHSH2NCSCHCNCHSHCH3CHNC3HCH2CSHCHCHC2HFeCH2FeC5HFeCHNCH2CH3FeSC5H3FeCHC2HNHS2H2SH3CSHSCHC3SC2H2CHC2SCSH2FeSCSC4HSC2HCH2SNSCHCFe2SC5HC3HC3FeH2SHCHCHSFeCH2CH2FeSH4CH2SHCHCHSH3SCHCHC2NCHCSC4HFeH3CH3CH2C3H2CH2CSHC2SNHC5HC2NH2CH2FeHSC2FeC2FeSH3NHS2H2CHC2HCSHCS2HSHC2H3SCHCH2C2HC2HC2HCFeCSH3C2HC2NSCH2CSC3NC2HFeH2CHCNH2C3NSH6SCFeSFeCSCFeCH3CHC2HNHCNHC2SH3C2H4C2H2FeHC2HS2NH2C5HCFeC2HS2CHCHC2FeSCH2CHCSH2C2SC2HCSFeHSHFeCH2C2H2C2SHCH3SFeHCS2CSHCSC2H4C2SC2FeSHC2HFeHFeSHCH3FeCH4CNCH2SCNH2CSCHSC2HC3HFeH2SHSCHCSCSFeHSCHC2H2CH3CHC3HSHSCFeCH2CHC2H3C2HNC2NCFeHSFeCHFeHSC3H2SH2NCSHCHCNCH3CH2SCFeHC2SH2FeNCHCS2H3C2FeCH2C2FeSH2FeS2H2C2H2C3NHFeSH2CSCH3CH3CH2NSCH3SHCFeH3CSC2FeHC3H2CHSC2FeHSHC3HS2H2CFeCH2C7H4SH2C2HCH2CHSH2SC3H3SHCH4CHSNC3HCFeHC2HCH2C2Fe2CHSHCHC2SCNCH2C3HC2S2CSNCSCSC4SH2C2HCNH2FeHCH3CH5SH3SFeCH3C2NSCHCHC2HFeCFeC2HSH2SC3FeCH3CHCHFeHC3HC3HFe2CHC2H2NCHCSCHCFeSFeCSC2SH2SH2FeSCHCHCHSH2CH3C2HSC4H2C2HCNCHC2HCFeC2HFeH3C2FeC2HSH3S2CHC4FeC3SHC2FeSHSC3SHC2HFeSHFeSC4HFeHCHC2SH3NHSH3CHSH3NC3H2C3NC2HCHSCH3CHSCHC3SHC2HFeSHSNSCHCH2SC3HC2HCHS2HSCSCHFeCH2FeSH5C2HC2HC2HCHCHCH2C3HSFeC
_chemical_formula_sum              "H480 C480 Fe80 S160 N40"
_cell_length_a       30.3227
_cell_length_b       25.2144
_cell_length_c       24.6428
_cell_angle_alpha    84.8526
_cell_angle_beta     107.251
_cell_angle_gamma    87.3561

_space_group_name_H-M_alt    "P 1"
_space_group_IT_number       1

loop_
  _space_group_symop_operation_xyz
  'x, y, z'

loop_
  _atom_site_type_symbol
  _atom_site_label
  _atom_site_symmetry_multiplicity
  _atom_site_fract_x
  _atom_site_fract_y
  _atom_site_fract_z
  _atom_site_occupancy
  H   H1        1.0  0.52558  0.68606  0.86249  1.0000
  C   C1        1.0  0.41023  0.53255  0.77966  1.0000
  Fe  Fe1       1.0  0.48378  0.43089  0.88295  1.0000
  H   H2        1.0  0.76392  0.40840  0.88490  1.0000
  H   H3        1.0  0.56811  0.24469  0.80285  1.0000
  C   C2        1.0  0.61110  0.69246  0.78306  1.0000
  H   H4        1.0  0.73633  0.34420  0.78870  1.0000
  C   C3        1.0  0.40310  0.26426  0.97122  1.0000
  H   H5        1.0  0.42673  0.49655  0.77185  1.0000
  H   H6        1.0  0.47632  0.65531  0.77441  1.0000
  C   C4        1.0  0.42579  0.55258  0.83271  1.0000
  C   C5        1.0  0.54903  0.50483  0.79844  1.0000
  H   H7        1.0  0.80188  0.57768  0.82450  1.0000
  C   C6        1.0  0.36330  0.68763  0.95180  1.0000
  S   S1        1.0  0.57291  0.64276  0.78553  1.0000
  H   H8        1.0  0.37795  0.61055  0.00167  1.0000
  H   H9        1.0  0.43137  0.20276  0.84101  1.0000
  H   H10       1.0  0.55542  0.56696  0.88034  1.0000
  H   H11       1.0  0.72194  0.44207  0.94879  1.0000
  Fe  Fe2       1.0  0.52060  0.34805  0.82126  1.0000
  H   H12       1.0  0.66688  0.65153  0.85200  1.0000
  C   C7        1.0  0.66788  0.32860  0.91841  1.0000
  H   H13       1.0  0.58598  0.50656  0.92211  1.0000
  S   S2        1.0  0.46947  0.36839  0.94437  1.0000
  C   C8        1.0  0.34328  0.44523  0.83280  1.0000
  H   H14       1.0  0.68333  0.27362  0.86394  1.0000
  S   S3        1.0  0.36965  0.29672  0.85655  1.0000
  C   C9        1.0  0.36392  0.27988  0.92440  1.0000
  H   H15       1.0  0.37044  0.42293  0.86746  1.0000
  C   C10       1.0  0.33707  0.51173  0.89743  1.0000
  C   C11       1.0  0.67892  0.37595  0.94280  1.0000
  C   C12       1.0  0.39174  0.64750  0.99103  1.0000
  H   H16       1.0  0.71701  0.68609  0.94540  1.0000
  H   H17       1.0  0.51588  0.51282  0.80544  1.0000
  H   H18       1.0  0.43708  0.26117  0.96546  1.0000
  H   H19       1.0  0.32701  0.68267  0.93419  1.0000
  S   S4        1.0  0.50815  0.27815  0.87679  1.0000
  C   C13       1.0  0.63343  0.48306  0.77960  1.0000
  H   H20       1.0  0.66251  0.51567  0.85911  1.0000
  H   H21       1.0  0.48065  0.67337  0.89539  1.0000
  H   H22       1.0  0.74621  0.27778  0.82627  1.0000
  C   C14       1.0  0.45372  0.69104  0.76990  1.0000
  N   N1        1.0  0.75430  0.63403  0.76173  1.0000
  S   S5        1.0  0.45076  0.38977  0.80639  1.0000
  H   H23       1.0  0.41759  0.61716  0.88133  1.0000
  S   S6        1.0  0.46976  0.51785  0.89010  1.0000
  C   C15       1.0  0.78583  0.61908  0.81961  1.0000
  S   S7        1.0  0.55457  0.39356  0.89428  1.0000
  S   S8        1.0  0.56887  0.61611  0.99894  1.0000
  H   H24       1.0  0.35462  0.66642  0.80277  1.0000
  H   H25       1.0  0.76692  0.62246  0.85159  1.0000
  H   H26       1.0  0.61711  0.56264  0.90676  1.0000
  H   H27       1.0  0.81494  0.64551  0.82983  1.0000
  C   C16       1.0  0.63091  0.50623  0.82832  1.0000
  N   N2        1.0  0.72568  0.33945  0.87015  1.0000
  N   N3        1.0  0.58900  0.51704  0.83698  1.0000
  Fe  Fe3       1.0  0.53760  0.32682  0.94918  1.0000
  H   H28       1.0  0.64201  0.30490  0.92910  1.0000
  C   C17       1.0  0.75017  0.32084  0.83139  1.0000
  C   C18       1.0  0.58693  0.53922  0.88924  1.0000
  H   H29       1.0  0.78797  0.32533  0.84861  1.0000
  Fe  Fe4       1.0  0.44067  0.32451  0.86815  1.0000
  C   C19       1.0  0.36870  0.62809  0.79685  1.0000
  H   H30       1.0  0.66648  0.47437  0.77241  1.0000
  C   C20       1.0  0.59478  0.25288  0.78297  1.0000
  C   C21       1.0  0.65623  0.68612  0.82055  1.0000
  C   C22       1.0  0.62656  0.21169  0.78096  1.0000
  C   C23       1.0  0.40552  0.60100  0.84073  1.0000
  C   C24       1.0  0.71290  0.40545  0.92961  1.0000
  H   H31       1.0  0.66160  0.38926  0.97253  1.0000
  C   C25       1.0  0.69153  0.31101  0.88168  1.0000
  C   C26       1.0  0.73629  0.38635  0.89323  1.0000
  C   C27       1.0  0.79790  0.28875  0.00184  1.0000
  H   H32       1.0  0.37532  0.50559  0.91668  1.0000
  H   H33       1.0  0.34751  0.38949  0.77243  1.0000
  C   C28       1.0  0.33036  0.42594  0.77922  1.0000
  H   H34       1.0  0.32806  0.55538  0.89456  1.0000
  H   H35       1.0  0.74049  0.28261  0.11338  1.0000
  C   C29       1.0  0.50880  0.39194  0.08426  1.0000
  C   C30       1.0  0.80085  0.33507  0.02956  1.0000
  H   H36       1.0  0.73339  0.66250  0.18379  1.0000
  H   H37       1.0  0.40014  0.42688  0.08753  1.0000
  C   C31       1.0  0.71558  0.47819  0.09143  1.0000
  H   H38       1.0  0.40009  0.68973  0.10290  1.0000
  C   C32       1.0  0.57227  0.25634  0.07944  1.0000
  S   S9        1.0  0.59368  0.40179  0.20296  1.0000
  C   C33       1.0  0.71198  0.25773  0.11677  1.0000
  H   H39       1.0  0.68851  0.52105  0.14785  1.0000
  C   C34       1.0  0.79834  0.45681  0.12559  1.0000
  H   H40       1.0  0.76449  0.53476  0.21356  1.0000
  S   S10       1.0  0.59203  0.29773  0.03189  1.0000
  H   H41       1.0  0.61462  0.28885  0.15363  1.0000
  H   H42       1.0  0.52583  0.21669  0.01421  1.0000
  S   S11       1.0  0.66434  0.48705  0.03347  1.0000
  C   C35       1.0  0.73056  0.68662  0.21678  1.0000
  H   H43       1.0  0.76955  0.65168  0.04132  1.0000
  C   C36       1.0  0.48375  0.47967  0.03838  1.0000
  C   C37       1.0  0.72369  0.35874  0.20295  1.0000
  C   C38       1.0  0.59034  0.25949  0.13823  1.0000
  H   H44       1.0  0.58965  0.22931  0.22254  1.0000
  H   H45       1.0  0.68766  0.28232  0.13193  1.0000
  C   C39       1.0  0.35458  0.25643  0.03357  1.0000
  C   C40       1.0  0.35007  0.64123  0.12395  1.0000
  H   H46       1.0  0.56780  0.40821  0.02065  1.0000
  C   C41       1.0  0.36394  0.68782  0.10058  1.0000
  Fe  Fe5       1.0  0.64148  0.61433  0.15834  1.0000
  H   H47       1.0  0.49006  0.51623  0.01606  1.0000
  S   S12       1.0  0.34912  0.24655  0.10243  1.0000
  H   H48       1.0  0.37496  0.60720  0.14278  1.0000
  S   S13       1.0  0.32871  0.52019  0.06114  1.0000
  Fe  Fe6       1.0  0.62766  0.55863  0.05274  1.0000
  C   C42       1.0  0.65083  0.37347  0.22363  1.0000
  S   S14       1.0  0.59820  0.54811  0.12587  1.0000
  S   S15       1.0  0.47061  0.60765  0.07210  1.0000
  Fe  Fe7       1.0  0.54447  0.61167  0.07646  1.0000
  C   C43       1.0  0.53975  0.21946  0.05960  1.0000
  C   C44       1.0  0.80194  0.48870  0.16984  1.0000
  H   H49       1.0  0.49786  0.65218  0.17780  1.0000
  C   C45       1.0  0.76206  0.50988  0.17937  1.0000
  H   H50       1.0  0.42872  0.24024  0.06200  1.0000
  C   C46       1.0  0.67828  0.38227  0.18745  1.0000
  S   S16       1.0  0.68230  0.60793  0.25098  1.0000
  C   C47       1.0  0.75522  0.45218  0.08568  1.0000
  C   C48       1.0  0.43791  0.65537  0.01776  1.0000
  H   H51       1.0  0.56235  0.47947  0.01795  1.0000
  Fe  Fe8       1.0  0.61181  0.67984  0.04059  1.0000
  H   H52       1.0  0.77847  0.34223  0.05546  1.0000
  S   S17       1.0  0.58453  0.67756  0.11571  1.0000
  H   H53       1.0  0.74453  0.36552  0.17451  1.0000
  H   H54       1.0  0.69252  0.24790  0.07347  1.0000
  N   N4        1.0  0.51677  0.43776  0.05566  1.0000
  C   C49       1.0  0.46664  0.38701  0.09588  1.0000
  S   S18       1.0  0.67293  0.62349  0.08683  1.0000
  C   C50       1.0  0.71883  0.50345  0.14077  1.0000
  H   H55       1.0  0.53542  0.35920  0.09872  1.0000
  C   C51       1.0  0.52361  0.67224  0.20783  1.0000
  N   N5        1.0  0.55805  0.64320  0.25049  1.0000
  C   C52       1.0  0.44139  0.47632  0.04962  1.0000
  H   H56       1.0  0.52791  0.56913  0.23120  1.0000
  S   S19       1.0  0.35267  0.38436  0.16895  1.0000
  H   H57       1.0  0.58873  0.57005  0.23768  1.0000
  C   C53       1.0  0.43279  0.42964  0.07838  1.0000
  H   H58       1.0  0.75312  0.43209  0.04840  1.0000
  H   H59       1.0  0.66436  0.40698  0.14716  1.0000
  H   H60       1.0  0.46057  0.35065  0.11883  1.0000
  C   C54       1.0  0.56120  0.44164  0.04406  1.0000
  H   H61       1.0  0.58964  0.43949  0.08490  1.0000
  N   N6        1.0  0.73050  0.20855  0.15482  1.0000
  C   C55       1.0  0.75678  0.69346  0.03218  1.0000
  C   C56       1.0  0.74139  0.32531  0.25407  1.0000
  C   C57       1.0  0.39835  0.25184  0.02572  1.0000
  H   H62       1.0  0.37930  0.22982  0.22959  1.0000
  C   C58       1.0  0.57594  0.22605  0.17722  1.0000
  H   H63       1.0  0.41583  0.51022  0.03695  1.0000
  H   H64       1.0  0.68510  0.21841  0.20540  1.0000
  C   C59       1.0  0.56112  0.58468  0.25499  1.0000
  S   S20       1.0  0.75643  0.24398  0.00746  1.0000
  H   H65       1.0  0.61439  0.22814  0.40876  1.0000
  C   C60       1.0  0.75266  0.38037  0.41462  1.0000
  H   H66       1.0  0.51520  0.25640  0.40909  1.0000
  C   C61       1.0  0.70950  0.66755  0.25744  1.0000
  H   H67       1.0  0.37920  0.34751  0.42405  1.0000
  C   C62       1.0  0.44127  0.25115  0.38400  1.0000
  C   C63       1.0  0.70452  0.44938  0.34538  1.0000
  H   H68       1.0  0.37357  0.44295  0.37718  1.0000
  Fe  Fe9       1.0  0.50912  0.45939  0.33407  1.0000
  C   C64       1.0  0.53514  0.55540  0.43003  1.0000
  H   H69       1.0  0.72872  0.29514  0.33209  1.0000
  H   H70       1.0  0.68367  0.40684  0.41277  1.0000
  Fe  Fe10      1.0  0.55974  0.39206  0.27213  1.0000
  C   C65       1.0  0.37474  0.61444  0.41554  1.0000
  C   C66       1.0  0.74038  0.54070  0.45497  1.0000
  C   C67       1.0  0.70573  0.58058  0.42582  1.0000
  C   C68       1.0  0.51432  0.63537  0.36280  1.0000
  C   C69       1.0  0.48630  0.24185  0.42162  1.0000
  H   H71       1.0  0.70200  0.59525  0.38181  1.0000
  Fe  Fe11      1.0  0.80802  0.22496  0.34082  1.0000
  C   C70       1.0  0.71107  0.41212  0.39314  1.0000
  H   H72       1.0  0.67198  0.47344  0.32703  1.0000
  N   N7        1.0  0.37055  0.52666  0.38455  1.0000
  C   C71       1.0  0.41158  0.20568  0.45531  1.0000
  H   H73       1.0  0.42869  0.46931  0.40541  1.0000
  H   H74       1.0  0.52874  0.20569  0.50442  1.0000
  C   C72       1.0  0.39370  0.47811  0.37394  1.0000
  H   H75       1.0  0.80299  0.41686  0.26832  1.0000
  H   H76       1.0  0.76350  0.52517  0.43298  1.0000
  H   H77       1.0  0.69131  0.68384  0.33266  1.0000
  Fe  Fe12      1.0  0.48710  0.34400  0.32204  1.0000
  S   S21       1.0  0.56002  0.31731  0.32845  1.0000
  C   C73       1.0  0.35168  0.34782  0.44394  1.0000
  C   C74       1.0  0.49395  0.21339  0.47559  1.0000
  C   C75       1.0  0.55794  0.64128  0.46136  1.0000
  C   C76       1.0  0.51237  0.58044  0.37527  1.0000
  C   C77       1.0  0.78726  0.38645  0.38794  1.0000
  H   H78       1.0  0.43382  0.56257  0.41859  1.0000
  H   H79       1.0  0.73377  0.48239  0.28175  1.0000
  H   H80       1.0  0.36945  0.23870  0.37130  1.0000
  Fe  Fe13      1.0  0.57987  0.36831  0.40051  1.0000
  C   C78       1.0  0.71446  0.31798  0.29105  1.0000
  H   H81       1.0  0.56939  0.56761  0.30028  1.0000
  C   C79       1.0  0.35334  0.37886  0.48852  1.0000
  C   C80       1.0  0.67684  0.60222  0.45433  1.0000
  H   H82       1.0  0.39738  0.48315  0.33024  1.0000
  N   N8        1.0  0.78048  0.42311  0.34115  1.0000
  H   H83       1.0  0.53349  0.51295  0.43983  1.0000
  S   S22       1.0  0.58435  0.44151  0.34447  1.0000
  S   S23       1.0  0.47916  0.54403  0.32306  1.0000
  H   H84       1.0  0.65003  0.63357  0.43267  1.0000
  H   H85       1.0  0.64857  0.33572  0.30453  1.0000
  S   S24       1.0  0.43093  0.28808  0.31721  1.0000
  H   H86       1.0  0.75747  0.35023  0.45076  1.0000
  H   H87       1.0  0.61886  0.64542  0.32069  1.0000
  H   H88       1.0  0.49666  0.65466  0.32036  1.0000
  C   C81       1.0  0.39631  0.56707  0.40688  1.0000
  S   S25       1.0  0.63739  0.32944  0.47547  1.0000
  H   H89       1.0  0.39527  0.64550  0.43523  1.0000
  S   S26       1.0  0.50675  0.39080  0.39776  1.0000
  C   C82       1.0  0.73972  0.45423  0.31969  1.0000
  H   H90       1.0  0.81909  0.36082  0.40414  1.0000
  C   C83       1.0  0.66920  0.34182  0.27583  1.0000
  C   C84       1.0  0.55704  0.58609  0.47345  1.0000
  C   C85       1.0  0.53838  0.66557  0.40555  1.0000
  S   S27       1.0  0.79686  0.29244  0.27087  1.0000
  C   C86       1.0  0.59121  0.66846  0.28756  1.0000
  C   C87       1.0  0.40409  0.23195  0.40042  1.0000
  H   H91       1.0  0.61136  0.43688  0.49543  1.0000
  H   H92       1.0  0.81181  0.67618  0.31281  1.0000
  C   C88       1.0  0.32655  0.62078  0.40018  1.0000
  H   H93       1.0  0.38214  0.40317  0.50382  1.0000
  C   C89       1.0  0.70689  0.69835  0.30075  1.0000
  C   C90       1.0  0.81624  0.42842  0.31239  1.0000
  S   S28       1.0  0.48444  0.41416  0.25805  1.0000
  C   C91       1.0  0.32324  0.53241  0.36958  1.0000
  S   S29       1.0  0.76680  0.22024  0.52231  1.0000
  H   H94       1.0  0.76409  0.24134  0.68675  1.0000
  H   H95       1.0  0.47358  0.35014  0.58986  1.0000
  Fe  Fe14      1.0  0.50268  0.54315  0.61537  1.0000
  S   S30       1.0  0.71815  0.46288  0.68272  1.0000
  C   C92       1.0  0.72715  0.59700  0.73385  1.0000
  S   S31       1.0  0.57513  0.68056  0.51763  1.0000
  C   C93       1.0  0.69081  0.66373  0.65442  1.0000
  C   C94       1.0  0.39073  0.36801  0.65494  1.0000
  C   C95       1.0  0.59276  0.47059  0.74016  1.0000
  C   C96       1.0  0.33409  0.62536  0.53951  1.0000
  H   H96       1.0  0.51846  0.27398  0.65171  1.0000
  S   S32       1.0  0.49892  0.45780  0.59678  1.0000
  C   C97       1.0  0.69340  0.42532  0.62611  1.0000
  C   C98       1.0  0.79752  0.22670  0.71915  1.0000
  H   H97       1.0  0.41953  0.29967  0.62699  1.0000
  C   C99       1.0  0.35403  0.57315  0.54524  1.0000
  H   H98       1.0  0.34242  0.49177  0.52878  1.0000
  H   H99       1.0  0.72409  0.53178  0.58432  1.0000
  S   S33       1.0  0.78993  0.66946  0.54713  1.0000
  N   N9        1.0  0.57124  0.27224  0.61046  1.0000
  S   S34       1.0  0.46922  0.58338  0.67236  1.0000
  C   C100      1.0  0.42541  0.45092  0.64097  1.0000
  H   H100      1.0  0.62451  0.25913  0.57179  1.0000
  C   C101      1.0  0.60360  0.24131  0.59635  1.0000
  Fe  Fe15      1.0  0.53303  0.62836  0.69643  1.0000
  Fe  Fe16      1.0  0.79481  0.44024  0.71835  1.0000
  S   S35       1.0  0.56919  0.58246  0.64610  1.0000
  C   C102      1.0  0.56506  0.32975  0.59236  1.0000
  C   C103      1.0  0.54430  0.24968  0.64067  1.0000
  C   C104      1.0  0.69516  0.61117  0.67976  1.0000
  C   C105      1.0  0.45581  0.42452  0.61742  1.0000
  C   C106      1.0  0.63972  0.41935  0.53170  1.0000
  H   H101      1.0  0.66561  0.67565  0.61289  1.0000
  C   C107      1.0  0.37268  0.55916  0.73613  1.0000
  C   C108      1.0  0.71166  0.37332  0.62670  1.0000
  C   C109      1.0  0.66134  0.27269  0.72686  1.0000
  H   H102      1.0  0.59838  0.34578  0.59226  1.0000
  C   C110      1.0  0.71861  0.54476  0.53952  1.0000
  C   C111      1.0  0.78280  0.48135  0.54121  1.0000
  C   C112      1.0  0.65969  0.22160  0.75289  1.0000
  Fe  Fe17      1.0  0.35705  0.24922  0.65393  1.0000
  H   H103      1.0  0.36928  0.44352  0.67735  1.0000
  H   H104      1.0  0.39067  0.56448  0.56584  1.0000
  S   S36       1.0  0.47356  0.60417  0.54025  1.0000
  H   H105      1.0  0.81379  0.50046  0.56552  1.0000
  C   C113      1.0  0.62947  0.31388  0.72865  1.0000
  H   H106      1.0  0.63013  0.35328  0.70761  1.0000
  C   C114      1.0  0.65671  0.44799  0.57905  1.0000
  H   H107      1.0  0.41546  0.68221  0.68233  1.0000
  S   S37       1.0  0.50385  0.69521  0.62697  1.0000
  Fe  Fe18      1.0  0.53690  0.64702  0.57573  1.0000
  C   C115      1.0  0.69464  0.34464  0.57976  1.0000
  H   H108      1.0  0.51874  0.47022  0.72003  1.0000
  H   H109      1.0  0.35987  0.54273  0.69574  1.0000
  C   C116      1.0  0.45209  0.37036  0.61054  1.0000
  H   H110      1.0  0.81517  0.66451  0.67318  1.0000
  H   H111      1.0  0.67364  0.58161  0.65800  1.0000
  Fe  Fe19      1.0  0.44305  0.64630  0.59793  1.0000
  S   S38       1.0  0.36872  0.67779  0.56320  1.0000
  H   H112      1.0  0.64169  0.48782  0.57882  1.0000
  H   H113      1.0  0.59380  0.45170  0.70258  1.0000
  H   H114      1.0  0.42669  0.49290  0.64484  1.0000
  H   H115      1.0  0.80108  0.28273  0.62294  1.0000
  C   C117      1.0  0.39268  0.42280  0.65937  1.0000
  H   H116      1.0  0.57173  0.56723  0.51677  1.0000
  H   H117      1.0  0.55284  0.35206  0.62281  1.0000
  S   S39       1.0  0.55221  0.35288  0.75001  1.0000
  H   H118      1.0  0.73810  0.35455  0.66396  1.0000
  C   C118      1.0  0.65891  0.36767  0.53211  1.0000
  H   H119      1.0  0.53990  0.33809  0.54892  1.0000
  C   C119      1.0  0.42050  0.34191  0.63046  1.0000
  H   H120      1.0  0.68690  0.28031  0.70502  1.0000
  S   S40       1.0  0.34965  0.33238  0.67690  1.0000
  H   H121      1.0  0.73007  0.55618  0.75337  1.0000
  H   H122      1.0  0.70887  0.30427  0.58058  1.0000
  H   H123      1.0  0.79368  0.45711  0.51128  1.0000
  S   S41       1.0  0.35018  0.24022  0.56260  1.0000
  C   C120      1.0  0.35072  0.60599  0.74545  1.0000
  H   H124      1.0  0.77134  0.45369  0.57122  1.0000
  C   C121      1.0  0.75041  0.68554  0.73709  1.0000
  H   H125      1.0  0.66149  0.60197  0.53407  1.0000
  C   C122      1.0  0.32656  0.53181  0.52412  1.0000
  C   C123      1.0  0.55033  0.48146  0.74964  1.0000
  N   N10       1.0  0.74589  0.52261  0.51081  1.0000
  C   C124      1.0  0.59580  0.30363  0.75590  1.0000
  H   H126      1.0  0.80457  0.25242  0.75460  1.0000
  C   C125      1.0  0.68339  0.58448  0.51158  1.0000
  S   S42       1.0  0.68856  0.14322  0.90624  1.0000
  C   C126      1.0  0.55405  0.07160  0.93381  1.0000
  C   C127      1.0  0.62396  0.01167  0.96908  1.0000
  C   C128      1.0  0.72743  0.71281  0.97816  1.0000
  C   C129      1.0  0.34791  0.17225  0.83384  1.0000
  H   H127      1.0  0.61737  0.08506  0.91454  1.0000
  Fe  Fe20      1.0  0.75425  0.17231  0.95915  1.0000
  H   H128      1.0  0.54238  0.84230  0.99534  1.0000
  H   H129      1.0  0.44185  0.77999  0.95429  1.0000
  H   H130      1.0  0.44155  0.13084  0.85371  1.0000
  C   C130      1.0  0.38320  0.14622  0.93288  1.0000
  H   H131      1.0  0.56887  0.85348  0.90817  1.0000
  H   H132      1.0  0.45854  0.97743  0.84244  1.0000
  H   H133      1.0  0.53622  0.10846  0.90990  1.0000
  C   C131      1.0  0.38126  0.73510  0.93785  1.0000
  H   H134      1.0  0.33041  0.00259  0.92026  1.0000
  H   H135      1.0  0.79146  0.85457  0.92408  1.0000
  C   C132      1.0  0.67473  0.76766  0.77431  1.0000
  C   C133      1.0  0.34222  0.05097  0.79206  1.0000
  C   C134      1.0  0.55583  0.89273  0.88568  1.0000
  H   H136      1.0  0.39065  0.01701  0.87217  1.0000
  H   H137      1.0  0.79161  0.76395  0.89284  1.0000
  C   C135      1.0  0.49407  0.96255  0.84863  1.0000
  H   H138      1.0  0.70408  0.87217  0.94997  1.0000
  H   H139      1.0  0.79540  0.92897  0.79596  1.0000
  C   C136      1.0  0.56815  0.97585  0.83779  1.0000
  S   S43       1.0  0.68242  0.99555  0.97602  1.0000
  H   H140      1.0  0.41401  0.13816  0.96935  1.0000
  C   C137      1.0  0.60037  0.05876  0.93719  1.0000
  C   C138      1.0  0.42793  0.74280  0.96397  1.0000
  S   S44       1.0  0.78836  0.16736  0.89095  1.0000
  N   N11       1.0  0.38670  0.16235  0.87990  1.0000
  H   H141      1.0  0.48544  0.06826  0.82398  1.0000
  C   C139      1.0  0.43214  0.16710  0.87133  1.0000
  C   C140      1.0  0.50554  0.04732  0.80034  1.0000
  C   C141      1.0  0.50998  0.91157  0.87719  1.0000
  C   C142      1.0  0.35459  0.02737  0.84868  1.0000
  C   C143      1.0  0.33984  0.14075  0.94096  1.0000
  H   H142      1.0  0.48707  0.88731  0.89331  1.0000
  C   C144      1.0  0.81391  0.82227  0.95202  1.0000
  C   C145      1.0  0.68806  0.72355  0.81598  1.0000
  N   N12       1.0  0.45794  0.72040  0.81501  1.0000
  H   H143      1.0  0.53391  0.07229  0.79643  1.0000
  H   H144      1.0  0.42941  0.78563  0.84656  1.0000
  C   C146      1.0  0.53118  0.03700  0.96188  1.0000
  H   H145      1.0  0.72329  0.71782  0.84404  1.0000
  H   H146      1.0  0.77154  0.71513  0.75938  1.0000
  Fe  Fe21      1.0  0.71947  0.06055  0.94340  1.0000
  H   H147      1.0  0.45930  0.17125  0.91210  1.0000
  S   S45       1.0  0.71647  0.81083  0.76584  1.0000
  C   C147      1.0  0.81382  0.77093  0.93448  1.0000
  C   C148      1.0  0.60087  0.97707  0.99687  1.0000
  Fe  Fe22      1.0  0.81429  0.08553  0.93348  1.0000
  C   C149      1.0  0.58512  0.92501  0.86578  1.0000
  C   C150      1.0  0.42745  0.76357  0.81027  1.0000
  Fe  Fe23      1.0  0.72562  0.13167  0.84137  1.0000
  S   S46       1.0  0.47371  0.05259  0.95930  1.0000
  H   H148      1.0  0.68898  0.78161  0.92453  1.0000
  H   H149      1.0  0.62098  0.91131  0.87275  1.0000
  H   H150      1.0  0.59141  0.00094  0.82326  1.0000
  N   N13       1.0  0.52322  0.99406  0.82981  1.0000
  H   H151      1.0  0.32345  0.79097  0.00533  1.0000
  S   S47       1.0  0.34488  0.78562  0.88994  1.0000
  S   S48       1.0  0.75455  0.04787  0.87628  1.0000
  H   H152      1.0  0.33735  0.12805  0.98307  1.0000
  H   H153      1.0  0.62395  0.17162  0.79874  1.0000
  C   C151      1.0  0.55461  0.98989  0.99325  1.0000
  H   H154      1.0  0.35096  0.18388  0.79176  1.0000
  C   C152      1.0  0.45642  0.70271  0.00382  1.0000
  C   C153      1.0  0.70854  0.85738  0.99524  1.0000
  H   H155      1.0  0.33036  0.89631  0.84109  1.0000
  C   C154      1.0  0.49368  0.70364  0.86958  1.0000
  S   S49       1.0  0.69089  0.95983  0.75887  1.0000
  H   H156      1.0  0.50400  0.73792  0.89474  1.0000
  C   C155      1.0  0.71209  0.76699  0.96653  1.0000
  S   S50       1.0  0.61210  0.76110  0.99652  1.0000
  S   S51       1.0  0.78162  0.09084  0.00350  1.0000
  H   H157      1.0  0.67486  0.86285  0.00409  1.0000
  S   S52       1.0  0.38544  0.06489  0.76033  1.0000
  H   H158      1.0  0.48222  0.04385  0.75684  1.0000
  C   C156      1.0  0.39295  0.77972  0.75859  1.0000
  C   C157      1.0  0.71197  0.19312  0.19750  1.0000
  H   H159      1.0  0.38242  0.77235  0.04559  1.0000
  H   H160      1.0  0.66778  0.76498  0.11313  1.0000
  H   H161      1.0  0.55576  0.79725  0.23382  1.0000
  S   S53       1.0  0.52928  0.14384  0.20715  1.0000
  C   C158      1.0  0.34696  0.77823  0.04926  1.0000
  H   H162      1.0  0.65572  0.01489  0.25207  1.0000
  C   C159      1.0  0.60675  0.80178  0.04850  1.0000
  H   H163      1.0  0.67705  0.92421  0.23564  1.0000
  H   H164      1.0  0.77495  0.07399  0.24835  1.0000
  C   C160      1.0  0.39998  0.14872  0.22356  1.0000
  C   C161      1.0  0.63888  0.09638  0.12909  1.0000
  H   H165      1.0  0.62098  0.10493  0.20639  1.0000
  C   C162      1.0  0.69722  0.94229  0.20862  1.0000
  C   C163      1.0  0.56032  0.86523  0.08065  1.0000
  H   H166      1.0  0.53674  0.96332  0.01458  1.0000
  C   C164      1.0  0.32568  0.94017  0.10707  1.0000
  C   C165      1.0  0.37175  0.18843  0.23579  1.0000
  H   H167      1.0  0.73309  0.94565  0.23637  1.0000
  C   C166      1.0  0.54416  0.18839  0.15761  1.0000
  Fe  Fe24      1.0  0.47088  0.02981  0.04798  1.0000
  C   C167      1.0  0.76991  0.72817  0.07413  1.0000
  S   S54       1.0  0.53908  0.03259  0.11402  1.0000
  H   H168      1.0  0.78064  0.18970  0.11300  1.0000
  H   H169      1.0  0.62317  0.13545  0.10839  1.0000
  H   H170      1.0  0.61875  0.94055  0.02166  1.0000
  C   C168      1.0  0.52623  0.18492  0.09876  1.0000
  C   C169      1.0  0.63828  0.79386  0.10362  1.0000
  H   H171      1.0  0.49222  0.70911  0.02478  1.0000
  C   C170      1.0  0.76523  0.17717  0.14593  1.0000
  C   C171      1.0  0.38990  0.09551  0.22970  1.0000
  N   N14       1.0  0.72567  0.80094  0.00770  1.0000
  S   S55       1.0  0.58160  0.89259  0.18995  1.0000
  C   C172      1.0  0.75351  0.78205  0.06126  1.0000
  H   H172      1.0  0.34643  0.81083  0.07654  1.0000
  H   H173      1.0  0.65511  0.81583  0.18976  1.0000
  C   C173      1.0  0.59183  0.85804  0.13554  1.0000
  S   S56       1.0  0.80882  0.92694  0.16807  1.0000
  C   C174      1.0  0.56785  0.83761  0.03704  1.0000
  C   C175      1.0  0.74850  0.73695  0.21935  1.0000
  C   C176      1.0  0.72752  0.14454  0.23163  1.0000
  N   N15       1.0  0.33217  0.72943  0.07344  1.0000
  C   C177      1.0  0.76216  0.11171  0.22195  1.0000
  C   C178      1.0  0.65994  0.06266  0.10063  1.0000
  H   H174      1.0  0.66124  0.07548  0.05794  1.0000
  Fe  Fe25      1.0  0.52344  0.95628  0.15472  1.0000
  H   H175      1.0  0.69452  0.98552  0.10440  1.0000
  H   H176      1.0  0.41103  0.06432  0.21970  1.0000
  C   C179      1.0  0.63750  0.07922  0.18399  1.0000
  H   H177      1.0  0.35719  0.96484  0.04208  1.0000
  C   C180      1.0  0.67860  0.01171  0.12712  1.0000
  N   N16       1.0  0.67626  0.99491  0.18051  1.0000
  H   H178      1.0  0.52947  0.89115  0.07200  1.0000
  H   H179      1.0  0.76480  0.75202  0.18834  1.0000
  C   C181      1.0  0.63093  0.82223  0.14708  1.0000
  C   C182      1.0  0.55591  0.75408  0.23885  1.0000
  C   C183      1.0  0.78155  0.12836  0.17928  1.0000
  N   N17       1.0  0.33455  0.17546  0.25357  1.0000
  S   S57       1.0  0.43188  0.07728  0.09423  1.0000
  H   H180      1.0  0.49586  0.75111  0.16616  1.0000
  H   H181      1.0  0.50172  0.15585  0.08324  1.0000
  H   H182      1.0  0.76340  0.80884  0.09412  1.0000
  H   H183      1.0  0.69803  0.91366  0.17710  1.0000
  H   H184      1.0  0.73350  0.88297  0.02157  1.0000
  H   H185      1.0  0.42888  0.15959  0.20833  1.0000
  S   S58       1.0  0.35938  0.97734  0.15848  1.0000
  C   C184      1.0  0.33147  0.94126  0.05273  1.0000
  Fe  Fe26      1.0  0.42408  0.99766  0.13763  1.0000
  S   S59       1.0  0.45711  0.95015  0.08532  1.0000
  Fe  Fe27      1.0  0.49972  0.07400  0.16311  1.0000
  C   C185      1.0  0.65674  0.02815  0.20935  1.0000
  S   S60       1.0  0.48957  0.99781  0.21018  1.0000
  C   C186      1.0  0.35191  0.08263  0.24783  1.0000
  Fe  Fe28      1.0  0.81970  0.85203  0.22779  1.0000
  C   C187      1.0  0.52213  0.72812  0.20118  1.0000
  H   H186      1.0  0.79281  0.71343  0.11618  1.0000
  H   H187      1.0  0.80933  0.10368  0.17254  1.0000
  H   H188      1.0  0.34374  0.04131  0.25260  1.0000
  C   C188      1.0  0.63799  0.89425  0.42093  1.0000
  H   H189      1.0  0.38605  0.74408  0.37144  1.0000
  C   C189      1.0  0.53252  0.05920  0.44512  1.0000
  C   C190      1.0  0.48884  0.78592  0.44863  1.0000
  H   H190      1.0  0.56928  0.18675  0.32285  1.0000
  N   N18       1.0  0.67256  0.10621  0.43659  1.0000
  H   H191      1.0  0.38287  0.19216  0.46878  1.0000
  C   C191      1.0  0.62329  0.18726  0.40297  1.0000
  N   N19       1.0  0.47993  0.78888  0.49957  1.0000
  H   H192      1.0  0.63881  0.83740  0.36069  1.0000
  C   C192      1.0  0.79679  0.88760  0.39201  1.0000
  C   C193      1.0  0.64837  0.90205  0.47874  1.0000
  S   S61       1.0  0.64256  0.96601  0.49903  1.0000
  H   H193      1.0  0.61733  0.74417  0.31150  1.0000
  H   H194      1.0  0.38855  0.08807  0.48309  1.0000
  H   H195      1.0  0.67988  0.17608  0.48050  1.0000
  C   C194      1.0  0.76562  0.93304  0.37146  1.0000
  C   C195      1.0  0.72267  0.74947  0.30157  1.0000
  H   H196      1.0  0.62522  0.92764  0.38827  1.0000
  H   H197      1.0  0.33742  0.14138  0.38661  1.0000
  H   H198      1.0  0.53962  0.70808  0.39616  1.0000
  H   H199      1.0  0.48425  0.08733  0.36259  1.0000
  C   C196      1.0  0.41406  0.05359  0.50280  1.0000
  C   C197      1.0  0.61019  0.11129  0.34883  1.0000
  H   H200      1.0  0.72442  0.04103  0.46301  1.0000
  H   H201      1.0  0.37168  0.74654  0.46527  1.0000
  Fe  Fe29      1.0  0.79768  0.19239  0.45732  1.0000
  H   H202      1.0  0.72873  0.92869  0.35860  1.0000
  C   C198      1.0  0.41279  0.75585  0.40752  1.0000
  C   C199      1.0  0.59811  0.16402  0.35508  1.0000
  H   H203      1.0  0.71897  0.77421  0.33392  1.0000
  S   S62       1.0  0.67984  0.73888  0.42945  1.0000
  S   S63       1.0  0.36230  0.88351  0.44834  1.0000
  N   N20       1.0  0.45518  0.05741  0.48356  1.0000
  H   H204      1.0  0.41566  0.08421  0.39764  1.0000
  H   H205      1.0  0.78368  0.84848  0.39351  1.0000
  C   C200      1.0  0.44992  0.07300  0.42725  1.0000
  C   C201      1.0  0.53747  0.04340  0.50243  1.0000
  C   C202      1.0  0.71133  0.07574  0.48017  1.0000
  C   C203      1.0  0.45643  0.19633  0.49280  1.0000
  C   C204      1.0  0.74384  0.76848  0.26137  1.0000
  H   H206      1.0  0.56278  0.05901  0.43028  1.0000
  C   C205      1.0  0.43881  0.77376  0.50603  1.0000
  Fe  Fe30      1.0  0.75639  0.72898  0.47159  1.0000
  C   C206      1.0  0.66364  0.80043  0.44766  1.0000
  C   C207      1.0  0.78233  0.98364  0.36792  1.0000
  H   H207      1.0  0.65663  0.04155  0.38547  1.0000
  S   S64       1.0  0.74404  0.04116  0.34671  1.0000
  S   S65       1.0  0.80505  0.70838  0.42276  1.0000
  C   C208      1.0  0.64533  0.84319  0.40532  1.0000
  H   H208      1.0  0.74060  0.10112  0.49459  1.0000
  C   C209      1.0  0.66051  0.15755  0.44359  1.0000
  H   H209      1.0  0.59075  0.09268  0.31198  1.0000
  C   C210      1.0  0.48853  0.07460  0.40721  1.0000
  C   C211      1.0  0.64755  0.08266  0.39044  1.0000
  Fe  Fe31      1.0  0.78638  0.11083  0.37104  1.0000
  S   S66       1.0  0.75043  0.19045  0.36890  1.0000
  C   C212      1.0  0.59054  0.72421  0.28253  1.0000
  H   H210      1.0  0.52219  0.79595  0.44427  1.0000
  H   H211      1.0  0.71268  0.13238  0.26527  1.0000
  C   C213      1.0  0.45534  0.76970  0.40174  1.0000
  H   H212      1.0  0.46242  0.76787  0.36131  1.0000
  C   C214      1.0  0.40467  0.75718  0.46016  1.0000
  S   S67       1.0  0.76288  0.83235  0.26414  1.0000
  H   H213      1.0  0.76212  0.93128  0.48358  1.0000
  H   H214      1.0  0.39779  0.01605  0.49121  1.0000
  C   C215      1.0  0.67346  0.80822  0.50534  1.0000
  C   C216      1.0  0.32421  0.12343  0.25922  1.0000
  S   S68       1.0  0.32452  0.03022  0.37456  1.0000
  C   C217      1.0  0.74643  0.12058  0.64807  1.0000
  C   C218      1.0  0.62915  0.77507  0.73826  1.0000
  H   H215      1.0  0.54649  0.78005  0.56102  1.0000
  C   C219      1.0  0.74065  0.16230  0.60453  1.0000
  S   S69       1.0  0.56037  0.02444  0.70157  1.0000
  Fe  Fe32      1.0  0.72652  0.99724  0.69920  1.0000
  H   H216      1.0  0.36902  0.81410  0.75490  1.0000
  S   S70       1.0  0.42083  0.85229  0.61610  1.0000
  H   H217      1.0  0.71979  0.11513  0.66844  1.0000
  Fe  Fe33      1.0  0.62498  0.98790  0.68997  1.0000
  C   C220      1.0  0.51505  0.80840  0.54692  1.0000
  H   H218      1.0  0.42282  0.05464  0.54962  1.0000
  H   H219      1.0  0.63736  0.16219  0.60502  1.0000
  C   C221      1.0  0.77125  0.92933  0.53087  1.0000
  C   C222      1.0  0.45713  0.90046  0.64693  1.0000
  H   H220      1.0  0.75845  0.89171  0.54539  1.0000
  H   H221      1.0  0.51371  0.84223  0.69067  1.0000
  C   C223      1.0  0.53356  0.92252  0.70086  1.0000
  C   C224      1.0  0.51945  0.97687  0.68686  1.0000
  S   S71       1.0  0.46587  0.16248  0.56081  1.0000
  H   H222      1.0  0.52480  0.84820  0.53325  1.0000
  C   C225      1.0  0.81564  0.13538  0.59604  1.0000
  H   H223      1.0  0.46204  0.03508  0.64797  1.0000
  H   H224      1.0  0.61851  0.80918  0.70631  1.0000
  H   H225      1.0  0.59021  0.12142  0.66196  1.0000
  S   S72       1.0  0.66059  0.03242  0.63457  1.0000
  Fe  Fe34      1.0  0.40539  0.17357  0.59469  1.0000
  H   H226      1.0  0.75260  0.96320  0.54262  1.0000
  C   C226      1.0  0.47326  0.99298  0.65693  1.0000
  S   S73       1.0  0.69982  0.17048  0.75186  1.0000
  S   S74       1.0  0.79688  0.79544  0.51011  1.0000
  C   C227      1.0  0.58449  0.16357  0.64675  1.0000
  S   S75       1.0  0.79389  0.03484  0.72082  1.0000
  H   H227      1.0  0.52988  0.17740  0.68422  1.0000
  C   C228      1.0  0.66516  0.85885  0.52085  1.0000
  S   S76       1.0  0.41729  0.18784  0.68620  1.0000
  C   C229      1.0  0.55096  0.19518  0.65986  1.0000
  C   C230      1.0  0.50233  0.88427  0.68113  1.0000
  H   H228      1.0  0.68793  0.77517  0.53798  1.0000
  H   H229      1.0  0.40693  0.96739  0.61143  1.0000
  H   H230      1.0  0.70006  0.06102  0.51745  1.0000
  H   H231      1.0  0.36281  0.76267  0.67143  1.0000
  C   C231      1.0  0.38923  0.75080  0.71196  1.0000
  C   C232      1.0  0.82205  0.09462  0.64092  1.0000
  S   S77       1.0  0.72973  0.92411  0.65545  1.0000
  C   C233      1.0  0.41942  0.70589  0.71778  1.0000
  C   C234      1.0  0.77506  0.16929  0.57809  1.0000
  Fe  Fe35      1.0  0.68966  0.88832  0.71088  1.0000
  S   S78       1.0  0.35519  0.11135  0.59519  1.0000
  H   H232      1.0  0.56219  0.74366  0.71505  1.0000
  C   C235      1.0  0.61089  0.18656  0.61459  1.0000
  C   C236      1.0  0.78725  0.08714  0.66676  1.0000
  H   H233      1.0  0.70957  0.18906  0.59132  1.0000
  Fe  Fe36      1.0  0.36424  0.12856  0.68552  1.0000
  H   H234      1.0  0.71548  0.74230  0.66432  1.0000
  Fe  Fe37      1.0  0.66132  0.95689  0.59453  1.0000
  S   S79       1.0  0.62114  0.91387  0.64522  1.0000
  H   H235      1.0  0.50253  0.03108  0.56586  1.0000
  C   C237      1.0  0.44221  0.95476  0.63606  1.0000
  H   H236      1.0  0.43171  0.77489  0.54653  1.0000
  H   H237      1.0  0.56881  0.90989  0.72607  1.0000
  H   H238      1.0  0.67283  0.86449  0.56550  1.0000
  Fe  Fe38      1.0  0.36150  0.88414  0.53932  1.0000
  C   C238      1.0  0.59739  0.73742  0.74261  1.0000
  H   H239      1.0  0.50224  0.81294  0.58425  1.0000
  H   H240      1.0  0.57142  0.03130  0.53228  1.0000
  H   H241      1.0  0.79304  0.18566  0.73638  1.0000
  H   H242      1.0  0.80139  0.84712  0.74896  1.0000
  C   C239      1.0  0.49823  0.04280  0.52108  1.0000
  N   N21       1.0  0.82138  0.93077  0.55652  1.0000
  C   C240      1.0  0.71877  0.70113  0.68311  1.0000
  H   H243      1.0  0.28149  0.27524  0.99233  1.0000
  H   H244      1.0  0.23884  0.66846  0.92756  1.0000
  S   S80       1.0  0.90105  0.40859  0.98141  1.0000
  C   C241      1.0  0.03392  0.58228  0.92402  1.0000
  N   N22       1.0  0.03410  0.64775  0.98919  1.0000
  H   H245      1.0  0.05245  0.33893  0.87800  1.0000
  H   H246      1.0  0.02586  0.21182  0.95759  1.0000
  C   C242      1.0  0.20337  0.59618  0.91854  1.0000
  S   S81       1.0  0.16071  0.62296  0.85648  1.0000
  C   C243      1.0  0.92966  0.65334  0.79813  1.0000
  H   H247      1.0  0.28967  0.29426  0.89577  1.0000
  S   S82       1.0  0.89542  0.27979  0.83695  1.0000
  C   C244      1.0  0.24099  0.52069  0.98674  1.0000
  C   C245      1.0  0.17232  0.37216  0.80183  1.0000
  H   H248      1.0  0.08739  0.57084  0.77129  1.0000
  C   C246      1.0  0.90191  0.61016  0.78972  1.0000
  C   C247      1.0  0.20343  0.54335  0.94098  1.0000
  C   C248      1.0  0.85833  0.31697  0.96222  1.0000
  H   H249      1.0  0.15951  0.41143  0.77612  1.0000
  Fe  Fe39      1.0  0.88434  0.48277  0.78499  1.0000
  H   H250      1.0  0.20199  0.37781  0.83961  1.0000
  H   H251      1.0  0.10733  0.21504  0.98370  1.0000
  S   S83       1.0  0.92783  0.41300  0.77421  1.0000
  H   H252      1.0  0.97035  0.34757  0.87719  1.0000
  S   S84       1.0  0.83366  0.43242  0.81207  1.0000
  C   C249      1.0  0.98148  0.25385  0.99526  1.0000
  H   H253      1.0  0.19177  0.20512  0.96676  1.0000
  C   C250      1.0  0.98396  0.31175  0.86472  1.0000
  S   S85       1.0  0.27455  0.66479  0.82928  1.0000
  C   C251      1.0  0.10692  0.25267  0.00385  1.0000
  S   S86       1.0  0.10556  0.25394  0.84857  1.0000
  Fe  Fe40      1.0  0.87428  0.36306  0.79351  1.0000
  H   H254      1.0  0.96222  0.64985  0.83183  1.0000
  S   S87       1.0  0.92065  0.54895  0.83121  1.0000
  C   C252      1.0  0.27750  0.60376  0.98817  1.0000
  H   H255      1.0  0.97288  0.61724  0.93744  1.0000
  C   C253      1.0  0.23959  0.62692  0.94344  1.0000
  C   C254      1.0  0.02427  0.24012  0.98761  1.0000
  H   H256      1.0  0.95041  0.23630  0.97176  1.0000
  H   H257      1.0  0.25731  0.34860  0.79397  1.0000
  C   C255      1.0  0.04821  0.26011  0.85020  1.0000
  H   H258      1.0  0.32005  0.49063  0.92642  1.0000
  H   H259      1.0  0.10049  0.55638  0.91728  1.0000
  H   H260      1.0  0.82640  0.24419  0.94823  1.0000
  C   C256      1.0  0.95515  0.27059  0.84779  1.0000
  H   H261      1.0  0.17552  0.51925  0.92189  1.0000
  C   C257      1.0  0.10572  0.61568  0.97610  1.0000
  C   C258      1.0  0.01032  0.61634  0.94960  1.0000
  C   C259      1.0  0.31538  0.27147  0.98658  1.0000
  H   H262      1.0  0.27095  0.55604  0.80379  1.0000
  S   S88       1.0  0.93273  0.55152  0.00425  1.0000
  H   H263      1.0  0.01503  0.55607  0.89424  1.0000
  S   S89       1.0  0.83535  0.66334  0.95245  1.0000
  C   C260      1.0  0.08187  0.58224  0.93720  1.0000
  Fe  Fe41      1.0  0.19912  0.68076  0.81704  1.0000
  C   C261      1.0  0.28777  0.51934  0.79741  1.0000
  H   H264      1.0  0.14304  0.61596  0.98656  1.0000
  H   H265      1.0  0.88099  0.30957  0.93680  1.0000
  C   C262      1.0  0.03054  0.30658  0.86590  1.0000
  H   H266      1.0  0.00553  0.57214  0.76683  1.0000
  C   C263      1.0  0.31999  0.28249  0.93190  1.0000
  C   C264      1.0  0.01989  0.21808  0.83589  1.0000
  H   H267      1.0  0.14440  0.35688  0.81847  1.0000
  H   H268      1.0  0.24071  0.48003  0.00349  1.0000
  H   H269      1.0  0.11186  0.28618  0.97411  1.0000
  C   C265      1.0  0.97375  0.22298  0.83583  1.0000
  C   C266      1.0  0.23050  0.32790  0.76610  1.0000
  H   H270      1.0  0.30557  0.62750  0.00653  1.0000
  N   N23       1.0  0.18537  0.33470  0.76602  1.0000
  C   C267      1.0  0.82709  0.27977  0.96868  1.0000
  C   C268      1.0  0.86087  0.36340  0.98913  1.0000
  N   N24       1.0  0.32265  0.49200  0.84102  1.0000
  C   C269      1.0  0.08119  0.64795  0.00230  1.0000
  Fe  Fe42      1.0  0.90189  0.47887  0.03065  1.0000
  H   H271      1.0  0.29224  0.60111  0.13678  1.0000
  S   S90       1.0  0.25600  0.32344  0.15452  1.0000
  Fe  Fe43      1.0  0.31487  0.32212  0.11707  1.0000
  C   C270      1.0  0.13263  0.49612  0.23897  1.0000
  H   H272      1.0  0.10007  0.67276  0.03359  1.0000
  Fe  Fe44      1.0  0.29160  0.38938  0.20229  1.0000
  H   H273      1.0  0.01652  0.34250  0.09209  1.0000
  S   S91       1.0  0.27802  0.38009  0.04147  1.0000
  C   C271      1.0  0.27146  0.68078  0.09355  1.0000
  C   C272      1.0  0.27895  0.55023  0.00897  1.0000
  C   C273      1.0  0.06916  0.44124  0.04079  1.0000
  H   H274      1.0  0.02590  0.67671  0.06412  1.0000
  H   H275      1.0  0.13417  0.56123  0.10385  1.0000
  S   S92       1.0  0.25252  0.45238  0.13368  1.0000
  H   H276      1.0  0.82949  0.43945  0.11982  1.0000
  H   H277      1.0  0.13657  0.24925  0.04374  1.0000
  N   N25       1.0  0.09134  0.47615  0.23852  1.0000
  C   C274      1.0  0.01869  0.31345  0.06297  1.0000
  S   S93       1.0  0.14698  0.38873  0.03174  1.0000
  H   H278      1.0  0.94616  0.30116  0.04038  1.0000
  C   C275      1.0  0.13817  0.48927  0.06371  1.0000
  H   H279      1.0  0.17242  0.49466  0.06100  1.0000
  C   C276      1.0  0.06081  0.29937  0.05369  1.0000
  N   N26       1.0  0.06313  0.26335  0.01616  1.0000
  C   C277      1.0  0.30353  0.63780  0.12045  1.0000
  H   H280      1.0  0.97261  0.67335  0.00882  1.0000
  H   H281      1.0  0.09148  0.31819  0.07581  1.0000
  H   H282      1.0  0.24795  0.22681  0.05738  1.0000
  C   C278      1.0  0.97889  0.29071  0.03326  1.0000
  H   H283      1.0  0.87057  0.39256  0.20878  1.0000
  H   H284      1.0  0.19595  0.48483  0.21660  1.0000
  S   S94       1.0  0.91433  0.60436  0.11321  1.0000
  C   C279      1.0  0.11602  0.52766  0.08650  1.0000
  Fe  Fe45      1.0  0.87521  0.59898  0.02093  1.0000
  H   H285      1.0  0.17460  0.40001  0.17524  1.0000
  C   C280      1.0  0.15137  0.42123  0.19333  1.0000
  C   C281      1.0  0.07069  0.52204  0.08762  1.0000
  S   S95       1.0  0.84079  0.52613  0.03986  1.0000
  H   H286      1.0  0.83388  0.40899  0.04234  1.0000
  H   H287      1.0  0.83828  0.31302  0.16997  1.0000
  Fe  Fe46      1.0  0.88456  0.52731  0.13127  1.0000
  N   N27       1.0  0.90572  0.31490  0.22922  1.0000
  C   C282      1.0  0.16323  0.46902  0.21632  1.0000
  H   H288      1.0  0.05060  0.40847  0.02240  1.0000
  C   C283      1.0  0.11577  0.44424  0.04434  1.0000
  S   S96       1.0  0.04454  0.56655  0.12148  1.0000
  S   S97       1.0  0.85590  0.51025  0.20465  1.0000
  H   H289      1.0  0.27088  0.22234  0.22758  1.0000
  H   H290      1.0  0.88640  0.29880  0.14263  1.0000
  H   H291      1.0  0.10035  0.36354  0.17655  1.0000
  C   C284      1.0  0.04674  0.47984  0.06284  1.0000
  C   C285      1.0  0.87377  0.29315  0.18063  1.0000
  Fe  Fe47      1.0  0.31020  0.44271  0.09618  1.0000
  C   C286      1.0  0.10960  0.40076  0.19394  1.0000
  H   H292      1.0  0.23505  0.67826  0.08975  1.0000
  H   H293      1.0  0.01134  0.47576  0.06199  1.0000
  C   C287      1.0  0.08000  0.42860  0.21738  1.0000
  C   C288      1.0  0.83210  0.37260  0.02266  1.0000
  Fe  Fe48      1.0  0.96965  0.55176  0.09710  1.0000
  S   S98       1.0  0.94328  0.47506  0.12296  1.0000
  H   H294      1.0  0.04786  0.41208  0.21844  1.0000
  H   H295      1.0  0.87101  0.24978  0.19057  1.0000
  Fe  Fe49      1.0  0.22199  0.38686  0.08278  1.0000
  S   S99       1.0  0.10216  0.24676  0.20551  1.0000
  S   S100      1.0  0.97086  0.21884  0.15110  1.0000
  H   H296      1.0  0.88055  0.21282  0.07588  1.0000
  H   H297      1.0  0.02329  0.49894  0.24057  1.0000
  C   C289      1.0  0.89974  0.36752  0.23692  1.0000
  C   C290      1.0  0.00938  0.68252  0.01696  1.0000
  H   H298      1.0  0.14185  0.53349  0.25632  1.0000
  H   H299      1.0  0.16996  0.41107  0.37871  1.0000
  C   C291      1.0  0.24867  0.38392  0.30892  1.0000
  C   C292      1.0  0.84675  0.67186  0.31006  1.0000
  C   C293      1.0  0.30054  0.57947  0.37718  1.0000
  N   N28       1.0  0.28135  0.34712  0.49512  1.0000
  H   H300      1.0  0.30281  0.50035  0.35219  1.0000
  Fe  Fe50      1.0  0.84091  0.65137  0.49983  1.0000
  S   S101      1.0  0.10178  0.69814  0.44987  1.0000
  H   H301      1.0  0.24970  0.29379  0.43510  1.0000
  H   H302      1.0  0.91565  0.59166  0.26077  1.0000
  C   C294      1.0  0.19559  0.31458  0.30235  1.0000
  S   S102      1.0  0.11623  0.55855  0.40356  1.0000
  C   C295      1.0  0.16757  0.69009  0.39333  1.0000
  H   H303      1.0  0.14298  0.23825  0.44481  1.0000
  H   H304      1.0  0.91898  0.62113  0.44759  1.0000
  H   H305      1.0  0.22257  0.60349  0.46975  1.0000
  C   C296      1.0  0.89070  0.49267  0.43696  1.0000
  H   H306      1.0  0.27119  0.67658  0.50610  1.0000
  H   H307      1.0  0.18456  0.27702  0.28758  1.0000
  H   H308      1.0  0.82592  0.47040  0.31003  1.0000
  C   C297      1.0  0.86002  0.62998  0.28356  1.0000
  H   H309      1.0  0.94814  0.24191  0.25786  1.0000
  H   H310      1.0  0.15301  0.65387  0.37886  1.0000
  N   N29       1.0  0.93705  0.65925  0.30558  1.0000
  S   S103      1.0  0.29478  0.41048  0.28998  1.0000
  C   C298      1.0  0.90551  0.62451  0.28121  1.0000
  H   H311      1.0  0.11063  0.32358  0.46465  1.0000
  H   H312      1.0  0.26311  0.58318  0.36702  1.0000
  H   H313      1.0  0.00905  0.67284  0.33600  1.0000
  S   S104      1.0  0.24414  0.49038  0.47208  1.0000
  H   H314      1.0  0.86785  0.46516  0.44859  1.0000
  C   C299      1.0  0.17215  0.34205  0.33351  1.0000
  Fe  Fe51      1.0  0.11433  0.24228  0.30023  1.0000
  H   H315      1.0  0.99694  0.60971  0.30892  1.0000
  H   H316      1.0  0.84808  0.40226  0.33482  1.0000
  H   H317      1.0  0.22116  0.68415  0.35228  1.0000
  C   C300      1.0  0.97478  0.30431  0.30974  1.0000
  S   S105      1.0  0.99987  0.48416  0.37487  1.0000
  C   C301      1.0  0.91977  0.58045  0.43696  1.0000
  C   C302      1.0  0.11555  0.23795  0.46483  1.0000
  Fe  Fe52      1.0  0.11057  0.60949  0.47105  1.0000
  H   H318      1.0  0.30174  0.20446  0.43617  1.0000
  C   C303      1.0  0.06005  0.50442  0.26344  1.0000
  C   C304      1.0  0.95254  0.56217  0.41153  1.0000
  C   C305      1.0  0.98453  0.65266  0.30244  1.0000
  H   H319      1.0  0.31175  0.29435  0.38894  1.0000
  H   H320      1.0  0.83528  0.60183  0.26507  1.0000
  C   C306      1.0  0.95476  0.50909  0.39923  1.0000
  H   H321      1.0  0.98575  0.67053  0.26007  1.0000
  S   S106      1.0  0.85252  0.56447  0.48971  1.0000
  C   C307      1.0  0.96894  0.35791  0.31773  1.0000
  C   C308      1.0  0.23349  0.33570  0.28974  1.0000
  Fe  Fe53      1.0  0.17207  0.51131  0.47462  1.0000
  H   H322      1.0  0.06759  0.48902  0.30916  1.0000
  S   S107      1.0  0.12311  0.31609  0.34530  1.0000
  H   H323      1.0  0.92479  0.43358  0.40191  1.0000
  C   C309      1.0  0.93121  0.38985  0.28114  1.0000
  C   C310      1.0  0.25902  0.59462  0.49169  1.0000
  C   C311      1.0  0.27883  0.54229  0.49798  1.0000
  H   H324      1.0  0.23847  0.44777  0.35778  1.0000
  S   S108      1.0  0.85293  0.23247  0.42972  1.0000
  S   S109      1.0  0.05763  0.56309  0.49633  1.0000
  H   H325      1.0  0.25144  0.31419  0.26592  1.0000
  H   H326      1.0  0.97679  0.58900  0.40252  1.0000
  C   C312      1.0  0.88966  0.54524  0.45108  1.0000
  Fe  Fe54      1.0  0.06626  0.50912  0.43240  1.0000
  C   C313      1.0  0.92286  0.47478  0.41048  1.0000
  H   H327      1.0  0.92655  0.43180  0.28674  1.0000
  H   H328      1.0  0.99380  0.37476  0.35201  1.0000
  C   C314      1.0  0.09758  0.28628  0.47644  1.0000
  C   C315      1.0  0.18775  0.38994  0.35401  1.0000
  C   C316      1.0  0.22648  0.41068  0.34215  1.0000
  C   C317      1.0  0.27887  0.31762  0.45053  1.0000
  C   C318      1.0  0.94288  0.28339  0.26464  1.0000
  C   C319      1.0  0.31407  0.31736  0.42454  1.0000
  C   C320      1.0  0.06273  0.28596  0.50288  1.0000
  H   H329      1.0  0.30947  0.65705  0.40764  1.0000
  H   H330      1.0  0.00414  0.27938  0.33801  1.0000
  H   H331      1.0  0.29520  0.20678  0.30356  1.0000
  H   H332      1.0  0.06380  0.54815  0.25965  1.0000
  S   S110      1.0  0.12274  0.45488  0.49593  1.0000
  H   H333      1.0  0.21711  0.37954  0.49914  1.0000
  H   H334      1.0  0.31993  0.25626  0.26689  1.0000
  C   C321      1.0  0.30371  0.21747  0.26336  1.0000
  C   C322      1.0  0.94296  0.55493  0.63156  1.0000
  H   H335      1.0  0.22829  0.30808  0.51977  1.0000
  C   C323      1.0  0.86021  0.61489  0.74557  1.0000
  H   H336      1.0  0.04853  0.32320  0.51219  1.0000
  H   H337      1.0  0.04617  0.58566  0.61510  1.0000
  C   C324      1.0  0.16286  0.27480  0.69376  1.0000
  H   H338      1.0  0.27880  0.28876  0.73043  1.0000
  S   S111      1.0  0.29885  0.63401  0.69503  1.0000
  H   H339      1.0  0.11585  0.31468  0.72994  1.0000
  H   H340      1.0  0.22747  0.65771  0.58342  1.0000
  S   S112      1.0  0.83155  0.36743  0.70194  1.0000
  C   C325      1.0  0.31755  0.37815  0.51362  1.0000
  C   C326      1.0  0.15166  0.30896  0.73023  1.0000
  C   C327      1.0  0.07690  0.59243  0.72751  1.0000
  H   H341      1.0  0.10357  0.58005  0.70745  1.0000
  H   H342      1.0  0.14432  0.67616  0.57319  1.0000
  H   H343      1.0  0.86812  0.28767  0.58578  1.0000
  S   S113      1.0  0.16859  0.56482  0.54125  1.0000
  H   H344      1.0  0.31886  0.40248  0.54813  1.0000
  C   C328      1.0  0.96750  0.42349  0.61944  1.0000
  H   H345      1.0  0.83749  0.58305  0.74102  1.0000
  H   H346      1.0  0.96836  0.56317  0.55873  1.0000
  H   H347      1.0  0.24807  0.52459  0.70808  1.0000
  H   H348      1.0  0.01954  0.23629  0.53823  1.0000
  C   C329      1.0  0.02920  0.44877  0.58028  1.0000
  H   H349      1.0  0.25763  0.35358  0.56757  1.0000
  S   S114      1.0  0.84314  0.49405  0.69191  1.0000
  N   N30       1.0  0.03065  0.57952  0.69432  1.0000
  C   C330      1.0  0.91158  0.23023  0.65255  1.0000
  C   C331      1.0  0.99725  0.42672  0.67446  1.0000
  C   C332      1.0  0.04648  0.23743  0.51748  1.0000
  H   H350      1.0  0.28675  0.44062  0.69194  1.0000
  C   C333      1.0  0.24291  0.29400  0.73019  1.0000
  Fe  Fe55      1.0  0.11614  0.51172  0.55833  1.0000
  H   H351      1.0  0.06457  0.44593  0.72504  1.0000
  C   C334      1.0  0.04241  0.44203  0.68242  1.0000
  C   C335      1.0  0.29598  0.45450  0.73406  1.0000
  H   H352      1.0  0.90927  0.54354  0.60738  1.0000
  C   C336      1.0  0.95366  0.55740  0.69029  1.0000
  H   H353      1.0  0.98560  0.41790  0.71105  1.0000
  H   H354      1.0  0.94115  0.23190  0.63639  1.0000
  C   C337      1.0  0.05807  0.45434  0.63522  1.0000
  C   C338      1.0  0.28657  0.63607  0.51225  1.0000
  Fe  Fe56      1.0  0.88336  0.42042  0.68355  1.0000
  Fe  Fe57      1.0  0.25841  0.68588  0.73565  1.0000
  C   C339      1.0  0.84716  0.66146  0.70789  1.0000
  H   H355      1.0  0.07732  0.63602  0.73119  1.0000
  S   S115      1.0  0.11212  0.48073  0.64480  1.0000
  H   H356      1.0  0.04106  0.45751  0.54349  1.0000
  C   C340      1.0  0.99775  0.57028  0.72116  1.0000
  H   H357      1.0  0.21756  0.24085  0.66559  1.0000
  C   C341      1.0  0.87064  0.26136  0.62410  1.0000
  C   C342      1.0  0.97622  0.56595  0.60425  1.0000
  S   S116      1.0  0.90915  0.40987  0.60820  1.0000
  C   C343      1.0  0.21378  0.69789  0.58492  1.0000
  N   N31       1.0  0.83600  0.22641  0.69452  1.0000
  C   C344      1.0  0.02012  0.57851  0.63643  1.0000
  H   H358      1.0  0.92822  0.54876  0.71201  1.0000
  H   H359      1.0  0.96155  0.43031  0.52985  1.0000
  C   C345      1.0  0.98409  0.43317  0.57248  1.0000
  C   C346      1.0  0.20874  0.26733  0.69382  1.0000
  C   C347      1.0  0.24408  0.34711  0.52170  1.0000
  H   H360      1.0  0.13626  0.25396  0.66571  1.0000
  C   C348      1.0  0.27425  0.50137  0.74318  1.0000
  C   C349      1.0  0.83290  0.25869  0.64563  1.0000
  S   S117      1.0  0.18170  0.69405  0.72215  1.0000
  S   S118      1.0  0.20695  0.76640  0.83272  1.0000
  C   C350      1.0  0.32054  0.01925  0.87594  1.0000
  S   S119      1.0  0.23185  0.02866  0.88170  1.0000
  N   N32       1.0  0.93842  0.00380  0.80937  1.0000
  C   C351      1.0  0.89209  0.86830  0.89104  1.0000
  S   S120      1.0  0.10412  0.09973  0.84650  1.0000
  C   C352      1.0  0.89604  0.82167  0.86553  1.0000
  S   S121      1.0  0.17884  0.15623  0.79143  1.0000
  C   C353      1.0  0.91470  0.04907  0.81592  1.0000
  C   C354      1.0  0.27405  0.03414  0.84630  1.0000
  C   C355      1.0  0.29569  0.06463  0.76196  1.0000
  C   C356      1.0  0.25711  0.90248  0.83081  1.0000
  S   S122      1.0  0.09990  0.91569  0.92759  1.0000
  H   H361      1.0  0.22586  0.06596  0.76501  1.0000
  H   H362      1.0  0.99932  0.09769  0.91927  1.0000
  C   C357      1.0  0.93624  0.08354  0.85533  1.0000
  C   C358      1.0  0.20624  0.11982  0.98911  1.0000
  H   H363      1.0  0.00353  0.95811  0.83330  1.0000
  C   C359      1.0  0.91585  0.70086  0.76144  1.0000
  N   N33       1.0  0.85664  0.90654  0.86560  1.0000
  H   H364      1.0  0.87889  0.05872  0.79089  1.0000
  H   H365      1.0  0.93751  0.73417  0.76732  1.0000
  Fe  Fe58      1.0  0.16800  0.07429  0.82480  1.0000
  H   H366      1.0  0.26624  0.14655  0.89966  1.0000
  C   C360      1.0  0.09156  0.79595  0.75983  1.0000
  H   H367      1.0  0.91727  0.87338  0.93153  1.0000
  H   H368      1.0  0.03308  0.18202  0.82383  1.0000
  H   H369      1.0  0.14154  0.93381  0.78576  1.0000
  C   C361      1.0  0.85200  0.95452  0.89343  1.0000
  H   H370      1.0  0.82645  0.94929  0.91744  1.0000
  H   H371      1.0  0.04295  0.01805  0.90324  1.0000
  H   H372      1.0  0.06319  0.76303  0.82473  1.0000
  H   H373      1.0  0.84019  0.99023  0.86143  1.0000
  H   H374      1.0  0.87842  0.17086  0.76166  1.0000
  S   S123      1.0  0.99953  0.84495  0.83665  1.0000
  H   H375      1.0  0.26185  0.88658  0.87469  1.0000
  H   H376      1.0  0.91684  0.11832  0.86204  1.0000
  H   H377      1.0  0.95210  0.19068  0.82437  1.0000
  S   S124      1.0  0.03406  0.86110  0.99848  1.0000
  Fe  Fe59      1.0  0.11234  0.18052  0.80632  1.0000
  C   C362      1.0  0.29602  0.90751  0.81184  1.0000
  H   H378      1.0  0.27367  0.17535  0.80343  1.0000
  H   H379      1.0  0.18195  0.11036  0.94977  1.0000
  H   H380      1.0  0.84975  0.15667  0.99956  1.0000
  C   C363      1.0  0.17389  0.91452  0.81691  1.0000
  C   C364      1.0  0.06161  0.79658  0.79337  1.0000
  N   N34       1.0  0.21375  0.91850  0.79498  1.0000
  S   S125      1.0  0.89138  0.07024  0.95759  1.0000
  C   C365      1.0  0.98242  0.07189  0.88769  1.0000
  H   H381      1.0  0.92435  0.79154  0.88537  1.0000
  C   C366      1.0  0.84078  0.72838  0.97173  1.0000
  H   H382      1.0  0.25199  0.00951  0.99992  1.0000
  C   C367      1.0  0.98399  0.99252  0.84030  1.0000
  C   C368      1.0  0.82719  0.85317  0.78867  1.0000
  H   H383      1.0  0.18027  0.93396  0.85698  1.0000
  Fe  Fe60      1.0  0.28107  0.75223  0.83540  1.0000
  C   C369      1.0  0.91595  0.96947  0.76590  1.0000
  Fe  Fe61      1.0  0.05423  0.84782  0.92028  1.0000
  C   C370      1.0  0.26163  0.05577  0.78895  1.0000
  C   C371      1.0  0.30403  0.16780  0.84040  1.0000
  H   H384      1.0  0.86559  0.77814  0.79406  1.0000
  S   S126      1.0  0.11311  0.78718  0.96598  1.0000
  H   H385      1.0  0.88543  0.96283  0.92394  1.0000
  H   H386      1.0  0.16822  0.87208  0.82650  1.0000
  S   S127      1.0  0.22799  0.85558  0.96942  1.0000
  C   C372      1.0  0.03065  0.84097  0.78749  1.0000
  C   C373      1.0  0.86329  0.81421  0.81408  1.0000
  C   C374      1.0  0.00668  0.02656  0.87952  1.0000
  Fe  Fe62      1.0  0.15715  0.85659  0.98065  1.0000
  C   C375      1.0  0.30002  0.15170  0.89430  1.0000
  H   H387      1.0  0.19063  0.01890  0.98835  1.0000
  H   H388      1.0  0.30595  0.91609  0.96838  1.0000
  H   H389      1.0  0.93037  0.92734  0.77839  1.0000
  C   C376      1.0  0.21177  0.17339  0.99846  1.0000
  H   H390      1.0  0.11512  0.76129  0.76456  1.0000
  C   C377      1.0  0.82407  0.89920  0.81543  1.0000
  H   H391      1.0  0.01074  0.72497  0.00161  1.0000
  Fe  Fe63      1.0  0.06613  0.08501  0.75676  1.0000
  H   H392      1.0  0.87821  0.97006  0.75978  1.0000
  C   C378      1.0  0.93483  0.06380  0.16273  1.0000
  C   C379      1.0  0.00552  0.79747  0.17862  1.0000
  C   C380      1.0  0.10336  0.04539  0.06182  1.0000
  H   H393      1.0  0.98550  0.08356  0.02430  1.0000
  C   C381      1.0  0.26270  0.88288  0.07830  1.0000
  C   C382      1.0  0.91529  0.11579  0.00657  1.0000
  C   C383      1.0  0.12336  0.13018  0.09780  1.0000
  H   H394      1.0  0.11698  0.85154  0.24220  1.0000
  Fe  Fe64      1.0  0.87478  0.94867  0.22776  1.0000
  Fe  Fe65      1.0  0.92226  0.83700  0.23879  1.0000
  C   C384      1.0  0.90377  0.18494  0.06466  1.0000
  H   H395      1.0  0.01725  0.14102  0.10203  1.0000
  C   C385      1.0  0.16623  0.10673  0.13240  1.0000
  C   C386      1.0  0.08944  0.73462  0.22028  1.0000
  H   H396      1.0  0.23767  0.85858  0.08920  1.0000
  H   H397      1.0  0.22854  0.99831  0.05874  1.0000
  N   N35       1.0  0.23120  0.07976  0.02905  1.0000
  C   C387      1.0  0.24342  0.18560  0.04888  1.0000
  H   H398      1.0  0.05917  0.11815  0.03542  1.0000
  C   C388      1.0  0.07357  0.75550  0.16273  1.0000
  S   S128      1.0  0.19979  0.14246  0.18518  1.0000
  C   C389      1.0  0.30223  0.91390  0.01084  1.0000
  H   H399      1.0  0.87725  0.99817  0.05210  1.0000
  C   C390      1.0  0.29169  0.91038  0.12006  1.0000
  Fe  Fe66      1.0  0.09667  0.80603  0.04541  1.0000
  S   S129      1.0  0.08654  0.11933  0.21760  1.0000
  Fe  Fe67      1.0  0.14681  0.16964  0.22585  1.0000
  C   C391      1.0  0.26358  0.09145  0.07751  1.0000
  S   S130      1.0  0.85904  0.80549  0.18137  1.0000
  C   C392      1.0  0.97972  0.04316  0.16922  1.0000
  C   C393      1.0  0.89774  0.04694  0.12099  1.0000
  S   S131      1.0  0.10646  0.74177  0.11743  1.0000
  H   H400      1.0  0.00843  0.05560  0.20227  1.0000
  H   H401      1.0  0.86273  0.06243  0.11608  1.0000
  S   S132      1.0  0.91925  0.91134  0.18113  1.0000
  H   H402      1.0  0.01881  0.80228  0.09731  1.0000
  H   H403      1.0  0.02236  0.99350  0.13541  1.0000
  Fe  Fe68      1.0  0.85368  0.88327  0.12636  1.0000
  S   S133      1.0  0.06038  0.00711  0.02373  1.0000
  C   C394      1.0  0.14696  0.02214  0.09490  1.0000
  H   H404      1.0  0.28429  0.05965  0.10839  1.0000
  C   C395      1.0  0.88618  0.15291  0.02101  1.0000
  H   H405      1.0  0.89164  0.70562  0.05338  1.0000
  C   C396      1.0  0.26687  0.88603  0.02312  1.0000
  H   H406      1.0  0.93006  0.92877  0.03819  1.0000
  S   S134      1.0  0.14390  0.87209  0.06275  1.0000
  H   H407      1.0  0.99123  0.92877  0.07129  1.0000
  H   H408      1.0  0.12178  0.71007  0.23644  1.0000
  C   C397      1.0  0.90624  0.01047  0.08513  1.0000
  H   H409      1.0  0.28777  0.90856  0.16238  1.0000
  H   H410      1.0  0.92879  0.09303  0.18998  1.0000
  H   H411      1.0  0.97262  0.82064  0.16206  1.0000
  C   C398      1.0  0.98717  0.00749  0.13195  1.0000
  C   C399      1.0  0.95898  0.95501  0.05121  1.0000
  H   H412      1.0  0.26132  0.75951  0.04831  1.0000
  S   S135      1.0  0.83730  0.89342  0.03097  1.0000
  C   C400      1.0  0.95084  0.18013  0.09452  1.0000
  C   C401      1.0  0.84123  0.83100  0.00662  1.0000
  C   C402      1.0  0.26994  0.14449  0.08831  1.0000
  C   C403      1.0  0.87011  0.78917  0.04256  1.0000
  H   H413      1.0  0.11321  0.17124  0.10070  1.0000
  H   H414      1.0  0.21164  0.03467  0.15724  1.0000
  C   C404      1.0  0.96288  0.11249  0.03487  1.0000
  C   C405      1.0  0.98072  0.14453  0.07914  1.0000
  H   H415      1.0  0.89248  0.79618  0.08402  1.0000
  C   C406      1.0  0.09240  0.09982  0.06175  1.0000
  N   N36       1.0  0.95055  0.99126  0.09091  1.0000
  C   C407      1.0  0.17866  0.05303  0.12996  1.0000
  H   H416      1.0  0.15559  0.98007  0.09522  1.0000
  C   C408      1.0  0.86987  0.73785  0.02510  1.0000
  C   C409      1.0  0.03168  0.78707  0.14192  1.0000
  H   H417      1.0  0.29522  0.15380  0.12701  1.0000
  C   C410      1.0  0.02180  0.77728  0.23634  1.0000
  Fe  Fe69      1.0  0.08331  0.92566  0.00874  1.0000
  C   C411      1.0  0.22521  0.02395  0.01853  1.0000
  C   C412      1.0  0.28649  0.72654  0.07001  1.0000
  H   H418      1.0  0.96247  0.97882  0.01272  1.0000
  Fe  Fe70      1.0  0.04352  0.19627  0.20574  1.0000
  H   H419      1.0  0.26615  0.94389  0.25338  1.0000
  H   H420      1.0  0.12607  0.88409  0.43189  1.0000
  H   H421      1.0  0.07477  0.81141  0.39489  1.0000
  C   C413      1.0  0.06149  0.84595  0.41013  1.0000
  C   C414      1.0  0.01862  0.99218  0.32192  1.0000
  Fe  Fe71      1.0  0.25798  0.91723  0.50471  1.0000
  C   C415      1.0  0.86103  0.94336  0.40420  1.0000
  C   C416      1.0  0.95617  0.07871  0.31805  1.0000
  H   H422      1.0  0.89760  0.94814  0.41668  1.0000
  S   S136      1.0  0.95709  0.12267  0.46374  1.0000
  H   H423      1.0  0.04253  0.95897  0.32211  1.0000
  H   H424      1.0  0.29415  0.11333  0.27226  1.0000
  H   H425      1.0  0.09789  0.10658  0.47068  1.0000
  S   S137      1.0  0.84099  0.14462  0.33616  1.0000
  S   S138      1.0  0.16363  0.16880  0.32067  1.0000
  C   C417      1.0  0.97095  0.98776  0.30039  1.0000
  H   H426      1.0  0.01634  0.11877  0.35858  1.0000
  C   C418      1.0  0.17412  0.99509  0.28878  1.0000
  C   C419      1.0  0.20447  0.78501  0.42834  1.0000
  C   C420      1.0  0.08986  0.88657  0.43026  1.0000
  C   C421      1.0  0.11853  0.14097  0.46577  1.0000
  Fe  Fe72      1.0  0.10066  0.12335  0.31124  1.0000
  C   C422      1.0  0.07106  0.93124  0.44787  1.0000
  C   C423      1.0  0.99765  0.89513  0.42676  1.0000
  C   C424      1.0  0.29207  0.07992  0.39408  1.0000
  S   S139      1.0  0.09444  0.04763  0.36217  1.0000
  H   H427      1.0  0.95855  0.95077  0.28544  1.0000
  C   C425      1.0  0.87864  0.70815  0.33312  1.0000
  C   C426      1.0  0.03508  0.03988  0.34162  1.0000
  Fe  Fe73      1.0  0.88152  0.14930  0.42755  1.0000
  S   S140      1.0  0.88413  0.83611  0.43475  1.0000
  H   H428      1.0  0.12050  0.14479  0.42139  1.0000
  S   S141      1.0  0.27493  0.77546  0.38118  1.0000
  C   C427      1.0  0.93975  0.03158  0.29663  1.0000
  C   C428      1.0  0.25429  0.06606  0.41232  1.0000
  C   C429      1.0  0.00386  0.08263  0.34108  1.0000
  S   S142      1.0  0.25063  0.91866  0.41151  1.0000
  H   H429      1.0  0.99304  0.81831  0.39449  1.0000
  C   C430      1.0  0.83003  0.98867  0.38403  1.0000
  C   C431      1.0  0.28775  0.16643  0.42804  1.0000
  H   H430      1.0  0.20675  0.08907  0.45680  1.0000
  Fe  Fe74      1.0  0.84883  0.76999  0.46787  1.0000
  S   S143      1.0  0.88336  0.87651  0.28999  1.0000
  H   H431      1.0  0.16886  0.81569  0.28976  1.0000
  Fe  Fe75      1.0  0.29620  0.84302  0.43427  1.0000
  S   S144      1.0  0.88115  0.02906  0.25954  1.0000
  C   C432      1.0  0.16633  0.76772  0.44365  1.0000
  C   C433      1.0  0.25170  0.15119  0.44926  1.0000
  C   C434      1.0  0.14813  0.71992  0.42701  1.0000
  C   C435      1.0  0.30770  0.13092  0.39979  1.0000
  H   H432      1.0  0.93219  0.11244  0.31607  1.0000
  Fe  Fe76      1.0  0.31667  0.95916  0.43140  1.0000
  H   H433      1.0  0.16021  0.03218  0.29865  1.0000
  C   C436      1.0  0.06381  0.74600  0.25722  1.0000
  H   H434      1.0  0.15187  0.79072  0.46996  1.0000
  C   C437      1.0  0.22510  0.75451  0.39650  1.0000
  C   C438      1.0  0.23415  0.10155  0.43998  1.0000
  S   S145      1.0  0.82917  0.10962  0.46199  1.0000
  H   H435      1.0  0.02684  0.01781  0.45998  1.0000
  H   H436      1.0  0.24154  0.02716  0.40750  1.0000
  H   H437      1.0  0.86830  0.74175  0.35260  1.0000
  N   N37       1.0  0.16982  0.90096  0.28077  1.0000
  H   H438      1.0  0.11955  0.94987  0.30268  1.0000
  S   S146      1.0  0.98990  0.79015  0.28291  1.0000
  H   H439      1.0  0.97064  0.99690  0.42877  1.0000
  H   H440      1.0  0.21796  0.82182  0.44198  1.0000
  H   H441      1.0  0.96157  0.89775  0.42500  1.0000
  C   C439      1.0  0.00496  0.98365  0.46028  1.0000
  H   H442      1.0  0.84331  0.02746  0.38054  1.0000
  S   S147      1.0  0.23563  0.18899  0.49703  1.0000
  H   H443      1.0  0.09320  0.96305  0.46245  1.0000
  H   H444      1.0  0.94879  0.72857  0.35026  1.0000
  H   H445      1.0  0.23362  0.02967  0.27381  1.0000
  N   N38       1.0  0.02509  0.93570  0.44438  1.0000
  C   C440      1.0  0.84462  0.89261  0.40830  1.0000
  C   C441      1.0  0.01535  0.84982  0.40939  1.0000
  C   C442      1.0  0.21547  0.99362  0.27491  1.0000
  H   H446      1.0  0.07639  0.73020  0.30186  1.0000
  H   H447      1.0  0.15408  0.13196  0.49516  1.0000
  C   C443      1.0  0.20599  0.70748  0.37786  1.0000
  C   C444      1.0  0.14520  0.85241  0.28292  1.0000
  C   C445      1.0  0.15145  0.94822  0.29125  1.0000
  N   N39       1.0  0.09885  0.19077  0.47839  1.0000
  C   C446      1.0  0.23364  0.94549  0.26343  1.0000
  C   C447      1.0  0.21015  0.89925  0.26642  1.0000
  H   H448      1.0  0.13016  0.85032  0.31898  1.0000
  C   C448      1.0  0.92405  0.70084  0.33105  1.0000
  H   H449      1.0  0.82597  0.99486  0.49658  1.0000
  S   S148      1.0  0.05309  0.19663  0.29895  1.0000
  C   C449      1.0  0.06527  0.18991  0.50513  1.0000
  H   H450      1.0  0.00078  0.97544  0.50337  1.0000
  H   H451      1.0  0.22487  0.86177  0.25837  1.0000
  H   H452      1.0  0.84247  0.14148  0.57618  1.0000
  C   C450      1.0  0.20775  0.93789  0.73935  1.0000
  H   H453      1.0  0.05296  0.15235  0.51721  1.0000
  S   S149      1.0  0.26655  0.77319  0.74131  1.0000
  C   C451      1.0  0.22551  0.79051  0.59653  1.0000
  H   H454      1.0  0.09423  0.75838  0.61627  1.0000
  C   C452      1.0  0.93587  0.11640  0.56396  1.0000
  C   C453      1.0  0.17395  0.08604  0.60743  1.0000
  C   C454      1.0  0.21973  0.02862  0.56678  1.0000
  S   S150      1.0  0.29903  0.83784  0.52622  1.0000
  H   H455      1.0  0.23774  0.10643  0.59217  1.0000
  C   C455      1.0  0.21300  0.07648  0.58945  1.0000
  C   C456      1.0  0.18755  0.98995  0.56226  1.0000
  H   H456      1.0  0.91059  0.86996  0.66568  1.0000
  Fe  Fe77      1.0  0.19150  0.77971  0.73740  1.0000
  S   S151      1.0  0.19497  0.92941  0.53431  1.0000
  H   H457      1.0  0.24109  0.95933  0.67513  1.0000
  S   S152      1.0  0.13604  0.84347  0.68932  1.0000
  N   N40       1.0  0.14954  0.75939  0.58036  1.0000
  S   S153      1.0  0.85757  0.76217  0.66868  1.0000
  C   C457      1.0  0.91429  0.19695  0.70195  1.0000
  H   H458      1.0  0.95308  0.93808  0.62581  1.0000
  C   C458      1.0  0.24328  0.73916  0.59359  1.0000
  H   H459      1.0  0.82622  0.86736  0.62181  1.0000
  H   H460      1.0  0.91896  0.11014  0.64304  1.0000
  S   S154      1.0  0.12931  0.05086  0.73947  1.0000
  C   C459      1.0  0.89226  0.89833  0.62914  1.0000
  C   C460      1.0  0.24590  0.94310  0.71888  1.0000
  C   C461      1.0  0.02876  0.88433  0.74683  1.0000
  H   H461      1.0  0.12416  0.96918  0.57865  1.0000
  C   C462      1.0  0.89201  0.97141  0.55873  1.0000
  C   C463      1.0  0.01600  0.05249  0.62462  1.0000
  H   H462      1.0  0.00537  0.91917  0.74268  1.0000
  C   C464      1.0  0.16690  0.70859  0.57928  1.0000
  H   H463      1.0  0.94599  0.17237  0.72418  1.0000
  S   S155      1.0  0.07042  0.16768  0.71754  1.0000
  S   S156      1.0  0.99695  0.05279  0.72583  1.0000
  H   H464      1.0  0.11174  0.05448  0.61668  1.0000
  S   S157      1.0  0.32099  0.96363  0.52363  1.0000
  C   C465      1.0  0.87600  0.19580  0.72263  1.0000
  S   S158      1.0  0.30472  0.19156  0.66100  1.0000
  C   C466      1.0  0.29032  0.92828  0.75560  1.0000
  H   H465      1.0  0.05997  0.91883  0.68502  1.0000
  Fe  Fe78      1.0  0.13661  0.13435  0.70661  1.0000
  C   C467      1.0  0.09198  0.84051  0.72195  1.0000
  H   H466      1.0  0.24794  0.82297  0.60474  1.0000
  H   H467      1.0  0.03356  0.05937  0.54595  1.0000
  Fe  Fe79      1.0  0.30055  0.18003  0.57063  1.0000
  S   S159      1.0  0.16345  0.14776  0.63152  1.0000
  H   H468      1.0  0.07866  0.74653  0.54158  1.0000
  H   H469      1.0  0.28586  0.08196  0.71785  1.0000
  H   H470      1.0  0.90619  0.14341  0.54145  1.0000
  H   H471      1.0  0.08869  0.81257  0.56145  1.0000
  H   H472      1.0  0.92146  0.98373  0.72462  1.0000
  C   C468      1.0  0.14895  0.99911  0.58130  1.0000
  C   C469      1.0  0.94329  0.09809  0.62148  1.0000
  H   H473      1.0  0.91009  0.00095  0.54055  1.0000
  C   C470      1.0  0.91607  0.93620  0.60651  1.0000
  C   C471      1.0  0.05966  0.88418  0.71415  1.0000
  H   H474      1.0  0.27988  0.73087  0.59872  1.0000
  C   C472      1.0  0.84454  0.89662  0.60382  1.0000
  C   C473      1.0  0.00817  0.06996  0.56674  1.0000
  H   H475      1.0  0.24959  0.02219  0.55226  1.0000
  C   C474      1.0  0.14217  0.04705  0.60364  1.0000
  H   H476      1.0  0.85341  0.06832  0.65488  1.0000
  C   C475      1.0  0.98360  0.06677  0.65196  1.0000
  H   H477      1.0  0.16494  0.84023  0.59124  1.0000
  C   C476      1.0  0.96791  0.10173  0.53632  1.0000
  H   H478      1.0  0.17338  0.94949  0.71035  1.0000
  H   H479      1.0  0.04724  0.02820  0.64828  1.0000
  C   C477      1.0  0.84441  0.96797  0.53410  1.0000
  C   C478      1.0  0.10028  0.76963  0.57459  1.0000
  C   C479      1.0  0.17831  0.80003  0.58938  1.0000
  H   H480      1.0  0.32026  0.93377  0.74071  1.0000
  S   S160      1.0  0.88946  0.71093  0.54124  1.0000
  Fe  Fe80      1.0  0.83519  0.73443  0.58144  1.0000
  C   C480      1.0  0.87478  0.70445  0.71601  1.0000
