data_image0
_chemical_formula_structural       FeSHC2H3FeSHNHCHCSFeHSCHC4HS2CHCH2C2HCHCFeC2HC5SHCFeNH2FeSC2NCFeH2SCSFeSFeH5SH2CHFeHSC3FeHFeSCH2S4HCH2CHCHSCSCHC4HCSC2FeSHC7H2FeH4CHNSH2SC2SCH4CNH3CHCH2SFeHFeHFeHFeHNSCSC2SCH3CHSHSH2C2SHC2H4SCH2CHC2H2NCHFeC2H4C4SCSHSHC3SHSC4H2C3HCHFeHSCH2C3HNHSHFeHNHC3H2NH2C4HCHC3HCH2C5H3C3HNH2C4NCHSHFeH2C2SC2SCHC2HSCHSHCHCFeH3C3FeCFeH4CFeHFeC2HCSCS2CHSHCSCFeCH4CHFeCH3C6HCFeHCSCHNHSH2SH3SC3FeCHSC2H4C2HC2HCHCH3CHC3SC2HCSH3C3HSCH3SC2H2FeH4SHSC2HCHSH3CHCH2SHC3HCH2NH6C2HCH2C2S2HCSC2S2HCH2SFeC2SHCHC4H4C4FeHCNC4H2CHC2SHSCHC2HCFeHFeHSHFeC3HNHC2H3C3H4CHC2NHNC2HC3H2SCHCSH5C2HNSHCHC4HCHC2H2CSFeH2SC2H2CHFeC2HCFeSCNH2SHC2NH2C2HSC2SHS2C2H2CNHC4HSCH3FeCHCFeHCHCH4CNFeCS3HCHC2SCFeH2CH2SCFeC3HC2HC2H2SNC3HFeCH3SH5CH2CH2CHFeSHCHCSHC2HFeHCHSCS2CHSCHS2H2SH2CHFeH2FeCSHCH2C5HC2SHC3H2CSHCFeH5C2HCHSFeC2H3CFe2CH2CSC2SH2NHC4H5CFeCNC2H2SCSHC2SHCSCHCH2S2HSFe2CH2C3NC2H2NHSHCFeH4CSHSC5NCHC2HCHS2H2SHC2HC2H6CSHC2H3CSHC2FeHSNCFeNHSCS2CHCSCHC4HCHC2SH2CFeH2FeCHCSCFeHCFeC6SH2C3SH2FeH2CS2CH2SFeC2HCSHCH2CHN2HCH6S2FeNHC2HC4HCHCHFeH2C2FeCSHFe2CHSFeCFeCSC4H4C2HFeH2CH2NCSHSNHCHSCH4CHCSHC3H2C3HC5HCSC3SCH3SFeH2SH3NCH2SC3H2FeH3C3S2NC5H6CHFeCFe2SH4SHSHCSC4H4C2SHSCHFeCFe2H2S2CNCHC2FeSC2NHCH3CHC2H2SH3CH4NHSH3SC5HFeSNCH3C3Fe2H2C4S2CH2C2FeCHC4HCS2CHC2SH2CFeHC2SC2HCSHC2H2SH2SCSCFeC3H3C2HSH2C2HCHCSCH3CH3SHCNCH2C3NSNHC3NSFeH3CSHCHCSCHC3FeC2H4CH3CHCHCHFeCSCS2FeHCHFeC10SH2CHFeC2SH4S2CHSH2C2H5SC2H2CHSH2C2HCS2H2SC2FeSCNCH2C2H2CHCFeCHC2H2SH5C2H4SH2CH2FeHSFeCHFeC2SFeH2CH3CHCHC2HCH4C2FeC3HCHC2HC3SCSHCHNHSHCHC2NCSCHCSC2H2FeHCFeCHC2SCHCFeH2SCH2SH2S3C2SC2HCNHNFeSH3C4HFeC3HSHFeHC3NH3CNH3SFeHSCNCHFeCH2CH2FeCH5CH2CH2CSCSH3C2HSHCHCHCHCSC2SH2CH2C2HCHSHCH2C4FeCH2SH2CNHC2HC2H2NHNHSCHCH2SCH2CFeC2S3CHCHCSHC2H3CH2SHC2FeHCFeHCHC3H3FeHCH2SC3SH2C2HCSHC2SC2HCNC2HC3H2C2SC2HCSHCFeC2HSHSHSCSH4CFeSFeCHSCHC2FeC2HCHFe2HC2SHCHC2HCH2FeS2CHC2H2SHSH7CH2CHCHNC2HNCH5C2HCFeSCSCHCNCH3CH2CHFeC2SCHNHSCH2CH2C5H2FeC5HSH2SHC2HCHC2NCH3CS2HNHSCH3SH2CHCHFeSFeNC3FeSH3C2HC2HSC3HCHCSHCHFeCNC2HC2SH2C2HCH2C2SFeHC3NHCHSC4HC2H2CHSHCHS2C3HC4H2CHCSC3FeHCSFeC2S2CNCFeHFeCS3HCHCH2CH3C2H2FeC2H2CH5CNHCHCH3CHSHS2CHNC2HC3HCH2CSHC3FeNC3FeH3C2H3CH2CSH3CFeHFeC2HFeC2FeC3HCH2SHSCH3SFeCHC2FeCFeSNCHS3H2C3H2CHCH2CSCH2S2C2NCH2SNHCHCSCSCHSC2S2HCSC2HFeH3C2HCHS2CHCHSC3Fe2CSFeNSH3CHC2SC3HC2HC2S2NHC4HC3HNCFe2H4S2CHCNH2SHS2CHFeCFeC2H2Fe2SC5HSHFeC4H5NSHFeH3CSFeC2HCHCHC4H2CH2CSHCHCH2C3H2S2CH3FeCHCH3SH2C2S2C2HNCHSH2C4H4CFeH2S
_chemical_formula_sum              "Fe160 S320 H960 C960 N80"
_cell_length_a       46.6459
_cell_length_b       40.0968
_cell_length_c       21.5185
_cell_angle_alpha    79.6496
_cell_angle_beta     68.601
_cell_angle_gamma    90.9331

_space_group_name_H-M_alt    "P 1"
_space_group_IT_number       1

loop_
  _space_group_symop_operation_xyz
  'x, y, z'

loop_
  _atom_site_type_symbol
  _atom_site_label
  _atom_site_symmetry_multiplicity
  _atom_site_fract_x
  _atom_site_fract_y
  _atom_site_fract_z
  _atom_site_occupancy
  Fe  Fe1       1.0  0.27574  0.44123  0.01324  1.0000
  S   S1        1.0  0.01646  0.09926  0.93126  1.0000
  H   H1        1.0  0.07641  0.24172  0.06389  1.0000
  C   C1        1.0  0.05364  0.53238  0.04772  1.0000
  C   C2        1.0  0.15978  0.52384  0.91561  1.0000
  H   H2        1.0  0.07320  0.55061  0.03555  1.0000
  H   H3        1.0  0.39076  0.18374  0.92955  1.0000
  H   H4        1.0  0.32047  0.53432  0.92375  1.0000
  Fe  Fe2       1.0  0.05449  0.36323  0.05614  1.0000
  S   S2        1.0  0.38719  0.32798  0.97018  1.0000
  H   H5        1.0  0.92962  0.31443  0.10008  1.0000
  N   N1        1.0  0.36111  0.15806  0.10608  1.0000
  H   H6        1.0  0.12922  0.31285  0.15276  1.0000
  C   C3        1.0  0.00013  0.41941  0.95310  1.0000
  H   H7        1.0  0.98406  0.46703  0.08978  1.0000
  C   C4        1.0  0.33587  0.10587  0.10366  1.0000
  S   S3        1.0  0.92431  0.08470  0.03164  1.0000
  Fe  Fe3       1.0  0.97168  0.10847  0.01005  1.0000
  H   H8        1.0  0.05685  0.47279  0.91997  1.0000
  S   S4        1.0  0.26725  0.20444  0.04071  1.0000
  C   C5        1.0  0.38790  0.54091  0.00172  1.0000
  H   H9        1.0  0.32553  0.32252  0.91584  1.0000
  C   C6        1.0  0.00312  0.48527  0.07975  1.0000
  C   C7        1.0  0.10314  0.29622  0.93384  1.0000
  C   C8        1.0  0.20019  0.41156  0.93787  1.0000
  C   C9        1.0  0.30744  0.11973  0.12436  1.0000
  H   H10       1.0  0.12334  0.30147  0.94539  1.0000
  S   S5        1.0  0.09362  0.48306  0.04575  1.0000
  S   S6        1.0  0.27635  0.48925  0.05190  1.0000
  C   C10       1.0  0.00706  0.29825  0.07291  1.0000
  H   H11       1.0  0.35374  0.33195  0.13569  1.0000
  C   C11       1.0  0.40228  0.56103  0.03078  1.0000
  H   H12       1.0  0.20877  0.34455  0.08072  1.0000
  H   H13       1.0  0.38451  0.11445  0.08070  1.0000
  C   C12       1.0  0.96367  0.47283  0.98087  1.0000
  C   C13       1.0  0.41018  0.38695  0.15471  1.0000
  H   H14       1.0  0.95849  0.38640  0.01210  1.0000
  C   C14       1.0  0.02415  0.54344  0.05865  1.0000
  H   H15       1.0  0.09057  0.21453  0.00228  1.0000
  C   C15       1.0  0.06100  0.25853  0.94492  1.0000
  Fe  Fe4       1.0  0.17792  0.21110  0.95266  1.0000
  C   C16       1.0  0.99884  0.22780  0.12308  1.0000
  C   C17       1.0  0.29770  0.14118  0.93170  1.0000
  H   H16       1.0  0.31754  0.35757  0.95918  1.0000
  C   C18       1.0  0.35134  0.25414  0.95344  1.0000
  C   C19       1.0  0.01548  0.28465  0.12771  1.0000
  C   C20       1.0  0.05765  0.49763  0.05352  1.0000
  C   C21       1.0  0.30613  0.15291  0.13598  1.0000
  C   C22       1.0  0.35363  0.51230  0.11466  1.0000
  S   S7        1.0  0.19236  0.15190  0.09731  1.0000
  H   H17       1.0  0.34976  0.41196  0.14662  1.0000
  C   C23       1.0  0.36718  0.53341  0.14328  1.0000
  Fe  Fe5       1.0  0.12537  0.37053  0.00204  1.0000
  N   N2        1.0  0.27776  0.32540  0.97585  1.0000
  H   H18       1.0  0.33203  0.19707  0.13807  1.0000
  H   H19       1.0  0.37719  0.44156  0.07522  1.0000
  Fe  Fe6       1.0  0.22955  0.46868  0.12917  1.0000
  S   S8        1.0  0.99530  0.18377  0.15259  1.0000
  C   C24       1.0  0.99372  0.27673  0.04451  1.0000
  C   C25       1.0  0.22062  0.08063  0.93758  1.0000
  N   N3        1.0  0.01314  0.45223  0.92938  1.0000
  C   C26       1.0  0.32315  0.23804  0.00019  1.0000
  Fe  Fe7       1.0  0.22426  0.19488  0.02128  1.0000
  H   H20       1.0  0.98732  0.28721  0.00190  1.0000
  H   H21       1.0  0.22863  0.28792  0.92039  1.0000
  S   S9        1.0  0.21820  0.17923  0.93204  1.0000
  C   C27       1.0  0.34666  0.16378  0.93343  1.0000
  S   S10       1.0  0.08940  0.32963  0.07488  1.0000
  Fe  Fe8       1.0  0.03439  0.09346  0.01588  1.0000
  S   S11       1.0  0.09049  0.40175  0.97654  1.0000
  Fe  Fe9       1.0  0.18364  0.13809  0.00946  1.0000
  H   H22       1.0  0.93388  0.13146  0.11096  1.0000
  H   H23       1.0  0.19049  0.31206  0.01191  1.0000
  H   H24       1.0  0.36799  0.26226  0.97230  1.0000
  H   H25       1.0  0.11671  0.24558  0.00891  1.0000
  H   H26       1.0  0.92571  0.43417  0.03530  1.0000
  S   S12       1.0  0.14296  0.16906  0.02447  1.0000
  H   H27       1.0  0.35298  0.50009  0.02156  1.0000
  H   H28       1.0  0.01420  0.39838  0.94227  1.0000
  C   C28       1.0  0.21497  0.31538  0.00246  1.0000
  H   H29       1.0  0.41036  0.16800  0.06611  1.0000
  Fe  Fe10      1.0  0.00212  0.15430  0.06991  1.0000
  H   H30       1.0  0.02076  0.57010  0.05504  1.0000
  S   S13       1.0  0.04956  0.14869  0.99828  1.0000
  C   C29       1.0  0.33140  0.31866  0.14825  1.0000
  C   C30       1.0  0.12714  0.08342  0.15462  1.0000
  C   C31       1.0  0.38916  0.17796  0.09876  1.0000
  Fe  Fe11      1.0  0.39961  0.28985  0.04334  1.0000
  H   H31       1.0  0.38916  0.20489  0.07491  1.0000
  Fe  Fe12      1.0  0.29419  0.46000  0.12645  1.0000
  S   S14       1.0  0.98289  0.16503  0.98778  1.0000
  C   C32       1.0  0.98996  0.24146  0.06903  1.0000
  H   H32       1.0  0.33723  0.07985  0.09598  1.0000
  H   H33       1.0  0.28751  0.14628  0.98405  1.0000
  S   S15       1.0  0.12637  0.39734  0.08418  1.0000
  S   S16       1.0  0.22797  0.42178  0.08681  1.0000
  S   S17       1.0  0.01432  0.34182  0.03766  1.0000
  S   S18       1.0  0.96196  0.53375  0.09083  1.0000
  H   H34       1.0  0.37822  0.39692  0.07728  1.0000
  C   C33       1.0  0.99537  0.47884  0.94228  1.0000
  H   H35       1.0  0.16192  0.51322  0.96497  1.0000
  H   H36       1.0  0.94974  0.49400  0.99231  1.0000
  C   C34       1.0  0.95028  0.43937  0.00585  1.0000
  H   H37       1.0  0.17824  0.42011  0.96560  1.0000
  C   C35       1.0  0.10965  0.08746  0.11373  1.0000
  H   H38       1.0  0.98020  0.22492  0.04602  1.0000
  S   S19       1.0  0.16733  0.36016  0.91654  1.0000
  C   C36       1.0  0.92183  0.30251  0.06686  1.0000
  S   S20       1.0  0.18736  0.23075  0.03502  1.0000
  C   C37       1.0  0.96859  0.41248  0.99216  1.0000
  H   H39       1.0  0.22654  0.44991  0.95816  1.0000
  C   C38       1.0  0.30082  0.22680  0.97814  1.0000
  C   C39       1.0  0.25687  0.33864  0.02646  1.0000
  C   C40       1.0  0.39116  0.55806  0.10135  1.0000
  C   C41       1.0  0.37400  0.41638  0.10970  1.0000
  H   H40       1.0  0.40115  0.57473  0.12381  1.0000
  C   C42       1.0  0.08374  0.10598  0.13143  1.0000
  S   S21       1.0  0.18471  0.08316  0.00023  1.0000
  C   C43       1.0  0.99880  0.51982  0.07573  1.0000
  C   C44       1.0  0.33330  0.17164  0.12741  1.0000
  Fe  Fe13      1.0  0.15495  0.18675  0.10558  1.0000
  S   S22       1.0  0.36199  0.26101  0.13705  1.0000
  H   H41       1.0  0.31534  0.31478  0.00682  1.0000
  C   C45       1.0  0.36335  0.51654  0.04379  1.0000
  C   C46       1.0  0.23644  0.30187  0.95092  1.0000
  C   C47       1.0  0.36261  0.12557  0.09473  1.0000
  C   C48       1.0  0.22520  0.33383  0.04065  1.0000
  C   C49       1.0  0.03252  0.47424  0.06782  1.0000
  C   C50       1.0  0.31071  0.33028  0.96370  1.0000
  C   C51       1.0  0.09270  0.24062  0.01173  1.0000
  H   H42       1.0  0.39655  0.54320  0.94704  1.0000
  H   H43       1.0  0.07063  0.10976  0.09879  1.0000
  Fe  Fe14      1.0  0.08941  0.42639  0.06250  1.0000
  H   H44       1.0  0.39032  0.17691  0.14966  1.0000
  H   H45       1.0  0.04751  0.23407  0.96611  1.0000
  H   H46       1.0  0.26469  0.35314  0.05604  1.0000
  H   H47       1.0  0.00587  0.50486  0.92471  1.0000
  C   C52       1.0  0.22759  0.42842  0.93369  1.0000
  H   H48       1.0  0.33576  0.16155  0.98791  1.0000
  N   N4        1.0  0.08579  0.26557  0.96150  1.0000
  S   S23       1.0  0.29921  0.41432  0.07868  1.0000
  H   H49       1.0  0.03564  0.44762  0.06931  1.0000
  H   H50       1.0  0.31860  0.23447  0.05395  1.0000
  S   S24       1.0  0.98878  0.09830  0.09573  1.0000
  C   C53       1.0  0.30303  0.55164  0.92225  1.0000
  C   C54       1.0  0.21750  0.54723  0.12767  1.0000
  S   S25       1.0  0.05017  0.39058  0.14072  1.0000
  C   C55       1.0  0.26796  0.30705  0.93836  1.0000
  H   H51       1.0  0.29602  0.11328  0.93490  1.0000
  H   H52       1.0  0.13714  0.53500  0.92728  1.0000
  H   H53       1.0  0.93209  0.20808  0.00646  1.0000
  H   H54       1.0  0.14284  0.25628  0.12893  1.0000
  C   C56       1.0  0.32882  0.28346  0.15287  1.0000
  N   N5        1.0  0.39515  0.41540  0.14618  1.0000
  H   H55       1.0  0.28643  0.10465  0.13246  1.0000
  H   H56       1.0  0.28412  0.16396  0.15253  1.0000
  H   H57       1.0  0.92460  0.25160  0.11498  1.0000
  C   C57       1.0  0.01113  0.24945  0.15317  1.0000
  H   H58       1.0  0.40714  0.36537  0.13314  1.0000
  C   C58       1.0  0.24357  0.54739  0.14519  1.0000
  H   H59       1.0  0.05202  0.15987  0.15465  1.0000
  H   H60       1.0  0.02528  0.30125  0.15064  1.0000
  S   S26       1.0  0.19564  0.50846  0.14235  1.0000
  Fe  Fe15      1.0  0.25152  0.39711  0.15469  1.0000
  H   H61       1.0  0.20167  0.08270  0.16082  1.0000
  Fe  Fe16      1.0  0.08732  0.35943  0.15508  1.0000
  H   H62       1.0  0.11658  0.07729  0.06748  1.0000
  Fe  Fe17      1.0  0.92486  0.49316  0.15975  1.0000
  H   H63       1.0  0.12083  0.50208  0.15414  1.0000
  Fe  Fe18      1.0  0.02948  0.15505  0.91725  1.0000
  H   H64       1.0  0.03715  0.49836  0.21330  1.0000
  N   N6        1.0  0.94439  0.33043  0.30067  1.0000
  S   S27       1.0  0.01956  0.08280  0.36182  1.0000
  C   C59       1.0  0.07761  0.41910  0.27794  1.0000
  S   S28       1.0  0.38795  0.09800  0.21641  1.0000
  C   C60       1.0  0.07708  0.26397  0.29724  1.0000
  C   C61       1.0  0.05999  0.50614  0.21411  1.0000
  S   S29       1.0  0.09946  0.07741  0.38499  1.0000
  C   C62       1.0  0.22550  0.10277  0.28259  1.0000
  H   H65       1.0  0.97646  0.53608  0.33293  1.0000
  H   H66       1.0  0.38736  0.46533  0.16619  1.0000
  H   H67       1.0  0.33550  0.24661  0.28556  1.0000
  C   C63       1.0  0.98952  0.49755  0.39864  1.0000
  H   H68       1.0  0.14570  0.26717  0.29375  1.0000
  S   S30       1.0  0.01638  0.52490  0.40925  1.0000
  H   H69       1.0  0.36713  0.37138  0.28356  1.0000
  S   S31       1.0  0.11926  0.18851  0.20799  1.0000
  H   H70       1.0  0.23522  0.12619  0.17782  1.0000
  H   H71       1.0  0.23151  0.25129  0.32121  1.0000
  C   C64       1.0  0.99790  0.14554  0.36004  1.0000
  C   C65       1.0  0.26002  0.36838  0.41096  1.0000
  S   S32       1.0  0.28184  0.28400  0.34851  1.0000
  H   H72       1.0  0.34275  0.43798  0.38465  1.0000
  C   C66       1.0  0.99502  0.17772  0.37695  1.0000
  C   C67       1.0  0.41800  0.44179  0.21097  1.0000
  H   H73       1.0  0.01406  0.28196  0.31078  1.0000
  H   H74       1.0  0.92469  0.28284  0.29659  1.0000
  H   H75       1.0  0.07279  0.20911  0.32034  1.0000
  H   H76       1.0  0.92535  0.36220  0.23902  1.0000
  S   S33       1.0  0.24951  0.13245  0.29525  1.0000
  C   C68       1.0  0.94427  0.29638  0.29984  1.0000
  H   H77       1.0  0.30667  0.36265  0.16774  1.0000
  H   H78       1.0  0.21917  0.18901  0.34155  1.0000
  C   C69       1.0  0.36197  0.33758  0.37705  1.0000
  H   H79       1.0  0.12205  0.39876  0.24993  1.0000
  C   C70       1.0  0.99455  0.33037  0.30826  1.0000
  C   C71       1.0  0.26650  0.37541  0.34112  1.0000
  H   H80       1.0  0.32529  0.34056  0.26622  1.0000
  H   H81       1.0  0.01426  0.34388  0.31100  1.0000
  N   N7        1.0  0.30173  0.40889  0.39506  1.0000
  C   C72       1.0  0.92753  0.08124  0.34880  1.0000
  H   H82       1.0  0.29539  0.40603  0.24448  1.0000
  Fe  Fe19      1.0  0.02892  0.57419  0.33210  1.0000
  C   C73       1.0  0.15547  0.21495  0.31672  1.0000
  C   C74       1.0  0.01558  0.12276  0.38420  1.0000
  H   H83       1.0  0.39106  0.28646  0.30168  1.0000
  H   H84       1.0  0.40425  0.25439  0.20741  1.0000
  H   H85       1.0  0.13382  0.20480  0.31703  1.0000
  H   H86       1.0  0.17907  0.14226  0.37494  1.0000
  C   C75       1.0  0.97285  0.50971  0.35822  1.0000
  C   C76       1.0  0.10851  0.47879  0.18917  1.0000
  C   C77       1.0  0.30771  0.41679  0.32671  1.0000
  C   C78       1.0  0.96930  0.27848  0.30347  1.0000
  S   S34       1.0  0.24747  0.44168  0.20626  1.0000
  C   C79       1.0  0.33086  0.33151  0.31030  1.0000
  S   S35       1.0  0.24202  0.34136  0.20147  1.0000
  H   H87       1.0  0.05061  0.15782  0.23889  1.0000
  S   S36       1.0  0.32704  0.47857  0.16884  1.0000
  H   H88       1.0  0.05659  0.51977  0.25646  1.0000
  C   C80       1.0  0.12514  0.45087  0.19848  1.0000
  C   C81       1.0  0.11672  0.29026  0.18924  1.0000
  C   C82       1.0  0.18948  0.26337  0.30581  1.0000
  S   S37       1.0  0.08063  0.33330  0.26091  1.0000
  H   H89       1.0  0.02760  0.12621  0.22258  1.0000
  S   S38       1.0  0.39052  0.36091  0.39073  1.0000
  C   C83       1.0  0.96919  0.34756  0.30422  1.0000
  C   C84       1.0  0.31265  0.30420  0.36024  1.0000
  C   C85       1.0  0.41672  0.12477  0.22059  1.0000
  C   C86       1.0  0.27338  0.28440  0.18280  1.0000
  H   H90       1.0  0.30272  0.21658  0.30708  1.0000
  H   H91       1.0  0.93077  0.09685  0.38254  1.0000
  C   C87       1.0  0.05009  0.14189  0.20194  1.0000
  C   C88       1.0  0.16916  0.15659  0.33943  1.0000
  C   C89       1.0  0.16204  0.25023  0.30389  1.0000
  H   H92       1.0  0.34050  0.20540  0.26147  1.0000
  C   C90       1.0  0.21003  0.24121  0.31998  1.0000
  H   H93       1.0  0.98162  0.19528  0.35748  1.0000
  Fe  Fe20      1.0  0.27687  0.10049  0.34459  1.0000
  H   H94       1.0  0.14391  0.14913  0.36098  1.0000
  S   S39       1.0  0.31644  0.12291  0.36293  1.0000
  C   C91       1.0  0.99451  0.29560  0.30796  1.0000
  H   H95       1.0  0.19480  0.29068  0.29655  1.0000
  H   H96       1.0  0.96946  0.37470  0.30371  1.0000
  C   C92       1.0  0.94427  0.45429  0.38821  1.0000
  C   C93       1.0  0.35493  0.34868  0.31946  1.0000
  C   C94       1.0  0.39880  0.44257  0.17385  1.0000
  H   H97       1.0  0.93732  0.49786  0.32219  1.0000
  N   N8        1.0  0.07555  0.12000  0.18813  1.0000
  H   H98       1.0  0.96932  0.25155  0.30229  1.0000
  S   S40       1.0  0.93379  0.44101  0.20203  1.0000
  H   H99       1.0  0.01803  0.23891  0.19504  1.0000
  Fe  Fe21      1.0  0.34387  0.08519  0.30662  1.0000
  H   H100      1.0  0.07260  0.52387  0.16484  1.0000
  N   N9        1.0  0.33063  0.20546  0.36660  1.0000
  H   H101      1.0  0.05818  0.26613  0.34336  1.0000
  C   C95       1.0  0.35736  0.19186  0.36661  1.0000
  C   C96       1.0  0.20390  0.08081  0.20962  1.0000
  C   C97       1.0  0.06168  0.44747  0.26732  1.0000
  H   H102      1.0  0.98647  0.13845  0.32808  1.0000
  H   H103      1.0  0.35937  0.53051  0.19807  1.0000
  N   N10       1.0  0.07712  0.47658  0.22262  1.0000
  H   H104      1.0  0.03689  0.44614  0.29491  1.0000
  H   H105      1.0  0.25308  0.36178  0.32003  1.0000
  C   C98       1.0  0.12455  0.25815  0.17565  1.0000
  C   C99       1.0  0.08506  0.23176  0.28372  1.0000
  C   C100      1.0  0.41505  0.28404  0.27159  1.0000
  C   C101      1.0  0.10870  0.22887  0.22262  1.0000
  H   H106      1.0  0.29736  0.23910  0.17418  1.0000
  C   C102      1.0  0.41407  0.13492  0.28120  1.0000
  H   H107      1.0  0.37601  0.19073  0.31905  1.0000
  C   C103      1.0  0.95046  0.48802  0.35248  1.0000
  C   C104      1.0  0.20291  0.20606  0.33151  1.0000
  C   C105      1.0  0.30476  0.33633  0.16463  1.0000
  H   H108      1.0  0.24924  0.52412  0.17067  1.0000
  C   C106      1.0  0.29037  0.40000  0.29868  1.0000
  H   H109      1.0  0.08426  0.12454  0.27686  1.0000
  H   H110      1.0  0.13208  0.09454  0.24407  1.0000
  C   C107      1.0  0.09270  0.29317  0.24951  1.0000
  C   C108      1.0  0.22289  0.10527  0.21920  1.0000
  C   C109      1.0  0.10952  0.42081  0.24296  1.0000
  C   C110      1.0  0.27565  0.31936  0.18160  1.0000
  C   C111      1.0  0.11801  0.09683  0.21342  1.0000
  H   H111      1.0  0.39417  0.12542  0.32728  1.0000
  H   H112      1.0  0.14994  0.45256  0.17084  1.0000
  H   H113      1.0  0.06533  0.39584  0.31270  1.0000
  C   C112      1.0  0.32732  0.21911  0.30197  1.0000
  C   C113      1.0  0.09132  0.11411  0.23091  1.0000
  C   C114      1.0  0.29972  0.26628  0.17065  1.0000
  H   H114      1.0  0.25124  0.27126  0.19321  1.0000
  N   N11       1.0  0.17573  0.19338  0.33042  1.0000
  H   H115      1.0  0.17912  0.14895  0.28930  1.0000
  H   H116      1.0  0.32598  0.43614  0.29346  1.0000
  C   C115      1.0  0.98707  0.57250  0.64435  1.0000
  C   C116      1.0  0.07138  0.48764  0.65970  1.0000
  C   C117      1.0  0.98390  0.46352  0.43294  1.0000
  C   C118      1.0  0.23648  0.15353  0.57891  1.0000
  N   N12       1.0  0.04659  0.48122  0.58168  1.0000
  C   C119      1.0  0.25964  0.47724  0.62547  1.0000
  H   H117      1.0  0.09218  0.18343  0.44667  1.0000
  S   S41       1.0  0.00058  0.22448  0.44999  1.0000
  H   H118      1.0  0.37410  0.08061  0.57362  1.0000
  Fe  Fe22      1.0  0.37182  0.36232  0.50242  1.0000
  H   H119      1.0  0.94739  0.52970  0.52769  1.0000
  H   H120      1.0  0.08425  0.28363  0.44339  1.0000
  C   C120      1.0  0.93631  0.37239  0.62149  1.0000
  C   C121      1.0  0.11076  0.11582  0.54091  1.0000
  S   S42       1.0  0.19624  0.30071  0.44258  1.0000
  C   C122      1.0  0.37729  0.18459  0.59572  1.0000
  C   C123      1.0  0.27192  0.44717  0.64402  1.0000
  S   S43       1.0  0.21060  0.22260  0.48534  1.0000
  C   C124      1.0  0.30740  0.20760  0.42658  1.0000
  H   H121      1.0  0.29207  0.19727  0.53626  1.0000
  C   C125      1.0  0.03034  0.13218  0.42528  1.0000
  C   C126      1.0  0.09713  0.13401  0.49896  1.0000
  H   H122      1.0  0.04334  0.11419  0.44498  1.0000
  S   S44       1.0  0.32264  0.34103  0.55935  1.0000
  C   C127      1.0  0.33649  0.17919  0.48936  1.0000
  H   H123      1.0  0.95630  0.41599  0.45649  1.0000
  S   S45       1.0  0.19094  0.36146  0.56405  1.0000
  H   H124      1.0  0.03785  0.17133  0.47604  1.0000
  C   C128      1.0  0.07552  0.27420  0.57155  1.0000
  H   H125      1.0  0.03952  0.46920  0.49568  1.0000
  C   C129      1.0  0.12164  0.18702  0.50269  1.0000
  Fe  Fe23      1.0  0.30247  0.08036  0.45449  1.0000
  H   H126      1.0  0.37538  0.27015  0.57814  1.0000
  H   H127      1.0  0.32511  0.40821  0.46308  1.0000
  H   H128      1.0  0.37484  0.08915  0.65309  1.0000
  C   C130      1.0  0.12944  0.13336  0.56490  1.0000
  C   C131      1.0  0.31027  0.19511  0.48875  1.0000
  C   C132      1.0  0.34511  0.30885  0.42496  1.0000
  Fe  Fe24      1.0  0.94908  0.21851  0.48920  1.0000
  C   C133      1.0  0.02032  0.14809  0.63972  1.0000
  Fe  Fe25      1.0  0.37636  0.38221  0.62941  1.0000
  H   H129      1.0  0.01113  0.23563  0.57115  1.0000
  H   H130      1.0  0.06084  0.56462  0.57873  1.0000
  H   H131      1.0  0.14952  0.18237  0.56414  1.0000
  H   H132      1.0  0.30583  0.27203  0.45712  1.0000
  C   C134      1.0  0.15639  0.37200  0.62169  1.0000
  Fe  Fe26      1.0  0.20563  0.23455  0.58614  1.0000
  H   H133      1.0  0.04346  0.27987  0.46039  1.0000
  Fe  Fe27      1.0  0.33815  0.31761  0.64230  1.0000
  C   C135      1.0  0.99087  0.15428  0.63966  1.0000
  C   C136      1.0  0.36834  0.24362  0.59963  1.0000
  H   H134      1.0  0.08218  0.12068  0.48176  1.0000
  C   C137      1.0  0.06036  0.53719  0.59309  1.0000
  S   S46       1.0  0.36478  0.41065  0.54291  1.0000
  C   C138      1.0  0.31975  0.29295  0.41790  1.0000
  S   S47       1.0  0.27613  0.41497  0.59774  1.0000
  S   S48       1.0  0.38804  0.33601  0.58306  1.0000
  C   C139      1.0  0.06223  0.26749  0.47345  1.0000
  H   H135      1.0  0.35126  0.29918  0.46826  1.0000
  S   S49       1.0  0.30187  0.08694  0.55571  1.0000
  H   H136      1.0  0.00642  0.45919  0.57495  1.0000
  C   C140      1.0  0.95711  0.55987  0.65557  1.0000
  S   S50       1.0  0.16199  0.26044  0.60157  1.0000
  C   C141      1.0  0.27603  0.11648  0.58736  1.0000
  Fe  Fe28      1.0  0.16856  0.25094  0.49800  1.0000
  C   C142      1.0  0.03200  0.45950  0.55151  1.0000
  H   H137      1.0  0.25706  0.12054  0.50900  1.0000
  H   H138      1.0  0.24124  0.34991  0.44470  1.0000
  H   H139      1.0  0.03742  0.52710  0.52709  1.0000
  H   H140      1.0  0.25199  0.48026  0.58313  1.0000
  C   C143      1.0  0.12927  0.35008  0.64676  1.0000
  H   H141      1.0  0.09753  0.28756  0.53687  1.0000
  Fe  Fe29      1.0  0.23792  0.27330  0.44063  1.0000
  C   C144      1.0  0.10243  0.16954  0.48006  1.0000
  H   H142      1.0  0.24902  0.52727  0.64590  1.0000
  H   H143      1.0  0.27231  0.38001  0.49197  1.0000
  H   H144      1.0  0.17728  0.41985  0.62388  1.0000
  C   C145      1.0  0.04721  0.51583  0.56395  1.0000
  C   C146      1.0  0.32012  0.42649  0.42386  1.0000
  C   C147      1.0  0.36048  0.17795  0.42808  1.0000
  C   C148      1.0  0.36068  0.07784  0.62904  1.0000
  C   C149      1.0  0.13504  0.16896  0.54553  1.0000
  C   C150      1.0  0.38665  0.21918  0.56994  1.0000
  H   H145      1.0  0.99653  0.45381  0.46455  1.0000
  C   C151      1.0  0.15625  0.40297  0.64303  1.0000
  Fe  Fe30      1.0  0.19313  0.30821  0.54528  1.0000
  H   H146      1.0  0.17401  0.12386  0.65907  1.0000
  C   C152      1.0  0.96114  0.44200  0.42818  1.0000
  S   S51       1.0  0.12876  0.23131  0.47638  1.0000
  C   C153      1.0  0.02730  0.16441  0.44257  1.0000
  H   H147      1.0  0.03807  0.43276  0.55920  1.0000
  N   N13       1.0  0.05492  0.26234  0.54697  1.0000
  H   H148      1.0  0.33801  0.16751  0.53732  1.0000
  S   S52       1.0  0.97546  0.38643  0.59381  1.0000
  H   H149      1.0  0.28651  0.21909  0.42663  1.0000
  H   H150      1.0  0.06473  0.24253  0.45722  1.0000
  S   S53       1.0  0.23634  0.28319  0.54038  1.0000
  H   H151      1.0  0.22085  0.16239  0.55434  1.0000
  H   H152      1.0  0.13976  0.11935  0.59795  1.0000
  H   H153      1.0  0.40786  0.22733  0.52671  1.0000
  S   S54       1.0  0.39964  0.15430  0.55582  1.0000
  C   C154      1.0  0.05843  0.46701  0.62894  1.0000
  C   C155      1.0  0.27783  0.38550  0.43736  1.0000
  C   C156      1.0  0.25662  0.12928  0.55399  1.0000
  Fe  Fe31      1.0  0.31643  0.38730  0.60411  1.0000
  C   C157      1.0  0.02747  0.24489  0.59076  1.0000
  H   H154      1.0  0.34046  0.09298  0.63544  1.0000
  S   S55       1.0  0.92746  0.17280  0.57152  1.0000
  C   C158      1.0  0.92998  0.50739  0.55386  1.0000
  C   C159      1.0  0.00938  0.18704  0.41881  1.0000
  H   H155      1.0  0.05789  0.43957  0.64339  1.0000
  H   H156      1.0  0.94229  0.48425  0.54468  1.0000
  H   H157      1.0  0.03861  0.14550  0.59258  1.0000
  H   H158      1.0  0.92226  0.42164  0.59335  1.0000
  C   C160      1.0  0.06883  0.26864  0.64168  1.0000
  C   C161      1.0  0.23596  0.16524  0.63676  1.0000
  H   H159      1.0  0.98650  0.15652  0.59288  1.0000
  C   C162      1.0  0.07227  0.52296  0.64169  1.0000
  C   C163      1.0  0.34952  0.17446  0.65158  1.0000
  H   H160      1.0  0.37450  0.52644  0.62944  1.0000
  C   C164      1.0  0.92645  0.33902  0.65734  1.0000
  H   H161      1.0  0.94332  0.32102  0.65828  1.0000
  C   C165      1.0  0.34116  0.23364  0.65668  1.0000
  H   H162      1.0  0.38110  0.16595  0.42861  1.0000
  H   H163      1.0  0.30705  0.44665  0.44828  1.0000
  H   H164      1.0  0.12942  0.32606  0.63059  1.0000
  C   C166      1.0  0.27514  0.12776  0.64579  1.0000
  H   H165      1.0  0.08533  0.27785  0.66080  1.0000
  C   C167      1.0  0.25815  0.50384  0.66058  1.0000
  C   C168      1.0  0.02010  0.23887  0.66119  1.0000
  C   C169      1.0  0.25621  0.41720  0.89896  1.0000
  S   S56       1.0  0.31885  0.08471  0.78673  1.0000
  C   C170      1.0  0.15307  0.10832  0.83074  1.0000
  C   C171      1.0  0.27949  0.46931  0.73466  1.0000
  H   H166      1.0  0.14694  0.54073  0.75744  1.0000
  C   C172      1.0  0.26816  0.49971  0.71509  1.0000
  S   S57       1.0  0.92547  0.55775  0.90490  1.0000
  H   H167      1.0  0.12905  0.43643  0.70448  1.0000
  H   H168      1.0  0.11746  0.44659  0.83029  1.0000
  H   H169      1.0  0.29099  0.41992  0.71344  1.0000
  C   C173      1.0  0.20840  0.27976  0.71708  1.0000
  C   C174      1.0  0.11268  0.56901  0.81883  1.0000
  C   C175      1.0  0.10586  0.18279  0.85366  1.0000
  H   H170      1.0  0.06282  0.33381  0.84116  1.0000
  S   S58       1.0  0.97262  0.25826  0.84762  1.0000
  C   C176      1.0  0.16660  0.44537  0.80313  1.0000
  H   H171      1.0  0.38429  0.45081  0.87937  1.0000
  H   H172      1.0  0.27062  0.12678  0.78735  1.0000
  H   H173      1.0  0.03522  0.24652  0.74141  1.0000
  S   S59       1.0  0.26594  0.53165  0.76114  1.0000
  C   C177      1.0  0.94718  0.24203  0.81489  1.0000
  C   C178      1.0  0.19005  0.48512  0.84636  1.0000
  H   H174      1.0  0.07318  0.16217  0.66904  1.0000
  H   H175      1.0  0.00748  0.14673  0.80441  1.0000
  Fe  Fe32      1.0  0.02408  0.37833  0.77149  1.0000
  H   H176      1.0  0.05766  0.13213  0.74860  1.0000
  H   H177      1.0  0.21679  0.12486  0.86852  1.0000
  H   H178      1.0  0.14230  0.17863  0.89279  1.0000
  H   H179      1.0  0.92659  0.25697  0.67646  1.0000
  S   S60       1.0  0.21142  0.19586  0.66850  1.0000
  H   H180      1.0  0.28707  0.46628  0.77700  1.0000
  S   S61       1.0  0.01993  0.33966  0.71079  1.0000
  C   C179      1.0  0.96712  0.15726  0.70034  1.0000
  C   C180      1.0  0.19280  0.45934  0.80902  1.0000
  H   H181      1.0  0.13859  0.14293  0.76090  1.0000
  C   C181      1.0  0.24300  0.24256  0.75284  1.0000
  H   H182      1.0  0.13456  0.27851  0.79144  1.0000
  S   S62       1.0  0.08200  0.53862  0.83753  1.0000
  H   H183      1.0  0.41557  0.19093  0.80417  1.0000
  H   H184      1.0  0.35669  0.56297  0.78139  1.0000
  H   H185      1.0  0.27963  0.38247  0.83562  1.0000
  C   C182      1.0  0.21644  0.34088  0.69799  1.0000
  H   H186      1.0  0.28961  0.22291  0.89066  1.0000
  C   C183      1.0  0.94709  0.25776  0.75141  1.0000
  H   H187      1.0  0.94406  0.16190  0.70134  1.0000
  H   H188      1.0  0.25495  0.24210  0.78907  1.0000
  S   S63       1.0  0.32719  0.36213  0.69393  1.0000
  H   H189      1.0  0.20925  0.07991  0.67144  1.0000
  C   C184      1.0  0.15345  0.12305  0.76654  1.0000
  C   C185      1.0  0.39164  0.18065  0.83008  1.0000
  C   C186      1.0  0.37462  0.17153  0.79325  1.0000
  H   H190      1.0  0.05106  0.47503  0.84043  1.0000
  C   C187      1.0  0.92653  0.24483  0.72560  1.0000
  H   H191      1.0  0.27757  0.51649  0.89161  1.0000
  H   H192      1.0  0.34042  0.25182  0.80687  1.0000
  N   N14       1.0  0.37502  0.46351  0.78778  1.0000
  H   H193      1.0  0.96052  0.51735  0.81027  1.0000
  H   H194      1.0  0.99836  0.22513  0.69593  1.0000
  H   H195      1.0  0.25483  0.16165  0.71448  1.0000
  H   H196      1.0  0.34345  0.47060  0.66775  1.0000
  H   H197      1.0  0.31002  0.19126  0.72546  1.0000
  H   H198      1.0  0.13735  0.11590  0.87610  1.0000
  C   C188      1.0  0.39266  0.49401  0.76633  1.0000
  C   C189      1.0  0.25754  0.39103  0.86318  1.0000
  H   H199      1.0  0.23702  0.55561  0.88992  1.0000
  C   C190      1.0  0.37767  0.17663  0.90065  1.0000
  H   H200      1.0  0.40668  0.50077  0.79353  1.0000
  H   H201      1.0  0.25620  0.35987  0.71328  1.0000
  C   C191      1.0  0.30674  0.23187  0.90824  1.0000
  C   C192      1.0  0.13802  0.45741  0.83427  1.0000
  S   S64       1.0  0.98800  0.35104  0.87011  1.0000
  S   S65       1.0  0.16779  0.24765  0.87307  1.0000
  H   H202      1.0  0.09050  0.25575  0.76852  1.0000
  C   C193      1.0  0.28179  0.44319  0.69858  1.0000
  S   S66       1.0  0.06781  0.40397  0.76812  1.0000
  C   C194      1.0  0.14062  0.23026  0.84602  1.0000
  C   C195      1.0  0.93872  0.46653  0.85038  1.0000
  S   S67       1.0  0.94506  0.34299  0.78350  1.0000
  S   S68       1.0  0.39364  0.28035  0.82664  1.0000
  H   H203      1.0  0.34191  0.14773  0.67116  1.0000
  C   C196      1.0  0.37696  0.43849  0.84458  1.0000
  H   H204      1.0  0.16842  0.42486  0.77549  1.0000
  H   H205      1.0  0.27082  0.30246  0.74745  1.0000
  S   S69       1.0  0.01347  0.55750  0.77920  1.0000
  Fe  Fe33      1.0  0.98153  0.31452  0.80779  1.0000
  C   C197      1.0  0.10171  0.39085  0.71275  1.0000
  C   C198      1.0  0.17296  0.08326  0.83632  1.0000
  S   S70       1.0  0.99111  0.41180  0.74268  1.0000
  H   H206      1.0  0.38516  0.17449  0.73833  1.0000
  C   C199      1.0  0.97317  0.15426  0.75993  1.0000
  H   H207      1.0  0.21500  0.44961  0.78631  1.0000
  C   C200      1.0  0.04646  0.45917  0.89152  1.0000
  C   C201      1.0  0.14218  0.56461  0.77428  1.0000
  C   C202      1.0  0.00296  0.14849  0.75796  1.0000
  C   C203      1.0  0.92662  0.21347  0.85263  1.0000
  H   H208      1.0  0.28342  0.15288  0.90349  1.0000
  H   H209      1.0  0.19486  0.25734  0.71794  1.0000
  H   H210      1.0  0.33057  0.15150  0.79913  1.0000
  H   H211      1.0  0.03267  0.27712  0.88831  1.0000
  C   C204      1.0  0.13088  0.19556  0.86638  1.0000
  C   C205      1.0  0.09525  0.32117  0.88989  1.0000
  C   C206      1.0  0.10184  0.35961  0.69209  1.0000
  C   C207      1.0  0.34369  0.15862  0.82783  1.0000
  Fe  Fe34      1.0  0.41604  0.30004  0.89122  1.0000
  H   H212      1.0  0.95632  0.45598  0.81304  1.0000
  C   C208      1.0  0.05714  0.13891  0.69664  1.0000
  N   N15       1.0  0.23360  0.27653  0.73508  1.0000
  C   C209      1.0  0.09075  0.20455  0.81991  1.0000
  C   C210      1.0  0.12699  0.25165  0.80775  1.0000
  C   C211      1.0  0.17334  0.11228  0.70916  1.0000
  C   C212      1.0  0.25513  0.15218  0.67033  1.0000
  H   H213      1.0  0.21044  0.49522  0.85205  1.0000
  H   H214      1.0  0.09797  0.15606  0.87068  1.0000
  C   C213      1.0  0.26161  0.10638  0.83124  1.0000
  H   H215      1.0  0.25878  0.23481  0.70597  1.0000
  C   C214      1.0  0.10210  0.23876  0.79451  1.0000
  C   C215      1.0  0.12901  0.41229  0.68877  1.0000
  S   S71       1.0  0.05585  0.18975  0.81654  1.0000
  H   H216      1.0  0.20992  0.36604  0.68288  1.0000
  S   S72       1.0  0.41346  0.57368  0.80232  1.0000
  C   C216      1.0  0.25073  0.30486  0.73373  1.0000
  H   H217      1.0  0.95492  0.15640  0.80747  1.0000
  C   C217      1.0  0.23152  0.10574  0.87822  1.0000
  C   C218      1.0  0.28061  0.08159  0.84276  1.0000
  H   H218      1.0  0.17846  0.31410  0.68795  1.0000
  C   C219      1.0  0.25604  0.56335  0.90325  1.0000
  Fe  Fe35      1.0  0.04415  0.57063  0.83156  1.0000
  H   H219      1.0  0.39384  0.42012  0.82432  1.0000
  Fe  Fe36      1.0  0.95450  0.38187  0.83698  1.0000
  H   H220      1.0  0.08100  0.34265  0.71141  1.0000
  S   S73       1.0  0.31967  0.26415  0.69751  1.0000
  H   H221      1.0  0.05806  0.43544  0.88412  1.0000
  Fe  Fe37      1.0  0.98378  0.37099  0.69059  1.0000
  C   C220      1.0  0.04087  0.25092  0.68674  1.0000
  C   C221      1.0  0.24255  0.33741  0.71468  1.0000
  C   C222      1.0  0.94133  0.50141  0.84932  1.0000
  H   H222      1.0  0.00122  0.55658  0.66455  1.0000
  N   N16       1.0  0.02597  0.14507  0.69848  1.0000
  H   H223      1.0  0.22261  0.22343  0.77755  1.0000
  C   C223      1.0  0.19901  0.31185  0.69999  1.0000
  C   C224      1.0  0.33147  0.19903  0.68219  1.0000
  H   H224      1.0  0.35411  0.42416  0.87542  1.0000
  H   H225      1.0  0.96324  0.27959  0.72177  1.0000
  H   H226      1.0  0.23103  0.35362  0.84071  1.0000
  C   C225      1.0  0.06957  0.31447  0.87399  1.0000
  C   C226      1.0  0.33544  0.24811  0.86087  1.0000
  C   C227      1.0  0.20136  0.38410  0.90548  1.0000
  H   H227      1.0  0.29027  0.11807  0.67142  1.0000
  H   H228      1.0  0.94817  0.53466  0.68584  1.0000
  H   H229      1.0  0.10897  0.34553  0.86857  1.0000
  H   H230      1.0  0.11366  0.49165  0.89742  1.0000
  C   C228      1.0  0.35776  0.25943  0.88366  1.0000
  H   H231      1.0  0.17811  0.54491  0.88634  1.0000
  C   C229      1.0  0.23009  0.37474  0.86595  1.0000
  C   C230      1.0  0.13604  0.48300  0.87182  1.0000
  N   N17       1.0  0.16198  0.49693  0.87644  1.0000
  H   H232      1.0  0.08058  0.47623  0.69741  1.0000
  N   N18       1.0  0.33004  0.15520  0.89690  1.0000
  C   C231      1.0  0.37475  0.50880  0.67378  1.0000
  C   C232      1.0  0.35721  0.45523  0.75347  1.0000
  H   H233      1.0  0.34359  0.43083  0.76976  1.0000
  C   C233      1.0  0.19329  0.08755  0.71649  1.0000
  C   C234      1.0  0.05256  0.28279  0.90075  1.0000
  C   C235      1.0  0.39279  0.51709  0.70911  1.0000
  H   H234      1.0  0.92688  0.20086  0.90115  1.0000
  H   H235      1.0  0.40587  0.27446  0.66825  1.0000
  S   S74       1.0  0.40444  0.40211  0.68257  1.0000
  C   C236      1.0  0.27879  0.54138  0.90435  1.0000
  H   H236      1.0  0.06569  0.11738  0.67077  1.0000
  C   C237      1.0  0.35703  0.47760  0.69570  1.0000
  S   S75       1.0  0.28978  0.43360  0.90602  1.0000
  H   H237      1.0  0.28449  0.29657  0.89815  1.0000
  H   H238      1.0  0.40667  0.54133  0.69270  1.0000
  H   H239      1.0  0.08201  0.53923  0.66568  1.0000
  H   H240      1.0  0.12584  0.64941  0.12809  1.0000
  H   H241      1.0  0.23126  0.03591  0.99459  1.0000
  C   C238      1.0  0.23942  0.05521  0.94849  1.0000
  C   C239      1.0  0.06879  0.72833  0.02312  1.0000
  H   H242      1.0  0.02029  0.82112  0.01062  1.0000
  N   N19       1.0  0.30468  0.58302  0.93785  1.0000
  S   S76       1.0  0.39840  0.01172  0.92770  1.0000
  H   H243      1.0  0.06119  0.74961  0.04798  1.0000
  C   C240      1.0  0.41123  0.67506  0.93031  1.0000
  H   H244      1.0  0.96375  0.78020  0.09125  1.0000
  C   C241      1.0  0.98445  0.69883  0.91584  1.0000
  C   C242      1.0  0.92358  0.79177  0.06725  1.0000
  C   C243      1.0  0.28238  0.81922  0.09194  1.0000
  C   C244      1.0  0.12100  0.82602  0.05230  1.0000
  H   H245      1.0  0.38787  0.05405  0.03654  1.0000
  C   C245      1.0  0.22920  0.60800  0.08012  1.0000
  H   H246      1.0  0.10981  0.00622  0.02513  1.0000
  C   C246      1.0  0.32873  0.59222  0.96201  1.0000
  C   C247      1.0  0.38007  0.93658  0.13809  1.0000
  H   H247      1.0  0.05637  0.61649  0.05382  1.0000
  H   H248      1.0  0.92820  0.59989  0.99978  1.0000
  C   C248      1.0  0.24852  0.95030  0.99077  1.0000
  S   S77       1.0  0.28140  0.64441  0.07380  1.0000
  Fe  Fe38      1.0  0.19297  0.91502  0.93723  1.0000
  H   H249      1.0  0.33883  0.69198  0.01679  1.0000
  H   H250      1.0  0.32934  0.84159  0.05669  1.0000
  S   S78       1.0  0.28995  0.74190  0.02268  1.0000
  C   C249      1.0  0.30774  0.83486  0.09917  1.0000
  C   C250      1.0  0.94896  0.61512  0.09324  1.0000
  H   H251      1.0  0.11137  0.75549  0.94853  1.0000
  H   H252      1.0  0.10857  0.82231  0.01998  1.0000
  C   C251      1.0  0.22833  0.92601  0.04480  1.0000
  H   H253      1.0  0.33474  0.62019  0.94875  1.0000
  Fe  Fe39      1.0  0.42089  0.81597  0.96931  1.0000
  C   C252      1.0  0.08893  0.03934  0.96697  1.0000
  C   C253      1.0  0.15178  0.81875  0.03466  1.0000
  H   H254      1.0  0.28472  0.63031  0.94525  1.0000
  C   C254      1.0  0.36997  0.72317  0.92336  1.0000
  Fe  Fe40      1.0  0.39721  0.75647  0.08918  1.0000
  S   S79       1.0  0.14783  0.91613  0.92286  1.0000
  C   C255      1.0  0.25574  0.60774  0.09629  1.0000
  N   N20       1.0  0.38238  0.67147  0.98029  1.0000
  H   H255      1.0  0.32073  0.88559  0.95549  1.0000
  H   H256      1.0  0.37047  0.61850  0.01687  1.0000
  S   S80       1.0  0.00567  0.58548  0.91767  1.0000
  H   H257      1.0  0.29045  0.98301  0.95400  1.0000
  C   C256      1.0  0.25824  0.59556  0.91790  1.0000
  C   C257      1.0  0.23563  0.91483  0.10232  1.0000
  N   N21       1.0  0.15288  0.83628  0.13491  1.0000
  H   H258      1.0  0.32040  0.58381  0.01816  1.0000
  H   H259      1.0  0.09577  0.65090  0.94064  1.0000
  C   C258      1.0  0.08787  0.67283  0.96303  1.0000
  C   C259      1.0  0.37347  0.64164  0.03602  1.0000
  H   H260      1.0  0.15749  0.70157  0.05301  1.0000
  S   S81       1.0  0.24469  0.77865  0.94947  1.0000
  C   C260      1.0  0.20998  0.57773  0.09613  1.0000
  C   C261      1.0  0.92734  0.72417  0.92763  1.0000
  S   S82       1.0  0.37952  0.70180  0.12377  1.0000
  H   H261      1.0  0.22366  0.63130  0.05450  1.0000
  S   S83       1.0  0.06419  0.05356  0.03861  1.0000
  S   S84       1.0  0.22439  0.78612  0.14257  1.0000
  C   C262      1.0  0.41628  0.04194  0.09520  1.0000
  C   C263      1.0  0.13267  0.62270  0.04625  1.0000
  H   H262      1.0  0.26937  0.91718  0.14802  1.0000
  H   H263      1.0  0.14574  0.98596  0.92622  1.0000
  C   C264      1.0  0.41004  0.05919  0.03977  1.0000
  N   N22       1.0  0.06055  0.66983  0.01751  1.0000
  H   H264      1.0  0.40569  0.88228  0.92559  1.0000
  C   C265      1.0  0.03783  0.87315  0.96297  1.0000
  C   C266      1.0  0.16510  0.65340  0.93364  1.0000
  C   C267      1.0  0.28306  0.60515  0.93446  1.0000
  C   C268      1.0  0.05061  0.69719  0.04694  1.0000
  H   H265      1.0  0.34066  0.82805  0.95489  1.0000
  S   S85       1.0  0.00348  0.89034  0.00496  1.0000
  C   C269      1.0  0.10627  0.83824  0.11170  1.0000
  H   H266      1.0  0.35021  0.58000  0.93872  1.0000
  H   H267      1.0  0.02877  0.69489  0.08980  1.0000
  H   H268      1.0  0.92733  0.03681  0.16031  1.0000
  Fe  Fe41      1.0  0.24229  0.75915  0.05560  1.0000
  C   C270      1.0  0.18318  0.98904  0.10850  1.0000
  H   H269      1.0  0.22011  0.89642  0.14497  1.0000
  C   C271      1.0  0.10622  0.70383  0.93668  1.0000
  Fe  Fe42      1.0  0.26681  0.69196  0.02533  1.0000
  H   H270      1.0  0.13424  0.01987  0.10307  1.0000
  C   C272      1.0  0.12811  0.99503  0.13638  1.0000
  H   H271      1.0  0.96666  0.61133  0.04457  1.0000
  C   C273      1.0  0.28333  0.95194  0.05138  1.0000
  H   H272      1.0  0.18612  0.01650  0.10953  1.0000
  H   H273      1.0  0.08231  0.84394  0.12593  1.0000
  H   H274      1.0  0.14392  0.60226  0.95493  1.0000
  H   H275      1.0  0.35361  0.74174  0.92077  1.0000
  C   C274      1.0  0.94189  0.77023  0.09183  1.0000
  N   N23       1.0  0.41037  0.92700  0.13757  1.0000
  Fe  Fe43      1.0  0.34671  0.00525  0.96139  1.0000
  C   C275      1.0  0.04196  0.63698  0.04332  1.0000
  S   S86       1.0  0.37327  0.79377  0.03970  1.0000
  S   S87       1.0  0.19320  0.91093  0.04280  1.0000
  S   S88       1.0  0.34174  0.06142  0.94652  1.0000
  H   H276      1.0  0.28449  0.81328  0.04351  1.0000
  C   C276      1.0  0.26338  0.92716  0.10480  1.0000
  H   H277      1.0  0.19089  0.98586  0.05476  1.0000
  C   C277      1.0  0.30553  0.84147  0.16205  1.0000
  C   C278      1.0  0.10948  0.01561  0.97529  1.0000
  S   S89       1.0  0.21900  0.70829  0.06482  1.0000
  C   C279      1.0  0.06844  0.82490  0.94499  1.0000
  Fe  Fe44      1.0  0.98776  0.87062  0.11746  1.0000
  H   H278      1.0  0.02198  0.63673  0.09151  1.0000
  H   H279      1.0  0.24279  0.95975  0.94692  1.0000
  C   C280      1.0  0.93157  0.73597  0.11890  1.0000
  H   H280      1.0  0.19837  0.97566  0.13243  1.0000
  H   H281      1.0  0.39887  0.02377  0.13486  1.0000
  S   S90       1.0  0.10793  0.58749  0.09872  1.0000
  C   C281      1.0  0.36172  0.69493  0.97719  1.0000
  Fe  Fe45      1.0  0.37871  0.82713  0.10899  1.0000
  C   C282      1.0  0.14716  0.62384  0.97628  1.0000
  C   C283      1.0  0.09679  0.73161  0.96752  1.0000
  C   C284      1.0  0.27570  0.96352  0.99461  1.0000
  H   H282      1.0  0.93129  0.81857  0.04683  1.0000
  C   C285      1.0  0.16882  0.68133  0.96158  1.0000
  C   C286      1.0  0.04020  0.83804  0.97619  1.0000
  H   H283      1.0  0.03290  0.63126  0.00489  1.0000
  C   C287      1.0  0.25446  0.81080  0.14782  1.0000
  C   C288      1.0  0.92953  0.68901  0.93981  1.0000
  H   H284      1.0  0.95729  0.60392  0.13410  1.0000
  H   H285      1.0  0.07041  0.79795  0.95605  1.0000
  S   S91       1.0  0.31714  0.96892  0.05700  1.0000
  N   N24       1.0  0.15076  0.97566  0.14477  1.0000
  C   C289      1.0  0.13665  0.65054  0.07396  1.0000
  C   C290      1.0  0.16751  0.82411  0.07683  1.0000
  C   C291      1.0  0.15481  0.67984  0.03163  1.0000
  H   H286      1.0  0.35164  0.64429  0.07828  1.0000
  Fe  Fe46      1.0  0.22568  0.72637  0.95532  1.0000
  C   C292      1.0  0.12947  0.00364  0.91932  1.0000
  H   H287      1.0  0.19159  0.81903  0.06239  1.0000
  H   H288      1.0  0.39172  0.63821  0.05784  1.0000
  H   H289      1.0  0.16343  0.80934  0.98831  1.0000
  S   S92       1.0  0.00015  0.82040  0.16097  1.0000
  H   H290      1.0  0.37579  0.92892  0.09487  1.0000
  H   H291      1.0  0.37841  0.96441  0.13465  1.0000
  H   H292      1.0  0.94727  0.64276  0.09234  1.0000
  H   H293      1.0  0.26647  0.00903  0.15267  1.0000
  H   H294      1.0  0.24083  0.61301  0.91666  1.0000
  C   C293      1.0  0.95826  0.67641  0.93242  1.0000
  H   H295      1.0  0.19439  0.84619  0.15078  1.0000
  H   H296      1.0  0.14797  0.07026  0.14079  1.0000
  C   C294      1.0  0.12263  0.84302  0.15288  1.0000
  H   H297      1.0  0.94537  0.71931  0.13971  1.0000
  H   H298      1.0  0.96038  0.64940  0.93792  1.0000
  C   C295      1.0  0.26256  0.57751  0.12971  1.0000
  H   H299      1.0  0.07903  0.99852  0.16291  1.0000
  Fe  Fe47      1.0  0.29073  0.75705  0.91659  1.0000
  S   S93       1.0  0.27168  0.70555  0.91629  1.0000
  H   H300      1.0  0.18977  0.57778  0.08259  1.0000
  C   C296      1.0  0.06331  0.89485  0.91671  1.0000
  H   H301      1.0  0.28282  0.57718  0.14307  1.0000
  C   C297      1.0  0.40308  0.68077  0.16254  1.0000
  S   S94       1.0  0.39990  0.78803  0.16298  1.0000
  H   H302      1.0  0.27213  0.75374  0.25848  1.0000
  C   C298      1.0  0.11233  0.93064  0.21842  1.0000
  C   C299      1.0  0.95371  0.69580  0.36544  1.0000
  H   H303      1.0  0.30601  0.76532  0.18065  1.0000
  Fe  Fe48      1.0  0.01223  0.63223  0.24217  1.0000
  H   H304      1.0  0.29639  0.63636  0.34559  1.0000
  C   C300      1.0  0.94041  0.63845  0.26356  1.0000
  H   H305      1.0  0.22191  0.69817  0.22756  1.0000
  S   S95       1.0  0.07986  0.68604  0.33862  1.0000
  C   C301      1.0  0.28123  0.95100  0.23756  1.0000
  S   S96       1.0  0.15869  0.02834  0.25665  1.0000
  S   S97       1.0  0.97677  0.65856  0.21012  1.0000
  C   C302      1.0  0.41646  0.62866  0.21796  1.0000
  H   H306      1.0  0.39335  0.87591  0.18880  1.0000
  S   S98       1.0  0.02586  0.58009  0.22900  1.0000
  C   C303      1.0  0.34393  0.98058  0.30510  1.0000
  H   H307      1.0  0.06494  0.94085  0.23785  1.0000
  S   S99       1.0  0.06051  0.65680  0.19378  1.0000
  S   S100      1.0  0.92783  0.76137  0.26907  1.0000
  H   H308      1.0  0.08793  0.80771  0.33689  1.0000
  H   H309      1.0  0.14724  0.60828  0.23152  1.0000
  S   S101      1.0  0.93744  0.86222  0.18533  1.0000
  H   H310      1.0  0.29150  0.72139  0.21579  1.0000
  H   H311      1.0  0.92947  0.70272  0.37993  1.0000
  C   C304      1.0  0.08903  0.95057  0.21141  1.0000
  H   H312      1.0  0.16985  0.73429  0.18771  1.0000
  Fe  Fe49      1.0  0.11678  0.02962  0.34975  1.0000
  H   H313      1.0  0.95279  0.66776  0.38105  1.0000
  H   H314      1.0  0.25538  0.66068  0.30741  1.0000
  Fe  Fe50      1.0  0.05253  0.05464  0.40063  1.0000
  C   C305      1.0  0.37802  0.93586  0.30630  1.0000
  S   S102      1.0  0.33937  0.85305  0.17370  1.0000
  H   H315      1.0  0.30507  0.95833  0.20369  1.0000
  C   C306      1.0  0.23997  0.69079  0.38513  1.0000
  H   H316      1.0  0.16138  0.92784  0.18899  1.0000
  H   H317      1.0  0.37640  0.63229  0.19058  1.0000
  C   C307      1.0  0.10657  0.93008  0.38951  1.0000
  C   C308      1.0  0.31839  0.95750  0.34587  1.0000
  C   C309      1.0  0.25873  0.66790  0.35045  1.0000
  C   C310      1.0  0.33708  0.77005  0.33553  1.0000
  C   C311      1.0  0.27295  0.91749  0.27411  1.0000
  H   H318      1.0  0.95539  0.76177  0.36562  1.0000
  C   C312      1.0  0.07744  0.78785  0.32184  1.0000
  C   C313      1.0  0.22937  0.96466  0.28578  1.0000
  S   S103      1.0  0.21036  0.70742  0.36118  1.0000
  H   H319      1.0  0.22956  0.81424  0.25237  1.0000
  C   C314      1.0  0.16916  0.84082  0.17991  1.0000
  C   C315      1.0  0.08443  0.75418  0.33619  1.0000
  C   C316      1.0  0.29526  0.74627  0.22879  1.0000
  H   H320      1.0  0.34101  0.00708  0.29039  1.0000
  H   H321      1.0  0.14240  0.72004  0.27401  1.0000
  C   C317      1.0  0.09691  0.98294  0.16979  1.0000
  S   S104      1.0  0.28220  0.97260  0.38177  1.0000
  H   H322      1.0  0.10491  0.95673  0.37444  1.0000
  C   C318      1.0  0.37370  0.96974  0.28510  1.0000
  Fe  Fe51      1.0  0.00966  0.84736  0.23463  1.0000
  H   H323      1.0  0.15182  0.93175  0.31199  1.0000
  H   H324      1.0  0.19894  0.59380  0.22998  1.0000
  H   H325      1.0  0.11107  0.85223  0.19930  1.0000
  H   H326      1.0  0.96502  0.70296  0.30910  1.0000
  H   H327      1.0  0.30585  0.79340  0.29213  1.0000
  C   C319      1.0  0.05065  0.73599  0.28371  1.0000
  C   C320      1.0  0.94836  0.04849  0.26107  1.0000
  H   H328      1.0  0.16513  0.81753  0.21980  1.0000
  C   C321      1.0  0.16683  0.72030  0.23941  1.0000
  H   H329      1.0  0.10640  0.90551  0.25092  1.0000
  S   S105      1.0  0.30519  0.06576  0.28141  1.0000
  Fe  Fe52      1.0  0.95098  0.81401  0.23391  1.0000
  C   C322      1.0  0.04338  0.76981  0.26982  1.0000
  C   C323      1.0  0.14331  0.94355  0.18398  1.0000
  H   H330      1.0  0.00779  0.87432  0.38705  1.0000
  H   H331      1.0  0.36136  0.92374  0.18632  1.0000
  H   H332      1.0  0.95737  0.59070  0.29192  1.0000
  C   C324      1.0  0.13592  0.88118  0.37162  1.0000
  Fe  Fe53      1.0  0.06013  0.64651  0.29964  1.0000
  Fe  Fe54      1.0  0.17209  0.81816  0.40455  1.0000
  C   C325      1.0  0.35280  0.74129  0.34363  1.0000
  H   H333      1.0  0.29273  0.01689  0.19383  1.0000
  H   H334      1.0  0.18117  0.73452  0.25932  1.0000
  C   C326      1.0  0.95284  0.06834  0.30455  1.0000
  S   S106      1.0  0.04755  0.83821  0.27504  1.0000
  C   C327      1.0  0.18644  0.05510  0.26440  1.0000
  C   C328      1.0  0.15524  0.66103  0.23574  1.0000
  S   S107      1.0  0.07071  0.00962  0.35620  1.0000
  H   H335      1.0  0.30260  0.90482  0.39137  1.0000
  H   H336      1.0  0.23530  0.88163  0.34512  1.0000
  N   N25       1.0  0.97033  0.71410  0.39710  1.0000
  H   H337      1.0  0.96821  0.03874  0.22647  1.0000
  C   C329      1.0  0.20504  0.67825  0.23100  1.0000
  C   C330      1.0  0.96939  0.74855  0.39097  1.0000
  C   C331      1.0  0.32240  0.92295  0.36162  1.0000
  C   C332      1.0  0.33104  0.71640  0.27486  1.0000
  H   H338      1.0  0.02715  0.77561  0.24509  1.0000
  H   H339      1.0  0.33917  0.79117  0.35931  1.0000
  H   H340      1.0  0.21206  0.98281  0.29018  1.0000
  H   H341      1.0  0.17544  0.03293  0.37019  1.0000
  H   H342      1.0  0.23698  0.63937  0.22465  1.0000
  C   C333      1.0  0.21371  0.64511  0.22930  1.0000
  Fe  Fe55      1.0  0.29259  0.02766  0.37827  1.0000
  C   C334      1.0  0.22035  0.93142  0.32345  1.0000
  N   N26       1.0  0.31512  0.74434  0.26847  1.0000
  C   C335      1.0  0.24225  0.90766  0.31714  1.0000
  C   C336      1.0  0.16329  0.62769  0.23319  1.0000
  H   H343      1.0  0.41191  0.60151  0.23771  1.0000
  H   H344      1.0  0.29028  0.89934  0.26847  1.0000
  S   S108      1.0  0.96133  0.83781  0.31040  1.0000
  C   C337      1.0  0.13314  0.91575  0.35311  1.0000
  S   S109      1.0  0.17034  0.86403  0.33049  1.0000
  H   H345      1.0  0.36176  0.69161  0.31914  1.0000
  C   C338      1.0  0.18901  0.05273  0.32766  1.0000
  C   C339      1.0  0.39650  0.64602  0.19089  1.0000
  S   S110      1.0  0.01078  0.62464  0.34902  1.0000
  H   H346      1.0  0.97582  0.07388  0.30363  1.0000
  C   C340      1.0  0.05670  0.79576  0.28922  1.0000
  S   S111      1.0  0.92884  0.92385  0.32160  1.0000
  C   C341      1.0  0.07109  0.72813  0.31738  1.0000
  H   H347      1.0  0.92628  0.99752  0.21816  1.0000
  C   C342      1.0  0.25135  0.82018  0.20943  1.0000
  H   H348      1.0  0.03996  0.71599  0.26959  1.0000
  H   H349      1.0  0.27496  0.84067  0.26557  1.0000
  S   S112      1.0  0.14739  0.76826  0.41379  1.0000
  S   S113      1.0  0.07846  0.59537  0.29142  1.0000
  H   H350      1.0  0.39345  0.98802  0.25602  1.0000
  S   S114      1.0  0.33358  0.04440  0.39958  1.0000
  Fe  Fe56      1.0  0.95213  0.88691  0.25607  1.0000
  Fe  Fe57      1.0  0.07434  0.60379  0.18968  1.0000
  C   C343      1.0  0.28190  0.65421  0.37192  1.0000
  H   H351      1.0  0.36694  0.73984  0.37420  1.0000
  H   H352      1.0  0.25356  0.02724  0.22882  1.0000
  C   C344      1.0  0.31815  0.77109  0.29775  1.0000
  C   C345      1.0  0.34994  0.71433  0.31281  1.0000
  C   C346      1.0  0.35231  0.91212  0.34179  1.0000
  N   N27       1.0  0.25958  0.97413  0.24404  1.0000
  C   C347      1.0  0.19245  0.61960  0.23164  1.0000
  C   C348      1.0  0.27698  0.83539  0.21671  1.0000
  H   H353      1.0  0.42007  0.05054  0.29453  1.0000
  H   H354      1.0  0.13255  0.66720  0.23678  1.0000
  N   N28       1.0  0.17576  0.68556  0.23658  1.0000
  H   H355      1.0  0.32887  0.69519  0.25148  1.0000
  S   S115      1.0  0.00168  0.89860  0.18506  1.0000
  H   H356      1.0  0.19646  0.92398  0.35686  1.0000
  C   C349      1.0  0.26846  0.00863  0.20271  1.0000
  Fe  Fe58      1.0  0.41452  0.88564  0.38228  1.0000
  H   H357      1.0  0.35550  0.88551  0.35499  1.0000
  H   H358      1.0  0.16151  0.86283  0.20463  1.0000
  H   H359      1.0  0.10012  0.74835  0.36230  1.0000
  H   H360      1.0  0.41899  0.98894  0.34067  1.0000
  C   C350      1.0  0.93719  0.60452  0.29730  1.0000
  S   S116      1.0  0.41546  0.92420  0.29299  1.0000
  H   H361      1.0  0.21070  0.07440  0.38564  1.0000
  S   S117      1.0  0.21560  0.79661  0.40751  1.0000
  C   C351      1.0  0.20902  0.07616  0.33637  1.0000
  C   C352      1.0  0.41338  0.89429  0.16456  1.0000
  C   C353      1.0  0.39551  0.64022  0.53906  1.0000
  C   C354      1.0  0.06098  0.77625  0.63962  1.0000
  C   C355      1.0  0.15898  0.64544  0.57961  1.0000
  N   N29       1.0  0.29692  0.94358  0.53585  1.0000
  C   C356      1.0  0.26693  0.68593  0.46263  1.0000
  H   H362      1.0  0.24516  0.88027  0.54776  1.0000
  C   C357      1.0  0.94977  0.61332  0.59265  1.0000
  C   C358      1.0  0.16645  0.64936  0.50965  1.0000
  H   H363      1.0  0.07450  0.69094  0.52733  1.0000
  C   C359      1.0  0.07018  0.96020  0.64241  1.0000
  H   H364      1.0  0.99163  0.84258  0.63089  1.0000
  S   S118      1.0  0.27518  0.67993  0.62887  1.0000
  S   S119      1.0  0.24781  0.60420  0.62355  1.0000
  H   H365      1.0  0.96594  0.89017  0.59008  1.0000
  H   H366      1.0  0.39025  0.98871  0.54261  1.0000
  S   S120      1.0  0.17038  0.73884  0.53836  1.0000
  H   H367      1.0  0.32029  0.82130  0.57589  1.0000
  C   C360      1.0  0.27773  0.96902  0.54946  1.0000
  C   C361      1.0  0.99804  0.60596  0.60971  1.0000
  H   H368      1.0  0.28678  0.99417  0.54899  1.0000
  C   C362      1.0  0.07191  0.81060  0.61773  1.0000
  C   C363      1.0  0.98552  0.76692  0.41922  1.0000
  H   H369      1.0  0.37115  0.65544  0.47212  1.0000
  H   H370      1.0  0.06816  0.86028  0.50766  1.0000
  H   H371      1.0  0.07211  0.95674  0.59218  1.0000
  H   H372      1.0  0.20997  0.92607  0.57291  1.0000
  H   H373      1.0  0.24420  0.76062  0.51438  1.0000
  H   H374      1.0  0.26992  0.69315  0.50569  1.0000
  C   C364      1.0  0.27270  0.81554  0.58554  1.0000
  S   S121      1.0  0.11165  0.00282  0.45411  1.0000
  H   H375      1.0  0.35151  0.70513  0.52278  1.0000
  C   C365      1.0  0.24427  0.69992  0.44074  1.0000
  C   C366      1.0  0.12978  0.65247  0.62096  1.0000
  H   H376      1.0  0.18917  0.64412  0.47700  1.0000
  H   H377      1.0  0.09177  0.81877  0.57191  1.0000
  H   H378      1.0  0.10986  0.99709  0.60528  1.0000
  C   C367      1.0  0.00463  0.71488  0.45750  1.0000
  S   S122      1.0  0.31389  0.61324  0.64240  1.0000
  H   H379      1.0  0.08370  0.65760  0.47931  1.0000
  C   C368      1.0  0.33002  0.94983  0.52102  1.0000
  C   C369      1.0  0.00347  0.74993  0.45216  1.0000
  Fe  Fe59      1.0  0.18952  0.74618  0.42400  1.0000
  H   H380      1.0  0.98811  0.66994  0.43590  1.0000
  S   S123      1.0  0.04186  0.02822  0.50889  1.0000
  N   N30       1.0  0.35126  0.04190  0.66064  1.0000
  C   C370      1.0  0.14468  0.66077  0.48180  1.0000
  Fe  Fe60      1.0  0.29199  0.63805  0.57134  1.0000
  N   N31       1.0  0.11625  0.66806  0.52260  1.0000
  H   H381      1.0  0.10496  0.69914  0.44508  1.0000
  S   S124      1.0  0.31391  0.64599  0.45765  1.0000
  C   C371      1.0  0.26070  0.77380  0.52801  1.0000
  S   S125      1.0  0.26044  0.06048  0.44062  1.0000
  S   S126      1.0  0.35175  0.77550  0.48897  1.0000
  C   C372      1.0  0.23433  0.93096  0.56291  1.0000
  H   H382      1.0  0.11358  0.83390  0.43951  1.0000
  C   C373      1.0  0.01342  0.83031  0.53168  1.0000
  S   S127      1.0  0.10354  0.07135  0.56563  1.0000
  C   C374      1.0  0.99456  0.84866  0.57765  1.0000
  H   H383      1.0  0.02526  0.80982  0.54928  1.0000
  C   C375      1.0  0.37713  0.66117  0.51351  1.0000
  C   C376      1.0  0.39214  0.67652  0.61903  1.0000
  C   C377      1.0  0.30367  0.80812  0.56252  1.0000
  C   C378      1.0  0.28590  0.66325  0.42832  1.0000
  H   H384      1.0  0.98792  0.65194  0.55631  1.0000
  C   C379      1.0  0.93811  0.58076  0.63195  1.0000
  H   H385      1.0  0.06544  0.86141  0.63665  1.0000
  C   C380      1.0  0.31300  0.78352  0.52234  1.0000
  C   C381      1.0  0.29141  0.76584  0.50649  1.0000
  S   S128      1.0  0.37056  0.87412  0.47343  1.0000
  H   H386      1.0  0.93523  0.62936  0.57343  1.0000
  H   H387      1.0  0.39853  0.68264  0.65951  1.0000
  C   C382      1.0  0.01850  0.83988  0.46256  1.0000
  Fe  Fe61      1.0  0.19331  0.79114  0.52109  1.0000
  H   H388      1.0  0.33665  0.93167  0.55792  1.0000
  H   H389      1.0  0.22989  0.71751  0.46757  1.0000
  Fe  Fe62      1.0  0.09003  0.04865  0.49070  1.0000
  C   C383      1.0  0.41234  0.98348  0.54613  1.0000
  H   H390      1.0  0.29862  0.74660  0.47604  1.0000
  C   C384      1.0  0.96898  0.91250  0.46343  1.0000
  S   S129      1.0  0.03171  0.62448  0.61248  1.0000
  C   C385      1.0  0.28549  0.91198  0.53562  1.0000
  Fe  Fe63      1.0  0.13035  0.76557  0.52638  1.0000
  H   H391      1.0  0.40424  0.61838  0.51707  1.0000
  C   C386      1.0  0.98021  0.87570  0.55415  1.0000
  Fe  Fe64      1.0  0.38270  0.82026  0.48103  1.0000
  C   C387      1.0  0.41748  0.95025  0.57053  1.0000
  C   C388      1.0  0.11186  0.86083  0.42576  1.0000
  C   C389      1.0  0.08572  0.87550  0.46344  1.0000
  C   C390      1.0  0.98749  0.69720  0.43031  1.0000
  C   C391      1.0  0.10846  0.66362  0.59151  1.0000
  C   C392      1.0  0.09379  0.67948  0.49208  1.0000
  S   S130      1.0  0.05104  0.92892  0.49526  1.0000
  H   H392      1.0  0.26550  0.83462  0.61645  1.0000
  H   H393      1.0  0.34022  0.73189  0.62432  1.0000
  C   C393      1.0  0.40275  0.64765  0.59274  1.0000
  C   C394      1.0  0.36440  0.72794  0.61977  1.0000
  C   C395      1.0  0.24614  0.96307  0.56341  1.0000
  S   S131      1.0  0.15235  0.81727  0.51640  1.0000
  H   H394      1.0  0.32048  0.86796  0.63944  1.0000
  H   H395      1.0  0.39648  0.03156  0.65736  1.0000
  Fe  Fe65      1.0  0.40018  0.88063  0.53242  1.0000
  H   H396      1.0  0.23103  0.98334  0.57354  1.0000
  H   H397      1.0  0.30075  0.89187  0.52482  1.0000
  C   C396      1.0  0.08301  0.91017  0.44567  1.0000
  S   S132      1.0  0.08181  0.74563  0.59699  1.0000
  S   S133      1.0  0.40791  0.82516  0.55037  1.0000
  C   C397      1.0  0.00352  0.86686  0.44091  1.0000
  H   H398      1.0  0.33625  0.97597  0.52509  1.0000
  H   H399      1.0  0.03457  0.82721  0.42557  1.0000
  S   S134      1.0  0.38730  0.91766  0.60190  1.0000
  Fe  Fe66      1.0  0.06442  0.98486  0.46256  1.0000
  C   C398      1.0  0.25408  0.90522  0.54884  1.0000
  C   C399      1.0  0.25142  0.79884  0.56689  1.0000
  H   H400      1.0  0.17587  0.63721  0.60168  1.0000
  C   C400      1.0  0.36622  0.68935  0.54222  1.0000
  S   S135      1.0  0.21343  0.80991  0.58977  1.0000
  H   H401      1.0  0.08573  0.66903  0.62385  1.0000
  C   C401      1.0  0.97977  0.62597  0.58185  1.0000
  H   H402      1.0  0.01678  0.76379  0.47286  1.0000
  H   H403      1.0  0.34367  0.94643  0.46845  1.0000
  C   C402      1.0  0.05661  0.83486  0.65404  1.0000
  H   H404      1.0  0.01912  0.70157  0.48157  1.0000
  N   N32       1.0  0.98413  0.88390  0.48686  1.0000
  N   N33       1.0  0.37396  0.69683  0.59404  1.0000
  H   H405      1.0  0.15084  0.66420  0.42717  1.0000
  C   C403      1.0  0.09140  0.98258  0.64980  1.0000
  H   H406      1.0  0.37999  0.75014  0.58458  1.0000
  H   H407      1.0  0.41715  0.63162  0.61272  1.0000
  H   H408      1.0  0.94571  0.91376  0.50244  1.0000
  H   H409      1.0  0.98339  0.93668  0.45338  1.0000
  H   H410      1.0  0.96541  0.90970  0.41616  1.0000
  H   H411      1.0  0.98429  0.79415  0.41465  1.0000
  S   S136      1.0  0.92643  0.83359  0.89984  1.0000
  S   S137      1.0  0.21733  0.95572  0.84432  1.0000
  Fe  Fe67      1.0  0.16412  0.87606  0.86098  1.0000
  N   N34       1.0  0.22573  0.79043  0.75277  1.0000
  H   H412      1.0  0.01337  0.93859  0.86924  1.0000
  C   C404      1.0  0.16490  0.59213  0.74687  1.0000
  C   C405      1.0  0.12897  0.62785  0.81058  1.0000
  H   H413      1.0  0.18710  0.58900  0.71010  1.0000
  C   C406      1.0  0.10655  0.60010  0.83967  1.0000
  C   C407      1.0  0.41755  0.92840  0.84916  1.0000
  C   C408      1.0  0.29415  0.87832  0.73835  1.0000
  C   C409      1.0  0.93102  0.67048  0.75476  1.0000
  H   H414      1.0  0.38311  0.97025  0.69957  1.0000
  C   C410      1.0  0.31463  0.86032  0.69375  1.0000
  H   H415      1.0  0.19294  0.76386  0.72728  1.0000
  C   C411      1.0  0.10258  0.82042  0.74949  1.0000
  H   H416      1.0  0.08902  0.70884  0.71792  1.0000
  Fe  Fe68      1.0  0.17320  0.95330  0.82532  1.0000
  H   H417      1.0  0.99702  0.92396  0.81423  1.0000
  H   H418      1.0  0.31849  0.60257  0.76810  1.0000
  C   C412      1.0  0.01785  0.79075  0.73251  1.0000
  C   C413      1.0  0.21534  0.04899  0.78515  1.0000
  Fe  Fe69      1.0  0.39880  0.01166  0.82371  1.0000
  C   C414      1.0  0.38701  0.63378  0.80993  1.0000
  S   S138      1.0  0.27536  0.91087  0.70756  1.0000
  H   H419      1.0  0.40257  0.94325  0.88288  1.0000
  Fe  Fe70      1.0  0.29335  0.65213  0.70480  1.0000
  Fe  Fe71      1.0  0.95997  0.84577  0.79164  1.0000
  C   C415      1.0  0.22868  0.73287  0.73628  1.0000
  H   H420      1.0  0.23899  0.06220  0.76435  1.0000
  S   S139      1.0  0.33052  0.78323  0.82350  1.0000
  Fe  Fe72      1.0  0.97578  0.57760  0.85892  1.0000
  C   C416      1.0  0.08877  0.98628  0.71484  1.0000
  Fe  Fe73      1.0  0.01840  0.63767  0.85261  1.0000
  C   C417      1.0  0.01868  0.92658  0.82400  1.0000
  S   S140      1.0  0.31802  0.67504  0.76099  1.0000
  C   C418      1.0  0.31818  0.82094  0.79007  1.0000
  C   C419      1.0  0.25182  0.78872  0.76761  1.0000
  C   C420      1.0  0.03359  0.76634  0.69665  1.0000
  C   C421      1.0  0.06463  0.96777  0.77178  1.0000
  H   H421      1.0  0.38686  0.84545  0.69959  1.0000
  H   H422      1.0  0.05610  0.74716  0.82500  1.0000
  H   H423      1.0  0.28986  0.98327  0.71288  1.0000
  H   H424      1.0  0.22605  0.84441  0.73838  1.0000
  C   C422      1.0  0.02965  0.82497  0.71162  1.0000
  C   C423      1.0  0.32156  0.02876  0.67706  1.0000
  H   H425      1.0  0.99714  0.78292  0.77745  1.0000
  Fe  Fe74      1.0  0.22897  0.91252  0.78892  1.0000
  H   H426      1.0  0.40615  0.74908  0.83071  1.0000
  H   H427      1.0  0.14731  0.76213  0.67436  1.0000
  C   C424      1.0  0.12818  0.80716  0.70689  1.0000
  H   H428      1.0  0.26054  0.81021  0.78131  1.0000
  H   H429      1.0  0.12813  0.70597  0.89399  1.0000
  N   N35       1.0  0.04354  0.94638  0.76400  1.0000
  C   C425      1.0  0.28700  0.86870  0.80837  1.0000
  S   S141      1.0  0.34786  0.00068  0.85816  1.0000
  H   H430      1.0  0.08839  0.69926  0.80338  1.0000
  S   S142      1.0  0.98596  0.63112  0.79998  1.0000
  N   N36       1.0  0.19305  0.07355  0.77949  1.0000
  H   H431      1.0  0.27227  0.88338  0.84285  1.0000
  C   C426      1.0  0.12845  0.01471  0.85489  1.0000
  H   H432      1.0  0.10270  0.84754  0.74889  1.0000
  S   S143      1.0  0.20743  0.87173  0.88287  1.0000
  C   C427      1.0  0.15786  0.62408  0.76289  1.0000
  H   H433      1.0  0.19480  0.82363  0.72635  1.0000
  H   H434      1.0  0.10786  0.04804  0.79583  1.0000
  H   H435      1.0  0.21472  0.02884  0.75624  1.0000
  H   H436      1.0  0.21001  0.03624  0.83893  1.0000
  C   C428      1.0  0.04632  0.94213  0.70038  1.0000
  H   H437      1.0  0.19432  0.82036  0.81126  1.0000
  C   C429      1.0  0.31325  0.99380  0.70104  1.0000
  S   S144      1.0  0.01118  0.85572  0.75680  1.0000
  H   H438      1.0  0.11113  0.89875  0.85045  1.0000
  C   C430      1.0  0.36765  0.89506  0.78858  1.0000
  C   C431      1.0  0.32656  0.83149  0.71964  1.0000
  C   C432      1.0  0.21390  0.76285  0.73788  1.0000
  H   H439      1.0  0.41544  0.83573  0.73700  1.0000
  H   H440      1.0  0.36824  0.68263  0.80583  1.0000
  C   C433      1.0  0.33731  0.87961  0.90907  1.0000
  C   C434      1.0  0.33549  0.97240  0.70868  1.0000
  C   C435      1.0  0.33803  0.61163  0.77788  1.0000
  H   H441      1.0  0.00181  0.75130  0.89618  1.0000
  C   C436      1.0  0.34679  0.90353  0.84816  1.0000
  C   C437      1.0  0.34173  0.64562  0.78266  1.0000
  C   C438      1.0  0.36563  0.65646  0.80100  1.0000
  C   C439      1.0  0.40029  0.85526  0.72663  1.0000
  C   C440      1.0  0.26720  0.75908  0.76624  1.0000
  H   H442      1.0  0.02549  0.90061  0.83694  1.0000
  C   C441      1.0  0.08865  0.05142  0.90200  1.0000
  S   S145      1.0  0.15283  0.99869  0.78565  1.0000
  C   C442      1.0  0.10826  0.03889  0.84594  1.0000
  C   C443      1.0  0.95337  0.74640  0.91343  1.0000
  C   C444      1.0  0.42024  0.70301  0.87589  1.0000
  S   S146      1.0  0.39767  0.06796  0.79693  1.0000
  C   C445      1.0  0.41953  0.89392  0.87349  1.0000
  H   H443      1.0  0.32963  0.94511  0.72487  1.0000
  H   H444      1.0  0.94327  0.62315  0.72228  1.0000
  H   H445      1.0  0.33778  0.92825  0.84706  1.0000
  S   S147      1.0  0.18673  0.91318  0.76258  1.0000
  Fe  Fe75      1.0  0.39349  0.06766  0.90370  1.0000
  H   H446      1.0  0.95170  0.68515  0.71686  1.0000
  H   H447      1.0  0.40590  0.64225  0.82269  1.0000
  S   S148      1.0  0.05844  0.62355  0.76897  1.0000
  H   H448      1.0  0.34142  0.81681  0.68521  1.0000
  H   H449      1.0  0.21925  0.71108  0.72498  1.0000
  H   H450      1.0  0.30416  0.04532  0.67158  1.0000
  N   N37       1.0  0.37923  0.86399  0.78992  1.0000
  C   C446      1.0  0.07669  0.76378  0.79279  1.0000
  H   H451      1.0  0.29278  0.83242  0.88850  1.0000
  H   H452      1.0  0.37478  0.91335  0.74126  1.0000
  S   S149      1.0  0.13100  0.83172  0.87364  1.0000
  C   C447      1.0  0.07662  0.79867  0.79268  1.0000
  C   C448      1.0  0.10115  0.71436  0.75125  1.0000
  C   C449      1.0  0.09146  0.88171  0.88563  1.0000
  H   H453      1.0  0.28792  0.75753  0.77774  1.0000
  H   H454      1.0  0.12372  0.65244  0.82339  1.0000
  Fe  Fe76      1.0  0.23199  0.64460  0.68498  1.0000
  H   H455      1.0  0.10539  0.00338  0.72106  1.0000
  H   H456      1.0  0.08389  0.60322  0.87546  1.0000
  H   H457      1.0  0.36499  0.72670  0.67128  1.0000
  C   C450      1.0  0.25525  0.73091  0.75133  1.0000
  C   C451      1.0  0.37004  0.84044  0.84936  1.0000
  C   C452      1.0  0.35940  0.58901  0.78664  1.0000
  S   S150      1.0  0.24875  0.62104  0.76589  1.0000
  S   S151      1.0  0.18358  0.66012  0.71835  1.0000
  N   N38       1.0  0.10205  0.75089  0.75160  1.0000
  C   C453      1.0  0.39947  0.72725  0.87262  1.0000
  C   C454      1.0  0.12746  0.77213  0.70834  1.0000
  C   C455      1.0  0.20941  0.82130  0.75743  1.0000
  C   C456      1.0  0.37292  0.02125  0.67010  1.0000
  C   C457      1.0  0.36536  0.98631  0.69442  1.0000
  H   H458      1.0  0.37874  0.81554  0.85024  1.0000
  H   H459      1.0  0.06290  0.97079  0.82211  1.0000
  H   H460      1.0  0.26622  0.70739  0.75278  1.0000
  H   H461      1.0  0.12480  0.70570  0.73260  1.0000
  H   H462      1.0  0.07333  0.07024  0.89484  1.0000
  H   H463      1.0  0.02486  0.73977  0.71401  1.0000
  C   C458      1.0  0.29875  0.83989  0.83420  1.0000
  H   H464      1.0  0.05631  0.80894  0.82469  1.0000
  Fe  Fe77      1.0  0.26810  0.58336  0.70052  1.0000
  C   C459      1.0  0.38439  0.60035  0.80076  1.0000
  Fe  Fe78      1.0  0.02484  0.61149  0.72286  1.0000
  Fe  Fe79      1.0  0.34648  0.05707  0.84093  1.0000
  S   S152      1.0  0.94049  0.80428  0.75770  1.0000
  H   H465      1.0  0.17610  0.65458  0.87932  1.0000
  H   H466      1.0  0.03000  0.92474  0.69401  1.0000
  H   H467      1.0  0.95209  0.77344  0.90411  1.0000
  H   H468      1.0  0.17196  0.07144  0.88649  1.0000
  S   S153      1.0  0.02095  0.68340  0.89724  1.0000
  H   H469      1.0  0.14835  0.82393  0.67248  1.0000
  S   S154      1.0  0.19092  0.71830  0.90966  1.0000
  H   H470      1.0  0.12388  0.64943  0.67537  1.0000
  C   C460      1.0  0.26958  0.05587  0.90107  1.0000
  S   S155      1.0  0.93200  0.88497  0.75934  1.0000
  C   C461      1.0  0.98173  0.73378  0.90887  1.0000
  C   C462      1.0  0.34875  0.84766  0.90938  1.0000
  C   C463      1.0  0.09435  0.84691  0.90164  1.0000
  C   C464      1.0  0.92626  0.63573  0.75744  1.0000
  H   H471      1.0  0.06163  0.92199  0.90705  1.0000
  H   H472      1.0  0.28454  0.03703  0.91027  1.0000
  H   H473      1.0  0.41544  0.87801  0.69240  1.0000
  H   H474      1.0  0.63177  0.34423  0.99226  1.0000
  C   C465      1.0  0.46269  0.47629  0.04089  1.0000
  C   C466      1.0  0.52955  0.28899  0.98797  1.0000
  S   S156      1.0  0.88731  0.47404  0.13041  1.0000
  H   H475      1.0  0.70057  0.40721  0.93052  1.0000
  S   S157      1.0  0.51283  0.27516  0.93531  1.0000
  C   C467      1.0  0.47206  0.41131  0.01120  1.0000
  H   H476      1.0  0.87630  0.50552  0.98597  1.0000
  Fe  Fe80      1.0  0.81238  0.20786  0.12760  1.0000
  C   C468      1.0  0.55761  0.17739  0.06318  1.0000
  Fe  Fe81      1.0  0.43103  0.35815  0.95297  1.0000
  Fe  Fe82      1.0  0.68672  0.54482  0.04587  1.0000
  H   H477      1.0  0.64781  0.23347  0.93525  1.0000
  H   H478      1.0  0.91609  0.35003  0.01003  1.0000
  S   S158      1.0  0.43030  0.41458  0.94752  1.0000
  S   S159      1.0  0.50829  0.55594  0.99521  1.0000
  C   C469      1.0  0.44720  0.46356  0.00400  1.0000
  N   N39       1.0  0.65859  0.38871  0.92414  1.0000
  C   C470      1.0  0.91474  0.32260  0.01541  1.0000
  H   H479      1.0  0.67544  0.37780  0.00446  1.0000
  C   C471      1.0  0.75145  0.25700  0.02437  1.0000
  C   C472      1.0  0.46568  0.15896  0.16180  1.0000
  Fe  Fe83      1.0  0.71971  0.47992  0.03586  1.0000
  S   S160      1.0  0.89575  0.37400  0.14324  1.0000
  C   C473      1.0  0.58326  0.18466  0.93882  1.0000
  C   C474      1.0  0.77501  0.36249  0.06511  1.0000
  N   N40       1.0  0.91030  0.25217  0.03131  1.0000
  H   H480      1.0  0.79209  0.33118  0.92583  1.0000
  C   C475      1.0  0.53455  0.32939  0.05549  1.0000
  H   H481      1.0  0.59006  0.34907  0.94652  1.0000
  H   H482      1.0  0.72164  0.18429  0.01460  1.0000
  H   H483      1.0  0.71614  0.17038  0.94377  1.0000
  C   C476      1.0  0.79620  0.31573  0.11234  1.0000
  H   H484      1.0  0.50323  0.40878  0.06508  1.0000
  C   C477      1.0  0.45141  0.43082  0.99015  1.0000
  C   C478      1.0  0.71619  0.08024  0.10731  1.0000
  H   H485      1.0  0.47734  0.10983  0.95665  1.0000
  H   H486      1.0  0.58556  0.40227  0.08427  1.0000
  S   S161      1.0  0.57444  0.32582  0.12147  1.0000
  H   H487      1.0  0.83577  0.29853  0.93506  1.0000
  H   H488      1.0  0.80481  0.42651  0.09394  1.0000
  H   H489      1.0  0.75517  0.37561  0.06257  1.0000
  C   C479      1.0  0.48754  0.42405  0.04824  1.0000
  H   H490      1.0  0.89849  0.26008  0.94312  1.0000
  H   H491      1.0  0.85350  0.37293  0.99629  1.0000
  H   H492      1.0  0.45838  0.50116  0.05320  1.0000
  H   H493      1.0  0.48541  0.16827  0.11542  1.0000
  N   N41       1.0  0.77111  0.33190  0.10868  1.0000
  H   H494      1.0  0.83717  0.55908  0.13716  1.0000
  S   S162      1.0  0.42302  0.10595  0.92276  1.0000
  H   H495      1.0  0.79320  0.29187  0.14766  1.0000
  H   H496      1.0  0.64445  0.19159  0.05377  1.0000
  H   H497      1.0  0.87126  0.44374  0.98684  1.0000
  S   S163      1.0  0.50084  0.47163  0.11309  1.0000
  C   C480      1.0  0.89989  0.09532  0.10807  1.0000
  C   C481      1.0  0.63404  0.16572  0.07213  1.0000
  C   C482      1.0  0.91089  0.11894  0.13660  1.0000
  C   C483      1.0  0.68412  0.38399  0.94808  1.0000
  C   C484      1.0  0.61334  0.11653  0.16352  1.0000
  H   H498      1.0  0.72812  0.24509  0.04838  1.0000
  Fe  Fe84      1.0  0.61278  0.29595  0.13483  1.0000
  S   S164      1.0  0.64228  0.51902  0.05546  1.0000
  N   N42       1.0  0.56178  0.16693  0.99868  1.0000
  C   C485      1.0  0.77897  0.47003  0.08523  1.0000
  H   H499      1.0  0.72256  0.32506  0.13243  1.0000
  H   H500      1.0  0.59793  0.20594  0.93861  1.0000
  H   H501      1.0  0.74534  0.56620  0.01521  1.0000
  C   C486      1.0  0.62809  0.14754  0.02742  1.0000
  C   C487      1.0  0.74001  0.31744  0.15498  1.0000
  C   C488      1.0  0.58974  0.55007  0.96082  1.0000
  Fe  Fe85      1.0  0.49818  0.52823  0.10143  1.0000
  Fe  Fe86      1.0  0.67158  0.49394  0.97152  1.0000
  H   H502      1.0  0.60027  0.43974  0.10340  1.0000
  H   H503      1.0  0.75732  0.51695  0.08535  1.0000
  C   C489      1.0  0.80470  0.37745  0.02344  1.0000
  C   C490      1.0  0.89347  0.49482  0.94725  1.0000
  C   C491      1.0  0.46048  0.09069  0.99507  1.0000
  C   C492      1.0  0.70734  0.10586  0.14545  1.0000
  S   S165      1.0  0.69397  0.50440  0.12378  1.0000
  S   S166      1.0  0.65314  0.32662  0.13470  1.0000
  C   C493      1.0  0.90453  0.27180  0.97891  1.0000
  H   H504      1.0  0.55864  0.24778  0.98391  1.0000
  H   H505      1.0  0.45948  0.24786  0.14133  1.0000
  C   C494      1.0  0.75714  0.29072  0.98925  1.0000
  C   C495      1.0  0.55192  0.27048  0.00401  1.0000
  Fe  Fe87      1.0  0.68251  0.29085  0.07602  1.0000
  C   C496      1.0  0.43189  0.08396  0.99035  1.0000
  H   H506      1.0  0.57843  0.19263  0.05975  1.0000
  C   C497      1.0  0.80629  0.25360  0.99773  1.0000
  C   C498      1.0  0.82617  0.33005  0.07168  1.0000
  C   C499      1.0  0.78762  0.30532  0.95458  1.0000
  C   C500      1.0  0.77605  0.23828  0.02738  1.0000
  H   H507      1.0  0.63360  0.15951  0.97485  1.0000
  C   C501      1.0  0.90924  0.21510  0.03812  1.0000
  S   S167      1.0  0.71574  0.52280  0.95749  1.0000
  S   S168      1.0  0.60120  0.09339  0.00030  1.0000
  C   C502      1.0  0.81230  0.28677  0.95916  1.0000
  H   H508      1.0  0.50490  0.33380  0.99845  1.0000
  C   C503      1.0  0.60649  0.52192  0.94830  1.0000
  C   C504      1.0  0.48261  0.45642  0.06382  1.0000
  S   S169      1.0  0.83536  0.23267  0.01747  1.0000
  H   H509      1.0  0.61452  0.39964  0.12209  1.0000
  H   H510      1.0  0.57089  0.54831  0.00885  1.0000
  C   C505      1.0  0.83040  0.36120  0.02713  1.0000
  Fe  Fe88      1.0  0.46748  0.29679  0.94814  1.0000
  H   H511      1.0  0.69691  0.36272  0.92795  1.0000
  C   C506      1.0  0.59347  0.41194  0.12106  1.0000
  C   C507      1.0  0.86968  0.07984  0.14158  1.0000
  S   S170      1.0  0.72609  0.31457  0.98980  1.0000
  C   C508      1.0  0.86016  0.56973  0.12827  1.0000
  C   C509      1.0  0.60962  0.36797  0.92617  1.0000
  H   H512      1.0  0.77153  0.21202  0.05412  1.0000
  C   C510      1.0  0.60755  0.09849  0.11900  1.0000
  S   S171      1.0  0.44091  0.32224  0.03426  1.0000
  H   H513      1.0  0.53763  0.19295  0.07753  1.0000
  C   C511      1.0  0.79830  0.45013  0.11008  1.0000
  C   C512      1.0  0.54343  0.13996  0.99861  1.0000
  H   H514      1.0  0.52826  0.35259  0.07417  1.0000
  H   H515      1.0  0.90084  0.32268  0.93024  1.0000
  S   S172      1.0  0.45446  0.55288  0.14437  1.0000
  H   H516      1.0  0.80765  0.40206  0.99026  1.0000
  H   H517      1.0  0.60039  0.49879  0.98682  1.0000
  S   S173      1.0  0.67759  0.44907  0.04288  1.0000
  C   C513      1.0  0.44253  0.13667  0.16118  1.0000
  S   S174      1.0  0.76331  0.45525  0.03133  1.0000
  C   C514      1.0  0.54715  0.12935  0.93775  1.0000
  Fe  Fe89      1.0  0.65183  0.47659  0.12584  1.0000
  C   C515      1.0  0.90609  0.30725  0.97093  1.0000
  C   C516      1.0  0.61388  0.11429  0.05156  1.0000
  C   C517      1.0  0.63329  0.36543  0.95167  1.0000
  H   H518      1.0  0.52658  0.12577  0.04606  1.0000
  H   H519      1.0  0.89143  0.20557  0.02098  1.0000
  H   H520      1.0  0.43146  0.47894  0.98743  1.0000
  C   C518      1.0  0.77101  0.50073  0.10656  1.0000
  C   C519      1.0  0.72113  0.19288  0.96294  1.0000
  H   H521      1.0  0.47621  0.38651  0.99872  1.0000
  S   S175      1.0  0.42710  0.26088  0.96532  1.0000
  H   H522      1.0  0.53361  0.10706  0.93806  1.0000
  H   H523      1.0  0.58237  0.26656  0.05933  1.0000
  C   C520      1.0  0.52109  0.31862  0.01318  1.0000
  C   C521      1.0  0.89068  0.45983  0.94790  1.0000
  H   H524      1.0  0.90320  0.20198  0.09194  1.0000
  C   C522      1.0  0.56541  0.28119  0.04639  1.0000
  H   H525      1.0  0.84587  0.31723  0.07576  1.0000
  C   C523      1.0  0.55676  0.31071  0.07193  1.0000
  S   S176      1.0  0.64241  0.26272  0.06813  1.0000
  C   C524      1.0  0.62597  0.15037  0.14070  1.0000
  H   H526      1.0  0.77648  0.16976  0.93554  1.0000
  H   H527      1.0  0.44456  0.12869  0.11441  1.0000
  H   H528      1.0  0.53727  0.49408  0.95219  1.0000
  C   C525      1.0  0.78111  0.51071  0.15494  1.0000
  H   H529      1.0  0.70162  0.20908  0.96803  1.0000
  H   H530      1.0  0.68947  0.12174  0.14014  1.0000
  H   H531      1.0  0.55367  0.15477  0.10468  1.0000
  S   S177      1.0  0.52778  0.56634  0.12217  1.0000
  H   H532      1.0  0.87605  0.57502  0.01967  1.0000
  C   C526      1.0  0.80864  0.46029  0.15780  1.0000
  N   N43       1.0  0.75081  0.21119  0.91614  1.0000
  C   C527      1.0  0.91910  0.26708  0.07472  1.0000
  H   H533      1.0  0.64811  0.29639  0.91467  1.0000
  H   H534      1.0  0.48958  0.07658  0.05237  1.0000
  C   C528      1.0  0.72166  0.11093  0.19031  1.0000
  C   C529      1.0  0.62893  0.51991  0.29018  1.0000
  C   C530      1.0  0.71715  0.57349  0.22784  1.0000
  N   N44       1.0  0.68643  0.55543  0.25092  1.0000
  S   S178      1.0  0.61594  0.45257  0.22673  1.0000
  N   N45       1.0  0.56874  0.40479  0.18881  1.0000
  H   H535      1.0  0.69632  0.51471  0.31617  1.0000
  C   C531      1.0  0.66530  0.37213  0.24043  1.0000
  C   C532      1.0  0.54632  0.42681  0.20539  1.0000
  C   C533      1.0  0.56757  0.37563  0.23418  1.0000
  N   N46       1.0  0.71958  0.41428  0.31167  1.0000
  S   S179      1.0  0.83718  0.12512  0.30394  1.0000
  Fe  Fe90      1.0  0.48631  0.20022  0.32852  1.0000
  H   H536      1.0  0.85157  0.21330  0.35993  1.0000
  H   H537      1.0  0.46172  0.09061  0.29118  1.0000
  H   H538      1.0  0.64504  0.48256  0.35189  1.0000
  C   C534      1.0  0.72654  0.10166  0.40547  1.0000
  S   S180      1.0  0.89276  0.50195  0.26087  1.0000
  H   H539      1.0  0.51081  0.10009  0.29767  1.0000
  C   C535      1.0  0.62763  0.09724  0.31916  1.0000
  H   H540      1.0  0.89736  0.33231  0.30821  1.0000
  C   C536      1.0  0.85051  0.08830  0.20301  1.0000
  S   S181      1.0  0.76552  0.22327  0.18338  1.0000
  C   C537      1.0  0.43762  0.15689  0.28213  1.0000
  H   H541      1.0  0.42145  0.46374  0.23133  1.0000
  C   C538      1.0  0.74773  0.37945  0.36815  1.0000
  C   C539      1.0  0.43887  0.29885  0.28553  1.0000
  C   C540      1.0  0.43344  0.41292  0.21986  1.0000
  Fe  Fe91      1.0  0.78303  0.22962  0.26400  1.0000
  C   C541      1.0  0.64519  0.35012  0.29888  1.0000
  C   C542      1.0  0.83279  0.36217  0.20648  1.0000
  H   H542      1.0  0.76764  0.42420  0.29042  1.0000
  H   H543      1.0  0.50210  0.08207  0.38657  1.0000
  H   H544      1.0  0.85153  0.56642  0.23471  1.0000
  H   H545      1.0  0.73168  0.56836  0.17748  1.0000
  C   C543      1.0  0.80527  0.34099  0.24243  1.0000
  H   H546      1.0  0.80236  0.24060  0.37892  1.0000
  H   H547      1.0  0.83194  0.38879  0.18771  1.0000
  H   H548      1.0  0.48521  0.32798  0.30003  1.0000
  C   C544      1.0  0.60879  0.39314  0.31800  1.0000
  H   H549      1.0  0.76923  0.37447  0.37523  1.0000
  C   C545      1.0  0.86135  0.34844  0.19183  1.0000
  H   H550      1.0  0.50268  0.38523  0.36631  1.0000
  C   C546      1.0  0.52223  0.42018  0.26939  1.0000
  H   H551      1.0  0.50748  0.29271  0.27838  1.0000
  Fe  Fe92      1.0  0.64956  0.28890  0.22778  1.0000
  C   C547      1.0  0.62806  0.20676  0.36313  1.0000
  S   S182      1.0  0.83087  0.21679  0.20603  1.0000
  C   C548      1.0  0.82997  0.20033  0.39750  1.0000
  S   S183      1.0  0.71006  0.14195  0.24006  1.0000
  S   S184      1.0  0.81127  0.50151  0.24356  1.0000
  Fe  Fe93      1.0  0.85559  0.47865  0.23497  1.0000
  H   H552      1.0  0.51017  0.32914  0.21320  1.0000
  C   C549      1.0  0.57327  0.08913  0.38924  1.0000
  H   H553      1.0  0.90050  0.14579  0.21930  1.0000
  Fe  Fe94      1.0  0.89941  0.44826  0.30112  1.0000
  C   C550      1.0  0.80243  0.21563  0.40785  1.0000
  C   C551      1.0  0.86249  0.31395  0.21560  1.0000
  C   C552      1.0  0.86173  0.11190  0.23126  1.0000
  C   C553      1.0  0.47652  0.27761  0.19677  1.0000
  C   C554      1.0  0.46343  0.16884  0.22228  1.0000
  C   C555      1.0  0.42242  0.26598  0.21886  1.0000
  C   C556      1.0  0.62834  0.41457  0.25796  1.0000
  C   C557      1.0  0.74674  0.40746  0.31997  1.0000
  C   C558      1.0  0.65064  0.50671  0.31612  1.0000
  C   C559      1.0  0.69305  0.39368  0.35016  1.0000
  S   S185      1.0  0.44661  0.22506  0.39256  1.0000
  H   H554      1.0  0.44194  0.36308  0.19704  1.0000
  H   H555      1.0  0.67268  0.42131  0.17537  1.0000
  C   C560      1.0  0.59976  0.11094  0.35001  1.0000
  H   H556      1.0  0.70610  0.21027  0.31330  1.0000
  Fe  Fe95      1.0  0.75337  0.16880  0.23400  1.0000
  C   C561      1.0  0.65704  0.40451  0.22051  1.0000
  C   C562      1.0  0.71056  0.08272  0.37817  1.0000
  S   S186      1.0  0.60678  0.26084  0.23285  1.0000
  H   H557      1.0  0.66347  0.18684  0.28617  1.0000
  H   H558      1.0  0.75546  0.09375  0.23256  1.0000
  H   H559      1.0  0.82716  0.31664  0.37764  1.0000
  H   H560      1.0  0.90511  0.56085  0.35629  1.0000
  S   S187      1.0  0.79910  0.15267  0.17316  1.0000
  S   S188      1.0  0.63051  0.17281  0.19966  1.0000
  C   C563      1.0  0.52104  0.39064  0.31620  1.0000
  H   H561      1.0  0.43293  0.31252  0.32721  1.0000
  S   S189      1.0  0.65325  0.30795  0.31606  1.0000
  H   H562      1.0  0.43591  0.16439  0.32905  1.0000
  H   H563      1.0  0.69536  0.45064  0.26886  1.0000
  C   C564      1.0  0.79964  0.49021  0.18109  1.0000
  C   C565      1.0  0.67549  0.23259  0.39453  1.0000
  H   H564      1.0  0.73283  0.46596  0.26176  1.0000
  H   H565      1.0  0.58666  0.40103  0.34741  1.0000
  H   H566      1.0  0.44858  0.41216  0.24812  1.0000
  H   H567      1.0  0.88447  0.30344  0.20693  1.0000
  H   H568      1.0  0.67131  0.39982  0.34553  1.0000
  S   S190      1.0  0.52192  0.22821  0.35147  1.0000
  C   C566      1.0  0.61723  0.36084  0.33859  1.0000
  C   C567      1.0  0.89191  0.12715  0.19812  1.0000
  H   H569      1.0  0.74902  0.48292  0.35641  1.0000
  H   H570      1.0  0.72918  0.43710  0.20860  1.0000
  C   C568      1.0  0.83512  0.29296  0.25198  1.0000
  H   H571      1.0  0.91342  0.36877  0.32549  1.0000
  S   S191      1.0  0.77242  0.27866  0.30004  1.0000
  H   H572      1.0  0.68699  0.36394  0.20977  1.0000
  H   H573      1.0  0.50489  0.43811  0.28264  1.0000
  C   C569      1.0  0.65844  0.20089  0.32706  1.0000
  C   C570      1.0  0.71922  0.44340  0.25999  1.0000
  H   H574      1.0  0.60936  0.19740  0.35041  1.0000
  C   C571      1.0  0.74545  0.46804  0.40626  1.0000
  S   S192      1.0  0.91379  0.42812  0.38829  1.0000
  S   S193      1.0  0.85919  0.42550  0.28445  1.0000
  H   H575      1.0  0.83639  0.26669  0.27175  1.0000
  H   H576      1.0  0.54344  0.34530  0.33449  1.0000
  S   S194      1.0  0.76570  0.17638  0.32181  1.0000
  C   C572      1.0  0.74456  0.09023  0.19742  1.0000
  C   C573      1.0  0.63637  0.55085  0.24376  1.0000
  Fe  Fe96      1.0  0.89344  0.42243  0.18156  1.0000
  S   S195      1.0  0.49322  0.19583  0.22219  1.0000
  C   C574      1.0  0.42970  0.38537  0.19125  1.0000
  N   N47       1.0  0.46916  0.29593  0.24745  1.0000
  C   C575      1.0  0.49413  0.31229  0.26053  1.0000
  H   H577      1.0  0.60707  0.10437  0.21611  1.0000
  H   H578      1.0  0.64770  0.11437  0.28561  1.0000
  C   C576      1.0  0.86806  0.57437  0.18281  1.0000
  C   C577      1.0  0.80646  0.30616  0.26392  1.0000
  H   H579      1.0  0.68991  0.09165  0.37119  1.0000
  H   H580      1.0  0.78320  0.35128  0.25078  1.0000
  C   C578      1.0  0.45333  0.26257  0.18138  1.0000
  H   H581      1.0  0.60155  0.34372  0.38355  1.0000
  C   C579      1.0  0.54379  0.36814  0.29843  1.0000
  Fe  Fe97      1.0  0.81228  0.16303  0.25851  1.0000
  C   C580      1.0  0.68238  0.21402  0.34242  1.0000
  H   H582      1.0  0.72882  0.56528  0.26399  1.0000
  C   C581      1.0  0.66530  0.56855  0.22508  1.0000
  C   C582      1.0  0.67955  0.52484  0.29553  1.0000
  H   H583      1.0  0.59846  0.13824  0.34157  1.0000
  H   H584      1.0  0.60647  0.50595  0.30572  1.0000
  S   S196      1.0  0.68168  0.25507  0.16969  1.0000
  H   H585      1.0  0.87832  0.08447  0.38277  1.0000
  H   H586      1.0  0.77491  0.53438  0.17161  1.0000
  H   H587      1.0  0.82302  0.44460  0.17795  1.0000
  H   H588      1.0  0.73402  0.32587  0.20432  1.0000
  H   H589      1.0  0.61983  0.56102  0.22255  1.0000
  C   C583      1.0  0.69331  0.36507  0.39774  1.0000
  C   C584      1.0  0.91885  0.34933  0.29303  1.0000
  H   H590      1.0  0.50047  0.27398  0.16862  1.0000
  H   H591      1.0  0.79324  0.47562  0.39363  1.0000
  H   H592      1.0  0.58547  0.35827  0.22143  1.0000
  H   H593      1.0  0.54727  0.44995  0.16943  1.0000
  S   S197      1.0  0.48040  0.15449  0.41031  1.0000
  H   H594      1.0  0.55131  0.09920  0.41228  1.0000
  H   H595      1.0  0.69432  0.24345  0.40500  1.0000
  C   C585      1.0  0.72086  0.35798  0.40677  1.0000
  H   H596      1.0  0.85071  0.36772  0.40563  1.0000
  H   H597      1.0  0.82693  0.07687  0.22803  1.0000
  Fe  Fe98      1.0  0.63928  0.22943  0.16683  1.0000
  H   H598      1.0  0.73869  0.28923  0.16507  1.0000
  S   S198      1.0  0.48317  0.30348  0.43522  1.0000
  Fe  Fe99      1.0  0.48175  0.24939  0.42291  1.0000
  C   C586      1.0  0.77046  0.46398  0.42733  1.0000
  H   H599      1.0  0.63966  0.55493  0.41837  1.0000
  Fe  Fe100     1.0  0.63846  0.43833  0.49943  1.0000
  C   C587      1.0  0.69160  0.51629  0.53634  1.0000
  C   C588      1.0  0.77532  0.16735  0.49583  1.0000
  S   S199      1.0  0.88158  0.11457  0.50355  1.0000
  Fe  Fe101     1.0  0.89386  0.20771  0.62245  1.0000
  H   H600      1.0  0.59525  0.13389  0.51727  1.0000
  H   H601      1.0  0.90262  0.32452  0.55780  1.0000
  C   C589      1.0  0.66795  0.32773  0.65936  1.0000
  H   H602      1.0  0.67276  0.33630  0.60417  1.0000
  H   H603      1.0  0.54005  0.22007  0.64450  1.0000
  H   H604      1.0  0.90147  0.56237  0.52965  1.0000
  C   C590      1.0  0.56019  0.16916  0.52739  1.0000
  H   H605      1.0  0.89287  0.36546  0.46971  1.0000
  C   C591      1.0  0.55188  0.20108  0.61710  1.0000
  H   H606      1.0  0.59633  0.57100  0.55107  1.0000
  C   C592      1.0  0.51164  0.30919  0.46842  1.0000
  C   C593      1.0  0.53010  0.28285  0.47629  1.0000
  H   H607      1.0  0.67805  0.51798  0.50438  1.0000
  C   C594      1.0  0.47201  0.10901  0.58206  1.0000
  H   H608      1.0  0.48485  0.44987  0.45983  1.0000
  H   H609      1.0  0.85797  0.56635  0.49020  1.0000
  H   H610      1.0  0.50180  0.36043  0.48142  1.0000
  H   H611      1.0  0.78387  0.53155  0.46147  1.0000
  C   C595      1.0  0.72733  0.51201  0.61531  1.0000
  C   C596      1.0  0.47971  0.27825  0.64970  1.0000
  Fe  Fe102     1.0  0.51294  0.18451  0.43883  1.0000
  C   C597      1.0  0.72335  0.52612  0.50708  1.0000
  C   C598      1.0  0.67769  0.50411  0.60643  1.0000
  C   C599      1.0  0.86059  0.10363  0.64253  1.0000
  H   H612      1.0  0.81419  0.56249  0.61185  1.0000
  C   C600      1.0  0.66376  0.08599  0.57378  1.0000
  H   H613      1.0  0.49450  0.11024  0.53889  1.0000
  C   C601      1.0  0.49035  0.44941  0.61333  1.0000
  C   C602      1.0  0.44885  0.42934  0.55732  1.0000
  H   H614      1.0  0.63124  0.28256  0.46699  1.0000
  C   C603      1.0  0.91452  0.39567  0.61982  1.0000
  C   C604      1.0  0.82949  0.16834  0.43670  1.0000
  C   C605      1.0  0.55265  0.28707  0.50349  1.0000
  S   S200      1.0  0.47532  0.20764  0.51239  1.0000
  C   C606      1.0  0.54483  0.19365  0.56285  1.0000
  S   S201      1.0  0.68496  0.45987  0.42288  1.0000
  H   H615      1.0  0.59834  0.23023  0.44188  1.0000
  C   C607      1.0  0.73642  0.43084  0.53591  1.0000
  H   H616      1.0  0.52131  0.54247  0.49533  1.0000
  N   N48       1.0  0.84439  0.35142  0.50919  1.0000
  H   H617      1.0  0.76298  0.23986  0.59420  1.0000
  S   S202      1.0  0.67166  0.18555  0.57915  1.0000
  H   H618      1.0  0.60832  0.14768  0.61201  1.0000
  C   C608      1.0  0.53930  0.34454  0.51237  1.0000
  H   H619      1.0  0.83882  0.51558  0.45971  1.0000
  C   C609      1.0  0.86948  0.48299  0.49007  1.0000
  C   C610      1.0  0.43018  0.27184  0.63549  1.0000
  N   N49       1.0  0.45189  0.29046  0.65475  1.0000
  C   C611      1.0  0.82743  0.27873  0.46208  1.0000
  S   S203      1.0  0.62846  0.39678  0.59113  1.0000
  C   C612      1.0  0.58324  0.15280  0.54481  1.0000
  H   H620      1.0  0.92052  0.50685  0.60943  1.0000
  C   C613      1.0  0.79217  0.55522  0.65362  1.0000
  S   S204      1.0  0.60401  0.41579  0.46541  1.0000
  C   C614      1.0  0.57491  0.18465  0.63450  1.0000
  C   C615      1.0  0.87936  0.32582  0.55831  1.0000
  H   H621      1.0  0.43321  0.24421  0.64202  1.0000
  H   H622      1.0  0.71814  0.12520  0.42016  1.0000
  Fe  Fe103     1.0  0.56990  0.44644  0.52895  1.0000
  H   H623      1.0  0.77735  0.56253  0.51552  1.0000
  C   C616      1.0  0.44032  0.42342  0.62804  1.0000
  Fe  Fe104     1.0  0.78065  0.42116  0.63090  1.0000
  C   C617      1.0  0.89233  0.53980  0.51959  1.0000
  H   H624      1.0  0.87462  0.12650  0.63627  1.0000
  C   C618      1.0  0.76587  0.44571  0.49237  1.0000
  C   C619      1.0  0.47811  0.44556  0.51456  1.0000
  S   S205      1.0  0.79687  0.44267  0.51956  1.0000
  C   C620      1.0  0.85491  0.30436  0.60860  1.0000
  H   H625      1.0  0.68873  0.42393  0.54899  1.0000
  C   C621      1.0  0.46089  0.43394  0.65603  1.0000
  Fe  Fe105     1.0  0.88723  0.24121  0.49051  1.0000
  H   H626      1.0  0.79721  0.33135  0.55732  1.0000
  H   H627      1.0  0.65313  0.49622  0.62949  1.0000
  S   S206      1.0  0.55459  0.40580  0.62371  1.0000
  C   C622      1.0  0.55886  0.55287  0.52680  1.0000
  H   H628      1.0  0.77951  0.10444  0.54830  1.0000
  H   H629      1.0  0.45605  0.08883  0.57964  1.0000
  S   S207      1.0  0.58469  0.32213  0.55805  1.0000
  H   H630      1.0  0.86126  0.46077  0.47712  1.0000
  H   H631      1.0  0.63316  0.29450  0.61142  1.0000
  S   S208      1.0  0.89891  0.56768  0.65885  1.0000
  S   S209      1.0  0.71256  0.09948  0.60991  1.0000
  S   S210      1.0  0.86066  0.19711  0.57338  1.0000
  C   C623      1.0  0.49903  0.45508  0.54257  1.0000
  C   C624      1.0  0.63825  0.25736  0.48477  1.0000
  S   S211      1.0  0.53637  0.47296  0.48926  1.0000
  C   C625      1.0  0.78090  0.29817  0.44733  1.0000
  C   C626      1.0  0.80244  0.11935  0.52731  1.0000
  H   H632      1.0  0.61895  0.24382  0.53121  1.0000
  C   C627      1.0  0.85680  0.51378  0.48061  1.0000
  N   N50       1.0  0.74082  0.52360  0.54643  1.0000
  H   H633      1.0  0.73285  0.41633  0.58592  1.0000
  N   N51       1.0  0.80230  0.15216  0.48471  1.0000
  Fe  Fe106     1.0  0.59302  0.42954  0.64443  1.0000
  S   S212      1.0  0.60558  0.47268  0.55438  1.0000
  H   H634      1.0  0.78685  0.52018  0.54300  1.0000
  H   H635      1.0  0.73403  0.53538  0.45249  1.0000
  H   H636      1.0  0.72128  0.33596  0.44383  1.0000
  C   C628      1.0  0.86779  0.54224  0.49693  1.0000
  C   C629      1.0  0.83932  0.37553  0.45520  1.0000
  C   C630      1.0  0.77491  0.19916  0.45724  1.0000
  C   C631      1.0  0.82510  0.30687  0.60907  1.0000
  H   H637      1.0  0.75355  0.21135  0.46614  1.0000
  Fe  Fe107     1.0  0.69877  0.22356  0.60584  1.0000
  C   C632      1.0  0.87366  0.34930  0.50883  1.0000
  C   C633      1.0  0.76258  0.27587  0.50747  1.0000
  C   C634      1.0  0.55735  0.31790  0.52131  1.0000
  H   H638      1.0  0.65455  0.10845  0.59215  1.0000
  S   S213      1.0  0.72221  0.27184  0.53133  1.0000
  H   H639      1.0  0.76519  0.10443  0.43639  1.0000
  Fe  Fe108     1.0  0.68983  0.14593  0.63997  1.0000
  H   H640      1.0  0.52723  0.25923  0.46113  1.0000
  C   C635      1.0  0.76781  0.57589  0.65963  1.0000
  C   C636      1.0  0.51618  0.34004  0.48668  1.0000
  C   C637      1.0  0.71141  0.43486  0.51474  1.0000
  N   N52       1.0  0.90484  0.50950  0.52816  1.0000
  H   H641      1.0  0.84901  0.40154  0.45208  1.0000
  H   H642      1.0  0.54268  0.36844  0.52635  1.0000
  H   H643      1.0  0.81434  0.37706  0.46474  1.0000
  C   C638      1.0  0.82028  0.33044  0.55816  1.0000
  N   N53       1.0  0.64547  0.23754  0.43077  1.0000
  H   H644      1.0  0.90266  0.45693  0.52253  1.0000
  H   H645      1.0  0.75396  0.15502  0.53491  1.0000
  H   H646      1.0  0.85900  0.28618  0.64774  1.0000
  S   S214      1.0  0.86793  0.28075  0.43223  1.0000
  Fe  Fe109     1.0  0.44343  0.18139  0.47681  1.0000
  H   H647      1.0  0.85097  0.15648  0.42830  1.0000
  S   S215      1.0  0.55146  0.15901  0.46031  1.0000
  C   C639      1.0  0.77385  0.53506  0.51514  1.0000
  N   N54       1.0  0.47691  0.10202  0.64646  1.0000
  C   C640      1.0  0.80913  0.25717  0.52329  1.0000
  H   H648      1.0  0.43304  0.42122  0.53553  1.0000
  Fe  Fe110     1.0  0.89620  0.16554  0.51643  1.0000
  C   C641      1.0  0.71590  0.45355  0.44997  1.0000
  H   H649      1.0  0.65843  0.26159  0.49911  1.0000
  H   H650      1.0  0.74115  0.51018  0.64650  1.0000
  C   C642      1.0  0.77680  0.25608  0.54639  1.0000
  H   H651      1.0  0.56657  0.26655  0.51044  1.0000
  H   H652      1.0  0.81977  0.24185  0.55374  1.0000
  Fe  Fe111     1.0  0.59126  0.37684  0.56152  1.0000
  C   C643      1.0  0.89318  0.48111  0.51529  1.0000
  H   H653      1.0  0.50635  0.45709  0.63508  1.0000
  H   H654      1.0  0.43388  0.28198  0.58127  1.0000
  H   H655      1.0  0.52770  0.20703  0.54835  1.0000
  H   H656      1.0  0.77023  0.31315  0.41630  1.0000
  H   H657      1.0  0.46135  0.13330  0.57616  1.0000
  C   C644      1.0  0.59074  0.16070  0.59813  1.0000
  H   H658      1.0  0.81954  0.10368  0.49730  1.0000
  H   H659      1.0  0.80870  0.12364  0.57055  1.0000
  C   C645      1.0  0.86049  0.09141  0.58566  1.0000
  H   H660      1.0  0.56027  0.52629  0.54614  1.0000
  H   H661      1.0  0.67220  0.34868  0.42736  1.0000
  C   C646      1.0  0.53693  0.56195  0.49831  1.0000
  S   S216      1.0  0.72005  0.18390  0.65832  1.0000
  C   C647      1.0  0.69559  0.50216  0.64646  1.0000
  S   S217      1.0  0.91801  0.25431  0.54399  1.0000
  H   H662      1.0  0.80590  0.29041  0.64805  1.0000
  H   H663      1.0  0.86633  0.40420  0.65674  1.0000
  H   H664      1.0  0.48596  0.25497  0.63110  1.0000
  C   C648      1.0  0.88292  0.38591  0.65684  1.0000
  C   C649      1.0  0.81322  0.29975  0.42487  1.0000
  H   H665      1.0  0.49119  0.15377  0.63878  1.0000
  S   S218      1.0  0.92030  0.20864  0.42959  1.0000
  H   H666      1.0  0.62791  0.07729  0.53639  1.0000
  C   C650      1.0  0.75277  0.08946  0.41560  1.0000
  H   H667      1.0  0.52281  0.28623  0.66329  1.0000
  C   C651      1.0  0.62197  0.22533  0.41496  1.0000
  H   H668      1.0  0.60456  0.18886  0.82984  1.0000
  C   C652      1.0  0.54783  0.49941  0.89570  1.0000
  H   H669      1.0  0.66002  0.55597  0.79160  1.0000
  C   C653      1.0  0.58389  0.48636  0.72890  1.0000
  S   S219      1.0  0.77330  0.36522  0.67329  1.0000
  C   C654      1.0  0.73623  0.53806  0.76486  1.0000
  C   C655      1.0  0.49358  0.32674  0.68823  1.0000
  S   S220      1.0  0.64997  0.14412  0.73872  1.0000
  H   H670      1.0  0.56035  0.52527  0.87740  1.0000
  H   H671      1.0  0.81787  0.39045  0.85695  1.0000
  C   C656      1.0  0.82098  0.50573  0.85764  1.0000
  H   H672      1.0  0.47255  0.54374  0.82153  1.0000
  H   H673      1.0  0.88046  0.50105  0.78853  1.0000
  C   C657      1.0  0.59178  0.27965  0.70021  1.0000
  C   C658      1.0  0.49190  0.12217  0.72984  1.0000
  H   H674      1.0  0.79315  0.44273  0.88681  1.0000
  C   C659      1.0  0.84218  0.08645  0.70829  1.0000
  H   H675      1.0  0.52768  0.44369  0.86724  1.0000
  S   S221      1.0  0.58974  0.44325  0.74236  1.0000
  H   H676      1.0  0.58025  0.29838  0.85464  1.0000
  C   C660      1.0  0.63764  0.41827  0.84519  1.0000
  H   H677      1.0  0.54718  0.47896  0.69294  1.0000
  H   H678      1.0  0.55379  0.26768  0.79727  1.0000
  C   C661      1.0  0.66123  0.41453  0.87083  1.0000
  C   C662      1.0  0.46547  0.33936  0.69176  1.0000
  C   C663      1.0  0.57682  0.28043  0.76898  1.0000
  C   C664      1.0  0.76081  0.51779  0.75954  1.0000
  Fe  Fe112     1.0  0.73221  0.37710  0.75700  1.0000
  C   C665      1.0  0.89511  0.32960  0.69644  1.0000
  H   H679      1.0  0.42278  0.33063  0.67869  1.0000
  H   H680      1.0  0.68431  0.30869  0.66523  1.0000
  S   S222      1.0  0.75858  0.38439  0.82259  1.0000
  H   H681      1.0  0.67250  0.35035  0.67878  1.0000
  H   H682      1.0  0.56546  0.48114  0.87970  1.0000
  C   C666      1.0  0.68750  0.30433  0.81998  1.0000
  N   N55       1.0  0.63606  0.31255  0.69657  1.0000
  H   H683      1.0  0.90590  0.44904  0.75946  1.0000
  C   C667      1.0  0.60244  0.51004  0.74116  1.0000
  C   C668      1.0  0.66527  0.28441  0.87853  1.0000
  H   H684      1.0  0.57262  0.13890  0.82913  1.0000
  C   C669      1.0  0.49291  0.46251  0.83019  1.0000
  C   C670      1.0  0.62149  0.31357  0.76404  1.0000
  H   H685      1.0  0.72636  0.30415  0.72712  1.0000
  H   H686      1.0  0.78137  0.28806  0.81473  1.0000
  N   N56       1.0  0.52388  0.49662  0.86736  1.0000
  H   H687      1.0  0.71477  0.53172  0.80837  1.0000
  N   N57       1.0  0.70222  0.07935  0.85195  1.0000
  H   H688      1.0  0.61384  0.56328  0.73348  1.0000
  S   S223      1.0  0.68563  0.34826  0.80294  1.0000
  C   C671      1.0  0.58728  0.17503  0.87704  1.0000
  H   H689      1.0  0.53878  0.54025  0.67321  1.0000
  C   C672      1.0  0.90507  0.21716  0.76480  1.0000
  H   H690      1.0  0.88788  0.30422  0.72726  1.0000
  H   H691      1.0  0.68504  0.49319  0.70124  1.0000
  S   S224      1.0  0.66007  0.22741  0.70205  1.0000
  C   C673      1.0  0.86661  0.47680  0.80380  1.0000
  H   H692      1.0  0.82997  0.25997  0.80033  1.0000
  H   H693      1.0  0.68724  0.08761  0.76883  1.0000
  C   C674      1.0  0.87332  0.35317  0.69714  1.0000
  Fe  Fe113     1.0  0.76611  0.43877  0.76929  1.0000
  C   C675      1.0  0.55672  0.53190  0.69144  1.0000
  C   C676      1.0  0.56924  0.14704  0.87666  1.0000
  S   S225      1.0  0.58457  0.19514  0.70005  1.0000
  S   S226      1.0  0.45929  0.33402  0.86623  1.0000
  S   S227      1.0  0.81047  0.43254  0.68694  1.0000
  C   C677      1.0  0.70466  0.09862  0.78542  1.0000
  H   H694      1.0  0.63279  0.32675  0.78961  1.0000
  C   C678      1.0  0.70854  0.25330  0.78329  1.0000
  H   H695      1.0  0.82730  0.20061  0.86159  1.0000
  C   C679      1.0  0.90508  0.20158  0.82842  1.0000
  S   S228      1.0  0.87796  0.20164  0.73569  1.0000
  H   H696      1.0  0.45948  0.36323  0.70801  1.0000
  C   C680      1.0  0.51589  0.46580  0.85657  1.0000
  C   C681      1.0  0.66510  0.24891  0.89024  1.0000
  H   H697      1.0  0.45876  0.48810  0.79897  1.0000
  H   H698      1.0  0.88858  0.18007  0.85882  1.0000
  H   H699      1.0  0.80751  0.51010  0.69847  1.0000
  C   C682      1.0  0.59171  0.29757  0.80120  1.0000
  H   H700      1.0  0.45427  0.42952  0.71074  1.0000
  H   H701      1.0  0.50992  0.34097  0.70095  1.0000
  S   S229      1.0  0.73694  0.43223  0.70938  1.0000
  H   H702      1.0  0.87461  0.39338  0.79533  1.0000
  C   C683      1.0  0.68638  0.23340  0.84199  1.0000
  C   C684      1.0  0.47713  0.49060  0.81773  1.0000
  Fe  Fe114     1.0  0.63413  0.18675  0.68014  1.0000
  H   H703      1.0  0.49010  0.08412  0.81613  1.0000
  C   C685      1.0  0.91939  0.51539  0.89919  1.0000
  Fe  Fe115     1.0  0.80049  0.37703  0.73466  1.0000
  H   H704      1.0  0.50028  0.14280  0.74696  1.0000
  C   C686      1.0  0.81793  0.44429  0.85870  1.0000
  H   H705      1.0  0.83407  0.51960  0.88057  1.0000
  C   C687      1.0  0.78045  0.26176  0.83945  1.0000
  C   C688      1.0  0.48638  0.08920  0.76848  1.0000
  C   C689      1.0  0.78849  0.52580  0.70291  1.0000
  H   H706      1.0  0.70083  0.12557  0.78889  1.0000
  H   H707      1.0  0.68178  0.43230  0.84750  1.0000
  H   H708      1.0  0.51534  0.54903  0.86174  1.0000
  Fe  Fe116     1.0  0.67911  0.18477  0.75246  1.0000
  H   H709      1.0  0.72764  0.09758  0.74530  1.0000
  C   C690      1.0  0.80768  0.24608  0.83170  1.0000
  H   H710      1.0  0.82016  0.52237  0.81117  1.0000
  H   H711      1.0  0.75097  0.08026  0.82535  1.0000
  S   S230      1.0  0.83457  0.34114  0.75045  1.0000
  C   C691      1.0  0.73952  0.56682  0.71420  1.0000
  C   C692      1.0  0.50072  0.29588  0.66752  1.0000
  C   C693      1.0  0.56137  0.49729  0.70301  1.0000
  S   S231      1.0  0.75697  0.48209  0.82267  1.0000
  H   H712      1.0  0.79683  0.49981  0.89545  1.0000
  H   H713      1.0  0.63961  0.43918  0.80372  1.0000
  C   C694      1.0  0.48493  0.52177  0.83024  1.0000
  C   C695      1.0  0.44479  0.32082  0.67466  1.0000
  H   H714      1.0  0.84235  0.09608  0.75204  1.0000
  C   C696      1.0  0.50879  0.52444  0.85433  1.0000
  S   S232      1.0  0.68298  0.18938  0.85029  1.0000
  H   H715      1.0  0.48681  0.43806  0.82130  1.0000
  C   C697      1.0  0.59886  0.54477  0.72614  1.0000
  C   C698      1.0  0.80619  0.21273  0.86617  1.0000
  S   S233      1.0  0.65752  0.49270  0.88276  1.0000
  C   C699      1.0  0.88110  0.44763  0.78673  1.0000
  C   C700      1.0  0.64002  0.55416  0.83824  1.0000
  H   H716      1.0  0.73120  0.25695  0.89046  1.0000
  C   C701      1.0  0.86354  0.41634  0.80686  1.0000
  N   N58       1.0  0.83547  0.47475  0.84022  1.0000
  C   C702      1.0  0.70952  0.28885  0.77297  1.0000
  C   C703      1.0  0.75205  0.24388  0.88227  1.0000
  H   H717      1.0  0.72475  0.24125  0.74547  1.0000
  C   C704      1.0  0.91387  0.44552  0.90057  1.0000
  C   C705      1.0  0.63222  0.52434  0.88820  1.0000
  C   C706      1.0  0.61171  0.39476  0.87314  1.0000
  H   H718      1.0  0.59344  0.39705  0.85322  1.0000
  H   H719      1.0  0.62003  0.50170  0.76072  1.0000
  C   C707      1.0  0.83171  0.41464  0.84226  1.0000
  C   C708      1.0  0.57588  0.55565  0.70185  1.0000
  S   S234      1.0  0.91212  0.40133  0.90627  1.0000
  C   C709      1.0  0.77739  0.19547  0.90803  1.0000
  C   C710      1.0  0.48693  0.12816  0.66862  1.0000
  H   H720      1.0  0.58041  0.26658  0.67436  1.0000
  C   C711      1.0  0.62164  0.29568  0.66469  1.0000
  S   S235      1.0  0.65067  0.69762  0.13537  1.0000
  H   H721      1.0  0.74705  0.04614  0.93637  1.0000
  C   C712      1.0  0.88192  0.57903  0.06213  1.0000
  Fe  Fe117     1.0  0.46665  0.58312  0.03836  1.0000
  C   C713      1.0  0.85495  0.73167  0.10035  1.0000
  C   C714      1.0  0.54447  0.75168  0.02871  1.0000
  H   H722      1.0  0.65955  0.95039  0.01172  1.0000
  S   S236      1.0  0.89296  0.74035  0.92459  1.0000
  H   H723      1.0  0.86925  0.07121  0.98737  1.0000
  S   S237      1.0  0.42486  0.85215  0.03435  1.0000
  H   H724      1.0  0.53289  0.89880  0.97248  1.0000
  S   S238      1.0  0.74774  0.02479  0.07347  1.0000
  C   C715      1.0  0.56859  0.78431  0.08337  1.0000
  S   S239      1.0  0.43519  0.58863  0.98027  1.0000
  H   H725      1.0  0.69525  0.02689  0.02668  1.0000
  H   H726      1.0  0.88085  0.79557  0.05122  1.0000
  H   H727      1.0  0.48415  0.96052  0.08768  1.0000
  H   H728      1.0  0.76033  0.66526  0.11179  1.0000
  C   C716      1.0  0.46739  0.07200  0.04889  1.0000
  Fe  Fe118     1.0  0.67745  0.74047  0.15043  1.0000
  S   S240      1.0  0.57957  0.61664  0.93405  1.0000
  Fe  Fe119     1.0  0.44551  0.80983  0.08196  1.0000
  C   C717      1.0  0.52670  0.95044  0.93489  1.0000
  H   H729      1.0  0.86096  0.06152  0.12010  1.0000
  S   S241      1.0  0.44440  0.77526  0.01219  1.0000
  C   C718      1.0  0.74922  0.77612  0.12251  1.0000
  H   H730      1.0  0.90947  0.67156  0.95173  1.0000
  C   C719      1.0  0.46460  0.94149  0.10785  1.0000
  C   C720      1.0  0.44509  0.04789  0.09925  1.0000
  Fe  Fe120     1.0  0.50264  0.02029  0.14818  1.0000
  C   C721      1.0  0.67070  0.05116  0.96575  1.0000
  C   C722      1.0  0.69717  0.04204  0.97796  1.0000
  H   H731      1.0  0.77737  0.83418  0.94802  1.0000
  C   C723      1.0  0.52406  0.91521  0.93891  1.0000
  H   H732      1.0  0.84782  0.74728  0.06121  1.0000
  Fe  Fe121     1.0  0.48482  0.59356  0.15554  1.0000
  Fe  Fe122     1.0  0.53467  0.59568  0.01783  1.0000
  H   H733      1.0  0.70197  0.91158  0.98913  1.0000
  C   C724      1.0  0.87460  0.01736  0.00670  1.0000
  C   C725      1.0  0.73868  0.05906  0.11557  1.0000
  S   S242      1.0  0.53593  0.01778  0.04428  1.0000
  H   H734      1.0  0.54250  0.82323  0.12924  1.0000
  C   C726      1.0  0.76575  0.75449  0.93897  1.0000
  H   H735      1.0  0.64791  0.04331  0.00461  1.0000
  C   C727      1.0  0.82491  0.00883  0.96765  1.0000
  C   C728      1.0  0.80145  0.71935  0.97603  1.0000
  H   H736      1.0  0.60101  0.87029  0.04069  1.0000
  C   C729      1.0  0.60034  0.84800  0.13936  1.0000
  H   H737      1.0  0.75917  0.66177  0.94029  1.0000
  H   H738      1.0  0.59773  0.07244  0.13750  1.0000
  Fe  Fe123     1.0  0.62381  0.73777  0.10117  1.0000
  S   S243      1.0  0.58813  0.00289  0.11232  1.0000
  S   S244      1.0  0.48726  0.82252  0.10381  1.0000
  C   C730      1.0  0.83142  0.89915  0.92037  1.0000
  H   H739      1.0  0.64389  0.63330  0.99124  1.0000
  C   C731      1.0  0.74868  0.58814  0.03518  1.0000
  C   C732      1.0  0.63070  0.65577  0.00166  1.0000
  H   H740      1.0  0.64585  0.67615  0.00611  1.0000
  H   H741      1.0  0.59939  0.91273  0.91863  1.0000
  S   S245      1.0  0.81411  0.62735  0.08871  1.0000
  H   H742      1.0  0.57276  0.67144  0.02217  1.0000
  S   S246      1.0  0.68958  0.60016  0.04856  1.0000
  H   H743      1.0  0.49005  0.90111  0.13673  1.0000
  H   H744      1.0  0.83042  0.95548  0.98952  1.0000
  H   H745      1.0  0.43330  0.97641  0.08785  1.0000
  H   H746      1.0  0.85562  0.70530  0.09072  1.0000
  H   H747      1.0  0.58793  0.78980  0.09703  1.0000
  H   H748      1.0  0.49933  0.76507  0.03319  1.0000
  H   H749      1.0  0.61671  0.83047  0.12004  1.0000
  C   C733      1.0  0.68514  0.90993  0.04027  1.0000
  H   H750      1.0  0.50757  0.85042  0.95344  1.0000
  H   H751      1.0  0.82706  0.84539  0.96179  1.0000
  C   C734      1.0  0.75292  0.06420  0.16049  1.0000
  H   H752      1.0  0.88659  0.95950  0.06945  1.0000
  C   C735      1.0  0.64032  0.92925  0.11940  1.0000
  H   H753      1.0  0.89798  0.95082  0.98410  1.0000
  N   N59       1.0  0.91873  0.59832  0.10501  1.0000
  C   C736      1.0  0.86065  0.04590  0.98714  1.0000
  C   C737      1.0  0.78067  0.62201  0.07160  1.0000
  H   H754      1.0  0.48005  0.70943  0.92909  1.0000
  N   N60       1.0  0.86352  0.98533  0.00791  1.0000
  C   C738      1.0  0.68708  0.88593  0.09415  1.0000
  H   H755      1.0  0.89411  0.02103  0.02156  1.0000
  H   H756      1.0  0.71110  0.80717  0.13739  1.0000
  H   H757      1.0  0.42737  0.65614  0.93222  1.0000
  H   H758      1.0  0.74698  0.74294  0.98581  1.0000
  H   H759      1.0  0.70650  0.67869  0.95473  1.0000
  C   C739      1.0  0.79719  0.80387  0.11586  1.0000
  C   C740      1.0  0.83553  0.04150  0.96787  1.0000
  H   H760      1.0  0.43459  0.72514  0.14047  1.0000
  C   C741      1.0  0.43559  0.95041  0.10871  1.0000
  Fe  Fe124     1.0  0.56929  0.04850  0.06960  1.0000
  S   S247      1.0  0.72843  0.73886  0.12451  1.0000
  C   C742      1.0  0.56948  0.75862  0.04704  1.0000
  S   S248      1.0  0.65388  0.78083  0.10598  1.0000
  C   C743      1.0  0.87828  0.95566  0.02878  1.0000
  H   H761      1.0  0.83727  0.73188  0.15156  1.0000
  C   C744      1.0  0.51812  0.79686  0.08239  1.0000
  N   N61       1.0  0.66634  0.88401  0.15922  1.0000
  C   C745      1.0  0.75200  0.83526  0.13327  1.0000
  H   H762      1.0  0.82104  0.80266  0.11092  1.0000
  H   H763      1.0  0.62143  0.94538  0.13015  1.0000
  H   H764      1.0  0.85636  0.58704  0.92469  1.0000
  C   C746      1.0  0.81662  0.86611  0.94081  1.0000
  H   H765      1.0  0.71138  0.65475  0.09540  1.0000
  H   H766      1.0  0.80531  0.00516  0.95293  1.0000
  C   C747      1.0  0.54303  0.80336  0.10099  1.0000
  H   H767      1.0  0.82415  0.06326  0.95339  1.0000
  Fe  Fe125     1.0  0.75495  0.98159  0.14674  1.0000
  C   C748      1.0  0.57117  0.89489  0.11752  1.0000
  C   C749      1.0  0.77662  0.59454  0.04299  1.0000
  S   S249      1.0  0.79974  0.96392  0.15066  1.0000
  C   C750      1.0  0.51866  0.77073  0.04671  1.0000
  H   H768      1.0  0.83982  0.62525  0.94717  1.0000
  N   N62       1.0  0.88525  0.74487  0.09602  1.0000
  H   H769      1.0  0.82444  0.72550  0.97759  1.0000
  S   S250      1.0  0.60230  0.73595  0.02380  1.0000
  C   C751      1.0  0.90285  0.72370  0.12126  1.0000
  H   H770      1.0  0.54488  0.73131  0.00176  1.0000
  H   H771      1.0  0.89459  0.69724  0.14401  1.0000
  C   C752      1.0  0.57527  0.65708  0.06736  1.0000
  H   H772      1.0  0.59403  0.02756  0.93646  1.0000
  H   H773      1.0  0.74130  0.85858  0.14042  1.0000
  C   C753      1.0  0.66153  0.93172  0.05303  1.0000
  C   C754      1.0  0.72510  0.60972  0.05424  1.0000
  C   C755      1.0  0.75720  0.64379  0.09018  1.0000
  C   C756      1.0  0.42913  0.69840  0.16308  1.0000
  C   C757      1.0  0.72950  0.63788  0.08080  1.0000
  H   H774      1.0  0.79108  0.75152  0.10879  1.0000
  H   H775      1.0  0.80099  0.69391  0.96269  1.0000
  Fe  Fe126     1.0  0.55154  0.97252  0.09693  1.0000
  C   C758      1.0  0.73505  0.80634  0.13144  1.0000
  C   C759      1.0  0.89508  0.77861  0.06996  1.0000
  C   C760      1.0  0.78840  0.85982  0.93356  1.0000
  C   C761      1.0  0.46782  0.90826  0.13581  1.0000
  C   C762      1.0  0.78300  0.83393  0.12607  1.0000
  H   H776      1.0  0.63031  0.92229  0.94423  1.0000
  S   S251      1.0  0.49385  0.62557  0.05215  1.0000
  H   H777      1.0  0.62897  0.62071  0.11983  1.0000
  H   H778      1.0  0.53797  0.96122  0.96377  1.0000
  S   S252      1.0  0.56160  0.92412  0.05871  1.0000
  H   H779      1.0  0.70541  0.86902  0.08340  1.0000
  C   C763      1.0  0.54963  0.65041  0.12867  1.0000
  C   C764      1.0  0.59175  0.87109  0.09394  1.0000
  H   H780      1.0  0.78399  0.71791  0.02813  1.0000
  C   C765      1.0  0.78031  0.77503  0.11427  1.0000
  H   H781      1.0  0.62436  0.66571  0.95726  1.0000
  C   C766      1.0  0.91130  0.59336  0.05127  1.0000
  C   C767      1.0  0.83933  0.98089  0.98776  1.0000
  N   N63       1.0  0.60337  0.64652  0.06473  1.0000
  C   C768      1.0  0.60658  0.62858  0.12181  1.0000
  H   H782      1.0  0.52756  0.65944  0.13083  1.0000
  H   H783      1.0  0.86176  0.93232  0.04938  1.0000
  H   H784      1.0  0.79450  0.57729  0.02976  1.0000
  C   C769      1.0  0.72624  0.05280  0.92732  1.0000
  S   S253      1.0  0.80405  0.86879  0.13315  1.0000
  S   S254      1.0  0.73399  0.92898  0.15897  1.0000
  H   H785      1.0  0.70496  0.07643  0.07299  1.0000
  N   N64       1.0  0.79511  0.74505  0.92606  1.0000
  H   H786      1.0  0.60284  0.79668  0.91506  1.0000
  S   S255      1.0  0.86890  0.90671  0.91788  1.0000
  C   C770      1.0  0.61911  0.81647  0.91429  1.0000
  H   H787      1.0  0.65439  0.78248  0.91477  1.0000
  H   H788      1.0  0.84118  0.86701  0.31261  1.0000
  H   H789      1.0  0.53297  0.62642  0.23499  1.0000
  S   S256      1.0  0.80384  0.98131  0.31971  1.0000
  H   H790      1.0  0.88969  0.96770  0.39658  1.0000
  H   H791      1.0  0.50493  0.68410  0.26625  1.0000
  C   C771      1.0  0.88910  0.75662  0.27861  1.0000
  H   H792      1.0  0.89106  0.01617  0.22214  1.0000
  C   C772      1.0  0.68429  0.76341  0.40018  1.0000
  H   H793      1.0  0.54313  0.91353  0.20634  1.0000
  Fe  Fe127     1.0  0.55145  0.00639  0.21170  1.0000
  S   S257      1.0  0.45277  0.02405  0.16679  1.0000
  Fe  Fe128     1.0  0.79883  0.63033  0.19878  1.0000
  N   N65       1.0  0.48319  0.05226  0.33682  1.0000
  C   C773      1.0  0.64342  0.58087  0.39006  1.0000
  C   C774      1.0  0.65751  0.04856  0.29108  1.0000
  C   C775      1.0  0.65361  0.64740  0.31526  1.0000
  Fe  Fe129     1.0  0.77796  0.96101  0.26271  1.0000
  S   S258      1.0  0.78581  0.58474  0.28385  1.0000
  H   H794      1.0  0.72058  0.72116  0.27740  1.0000
  H   H795      1.0  0.51864  0.68742  0.33332  1.0000
  H   H796      1.0  0.88140  0.70764  0.34510  1.0000
  C   C776      1.0  0.44271  0.64616  0.21770  1.0000
  C   C777      1.0  0.87928  0.96025  0.36313  1.0000
  H   H797      1.0  0.74770  0.77623  0.25659  1.0000
  C   C778      1.0  0.83808  0.96374  0.31935  1.0000
  C   C779      1.0  0.62554  0.62859  0.33179  1.0000
  H   H798      1.0  0.91678  0.68273  0.24689  1.0000
  S   S259      1.0  0.64582  0.73859  0.25856  1.0000
  C   C780      1.0  0.43651  0.00685  0.34127  1.0000
  C   C781      1.0  0.80257  0.79126  0.40725  1.0000
  C   C782      1.0  0.88136  0.60520  0.33865  1.0000
  H   H799      1.0  0.62431  0.99578  0.21384  1.0000
  C   C783      1.0  0.58785  0.84781  0.20897  1.0000
  H   H800      1.0  0.74415  0.83532  0.27397  1.0000
  C   C784      1.0  0.51648  0.78806  0.29323  1.0000
  S   S260      1.0  0.58885  0.73479  0.20617  1.0000
  H   H801      1.0  0.49179  0.82787  0.26025  1.0000
  C   C785      1.0  0.62007  0.97667  0.25939  1.0000
  H   H802      1.0  0.82780  0.69683  0.35297  1.0000
  Fe  Fe130     1.0  0.71632  0.92911  0.27040  1.0000
  C   C786      1.0  0.49325  0.80061  0.27183  1.0000
  N   N66       1.0  0.70726  0.75655  0.34389  1.0000
  C   C787      1.0  0.43708  0.04148  0.31567  1.0000
  C   C788      1.0  0.64449  0.95851  0.26803  1.0000
  H   H803      1.0  0.79109  0.83319  0.34473  1.0000
  C   C789      1.0  0.91431  0.65618  0.27065  1.0000
  C   C790      1.0  0.55268  0.63202  0.18707  1.0000
  S   S261      1.0  0.51582  0.97294  0.19945  1.0000
  H   H804      1.0  0.62623  0.90328  0.22341  1.0000
  H   H805      1.0  0.87146  0.04882  0.30550  1.0000
  C   C791      1.0  0.45912  0.99525  0.36581  1.0000
  C   C792      1.0  0.70300  0.82291  0.36559  1.0000
  H   H806      1.0  0.45379  0.78750  0.24890  1.0000
  C   C793      1.0  0.87593  0.78152  0.24566  1.0000
  H   H807      1.0  0.71553  0.60135  0.22389  1.0000
  H   H808      1.0  0.88048  0.84375  0.35767  1.0000
  C   C794      1.0  0.67128  0.60022  0.37441  1.0000
  C   C795      1.0  0.55919  0.89549  0.18720  1.0000
  S   S262      1.0  0.84456  0.58330  0.37191  1.0000
  Fe  Fe131     1.0  0.77690  0.91108  0.17311  1.0000
  H   H809      1.0  0.65804  0.67286  0.28574  1.0000
  C   C796      1.0  0.85160  0.97298  0.36277  1.0000
  C   C797      1.0  0.67615  0.63345  0.33756  1.0000
  C   C798      1.0  0.82812  0.74483  0.28891  1.0000
  N   N67       1.0  0.62911  0.06276  0.32871  1.0000
  H   H810      1.0  0.53250  0.80539  0.30057  1.0000
  C   C799      1.0  0.60345  0.04134  0.36897  1.0000
  H   H811      1.0  0.47028  0.69416  0.18627  1.0000
  S   S263      1.0  0.56050  0.99662  0.30847  1.0000
  C   C800      1.0  0.90758  0.58774  0.33458  1.0000
  C   C801      1.0  0.50775  0.07603  0.33529  1.0000
  C   C802      1.0  0.58570  0.94741  0.37106  1.0000
  C   C803      1.0  0.84118  0.72042  0.32271  1.0000
  H   H812      1.0  0.49939  0.00935  0.38431  1.0000
  C   C804      1.0  0.72055  0.05161  0.36255  1.0000
  C   C805      1.0  0.47440  0.74292  0.28037  1.0000
  H   H813      1.0  0.66733  0.96314  0.22836  1.0000
  H   H814      1.0  0.69711  0.64869  0.32716  1.0000
  C   C806      1.0  0.70977  0.72155  0.33275  1.0000
  H   H815      1.0  0.53615  0.74361  0.32546  1.0000
  S   S264      1.0  0.79084  0.73558  0.29241  1.0000
  H   H816      1.0  0.80912  0.04939  0.36565  1.0000
  C   C807      1.0  0.62062  0.59500  0.36795  1.0000
  H   H817      1.0  0.45888  0.96843  0.38579  1.0000
  S   S265      1.0  0.59845  0.81805  0.26518  1.0000
  S   S266      1.0  0.47055  0.62324  0.23861  1.0000
  C   C808      1.0  0.89440  0.05402  0.30523  1.0000
  C   C809      1.0  0.91579  0.02208  0.21324  1.0000
  C   C810      1.0  0.74634  0.03980  0.37482  1.0000
  H   H818      1.0  0.68665  0.70720  0.35241  1.0000
  C   C811      1.0  0.57506  0.05414  0.39845  1.0000
  C   C812      1.0  0.89369  0.93815  0.32012  1.0000
  C   C813      1.0  0.63904  0.93397  0.32750  1.0000
  C   C814      1.0  0.49999  0.69402  0.31377  1.0000
  H   H819      1.0  0.70780  0.03604  0.34351  1.0000
  H   H820      1.0  0.65795  0.04673  0.23985  1.0000
  C   C815      1.0  0.64314  0.90525  0.17215  1.0000
  H   H821      1.0  0.86480  0.65352  0.31537  1.0000
  C   C816      1.0  0.66910  0.85898  0.21502  1.0000
  S   S267      1.0  0.82962  0.65597  0.23751  1.0000
  C   C817      1.0  0.85854  0.82914  0.37115  1.0000
  C   C818      1.0  0.44909  0.68102  0.19017  1.0000
  C   C819      1.0  0.58121  0.62070  0.18356  1.0000
  Fe  Fe132     1.0  0.61764  0.69798  0.24085  1.0000
  H   H822      1.0  0.60482  0.01413  0.37810  1.0000
  C   C820      1.0  0.46088  0.06395  0.31329  1.0000
  S   S268      1.0  0.75764  0.65674  0.25014  1.0000
  Fe  Fe133     1.0  0.61987  0.77563  0.21379  1.0000
  C   C821      1.0  0.72881  0.78191  0.29972  1.0000
  C   C822      1.0  0.84528  0.77562  0.25093  1.0000
  S   S269      1.0  0.59629  0.64807  0.31043  1.0000
  S   S270      1.0  0.73452  0.98264  0.25798  1.0000
  C   C823      1.0  0.51833  0.75294  0.30746  1.0000
  N   N68       1.0  0.49756  0.73085  0.30045  1.0000
  C   C824      1.0  0.48222  0.01850  0.36393  1.0000
  Fe  Fe134     1.0  0.78736  0.67943  0.29580  1.0000
  H   H823      1.0  0.72432  0.70839  0.35874  1.0000
  Fe  Fe135     1.0  0.81347  0.61247  0.32758  1.0000
  C   C825      1.0  0.59055  0.97106  0.31125  1.0000
  S   S271      1.0  0.77336  0.63782  0.38902  1.0000
  S   S272      1.0  0.75767  0.90719  0.28618  1.0000
  S   S273      1.0  0.66802  0.90883  0.33909  1.0000
  H   H824      1.0  0.89160  0.91213  0.24230  1.0000
  C   C826      1.0  0.72695  0.81544  0.30960  1.0000
  H   H825      1.0  0.66708  0.83286  0.20575  1.0000
  C   C827      1.0  0.56738  0.87182  0.23305  1.0000
  H   H826      1.0  0.58372  0.60656  0.22886  1.0000
  H   H827      1.0  0.65051  0.85996  0.26478  1.0000
  C   C828      1.0  0.87151  0.72647  0.31809  1.0000
  H   H828      1.0  0.84052  0.98989  0.39661  1.0000
  H   H829      1.0  0.59919  0.58003  0.37927  1.0000
  H   H830      1.0  0.56024  0.87679  0.40323  1.0000
  C   C829      1.0  0.89757  0.58891  0.17005  1.0000
  C   C830      1.0  0.88033  0.92886  0.27626  1.0000
  H   H831      1.0  0.84207  0.93459  0.24203  1.0000
  H   H832      1.0  0.70108  0.84885  0.37363  1.0000
  Fe  Fe136     1.0  0.74659  0.61296  0.33909  1.0000
  C   C831      1.0  0.47191  0.77793  0.26569  1.0000
  C   C832      1.0  0.83649  0.84223  0.34603  1.0000
  H   H833      1.0  0.90365  0.59217  0.21237  1.0000
  H   H834      1.0  0.69142  0.86409  0.22028  1.0000
  C   C833      1.0  0.85238  0.94161  0.27603  1.0000
  H   H835      1.0  0.88947  0.80490  0.21510  1.0000
  H   H836      1.0  0.77054  0.04818  0.16658  1.0000
  H   H837      1.0  0.75318  0.01513  0.36463  1.0000
  H   H838      1.0  0.45767  0.72545  0.27575  1.0000
  H   H839      1.0  0.83514  0.79453  0.22458  1.0000
  C   C834      1.0  0.88489  0.63966  0.30901  1.0000
  N   N69       1.0  0.76191  0.05848  0.40171  1.0000
  H   H840      1.0  0.55764  0.87196  0.28698  1.0000
  C   C835      1.0  0.80830  0.82326  0.36415  1.0000
  H   H841      1.0  0.65921  0.02281  0.31846  1.0000
  C   C836      1.0  0.60962  0.92861  0.37882  1.0000
  H   H842      1.0  0.47799  0.68072  0.35287  1.0000
  H   H843      1.0  0.56333  0.94393  0.41195  1.0000
  H   H844      1.0  0.67073  0.59298  0.19031  1.0000
  C   C837      1.0  0.68168  0.79670  0.41164  1.0000
  H   H845      1.0  0.67802  0.06497  0.28484  1.0000
  S   S274      1.0  0.42457  0.83129  0.38465  1.0000
  H   H846      1.0  0.53023  0.06452  0.32040  1.0000
  S   S275      1.0  0.53446  0.05434  0.17070  1.0000
  S   S276      1.0  0.70059  0.58256  0.39799  1.0000
  C   C838      1.0  0.89808  0.07407  0.34925  1.0000
  H   H847      1.0  0.44394  0.85898  0.18864  1.0000
  N   N70       1.0  0.91944  0.04174  0.26155  1.0000
  C   C839      1.0  0.85210  0.79692  0.41364  1.0000
  C   C840      1.0  0.44203  0.88449  0.16443  1.0000
  H   H848      1.0  0.80749  0.74920  0.53096  1.0000
  C   C841      1.0  0.90282  0.82206  0.59681  1.0000
  C   C842      1.0  0.77424  0.93015  0.56841  1.0000
  C   C843      1.0  0.68776  0.02824  0.52476  1.0000
  H   H849      1.0  0.72374  0.03704  0.56195  1.0000
  C   C844      1.0  0.48412  0.70191  0.48142  1.0000
  H   H850      1.0  0.51840  0.60357  0.45102  1.0000
  H   H851      1.0  0.91698  0.80318  0.44112  1.0000
  C   C845      1.0  0.60839  0.74020  0.63261  1.0000
  S   S277      1.0  0.58352  0.98572  0.64506  1.0000
  H   H852      1.0  0.62312  0.62750  0.49540  1.0000
  C   C846      1.0  0.89231  0.76159  0.60616  1.0000
  C   C847      1.0  0.46935  0.97010  0.55583  1.0000
  C   C848      1.0  0.69110  0.07505  0.57979  1.0000
  Fe  Fe137     1.0  0.52619  0.01901  0.56357  1.0000
  N   N71       1.0  0.57780  0.61169  0.50355  1.0000
  C   C849      1.0  0.69716  0.92260  0.58684  1.0000
  C   C850      1.0  0.78879  0.04530  0.41439  1.0000
  C   C851      1.0  0.51081  0.71920  0.47937  1.0000
  Fe  Fe138     1.0  0.59363  0.01218  0.53805  1.0000
  H   H853      1.0  0.65086  0.92936  0.46956  1.0000
  H   H854      1.0  0.79105  0.94002  0.45892  1.0000
  H   H855      1.0  0.69717  0.89652  0.44502  1.0000
  C   C852      1.0  0.84329  0.90486  0.61834  1.0000
  C   C853      1.0  0.50979  0.86593  0.56727  1.0000
  H   H856      1.0  0.83927  0.73222  0.47109  1.0000
  H   H857      1.0  0.66790  0.74310  0.43685  1.0000
  H   H858      1.0  0.83630  0.87940  0.61555  1.0000
  C   C854      1.0  0.91103  0.82710  0.52629  1.0000
  H   H859      1.0  0.55451  0.03694  0.42742  1.0000
  H   H860      1.0  0.43953  0.70693  0.47382  1.0000
  C   C855      1.0  0.65547  0.94331  0.55784  1.0000
  S   S278      1.0  0.82344  0.68866  0.63417  1.0000
  H   H861      1.0  0.64663  0.97834  0.65200  1.0000
  H   H862      1.0  0.49196  0.87883  0.60006  1.0000
  H   H863      1.0  0.55446  0.64740  0.45712  1.0000
  C   C856      1.0  0.60027  0.63770  0.50370  1.0000
  Fe  Fe139     1.0  0.48850  0.64294  0.59541  1.0000
  H   H864      1.0  0.80161  0.72815  0.46814  1.0000
  Fe  Fe140     1.0  0.87430  0.61386  0.64277  1.0000
  C   C857      1.0  0.66403  0.92709  0.50232  1.0000
  C   C858      1.0  0.52533  0.88168  0.49911  1.0000
  H   H865      1.0  0.63561  0.95786  0.56721  1.0000
  Fe  Fe141     1.0  0.87328  0.68608  0.57205  1.0000
  C   C859      1.0  0.54878  0.86558  0.45686  1.0000
  C   C860      1.0  0.69000  0.90873  0.48864  1.0000
  Fe  Fe142     1.0  0.67114  0.76969  0.64131  1.0000
  C   C861      1.0  0.48940  0.77311  0.46114  1.0000
  C   C862      1.0  0.51357  0.75476  0.46857  1.0000
  C   C863      1.0  0.46014  0.72022  0.47252  1.0000
  H   H866      1.0  0.46586  0.04847  0.66374  1.0000
  C   C864      1.0  0.70267  0.04568  0.55692  1.0000
  H   H867      1.0  0.85009  0.92530  0.51356  1.0000
  H   H868      1.0  0.43125  0.03597  0.51076  1.0000
  S   S279      1.0  0.89855  0.73254  0.49601  1.0000
  H   H869      1.0  0.45057  0.91770  0.59075  1.0000
  S   S280      1.0  0.48041  0.65740  0.49826  1.0000
  C   C865      1.0  0.79114  0.88681  0.50034  1.0000
  H   H870      1.0  0.68601  0.97767  0.64565  1.0000
  H   H871      1.0  0.69739  0.00624  0.50499  1.0000
  H   H872      1.0  0.86933  0.78658  0.43247  1.0000
  S   S281      1.0  0.64367  0.01957  0.47189  1.0000
  Fe  Fe143     1.0  0.81712  0.63612  0.61745  1.0000
  C   C866      1.0  0.66518  0.96137  0.65235  1.0000
  H   H873      1.0  0.54617  0.79440  0.57158  1.0000
  C   C867      1.0  0.86004  0.96360  0.56349  1.0000
  C   C868      1.0  0.64859  0.06821  0.54254  1.0000
  Fe  Fe144     1.0  0.44925  0.83932  0.45312  1.0000
  C   C869      1.0  0.57910  0.57824  0.52950  1.0000
  Fe  Fe145     1.0  0.73286  0.79994  0.63231  1.0000
  S   S282      1.0  0.77490  0.61580  0.60619  1.0000
  N   N72       1.0  0.51686  0.83465  0.59222  1.0000
  C   C870      1.0  0.89394  0.78927  0.63676  1.0000
  H   H874      1.0  0.57458  0.82150  0.45040  1.0000
  S   S283      1.0  0.55768  0.97919  0.52603  1.0000
  S   S284      1.0  0.90325  0.85709  0.63438  1.0000
  S   S285      1.0  0.69416  0.82252  0.60590  1.0000
  H   H875      1.0  0.88447  0.73651  0.63737  1.0000
  H   H876      1.0  0.70977  0.92028  0.62062  1.0000
  C   C871      1.0  0.59196  0.76758  0.65429  1.0000
  C   C872      1.0  0.81782  0.74532  0.47767  1.0000
  C   C873      1.0  0.55573  0.62090  0.47738  1.0000
  H   H877      1.0  0.53453  0.76802  0.46565  1.0000
  H   H878      1.0  0.60397  0.66016  0.46208  1.0000
  C   C874      1.0  0.54039  0.81909  0.55168  1.0000
  H   H879      1.0  0.79914  0.87954  0.45121  1.0000
  C   C875      1.0  0.70659  0.90621  0.53142  1.0000
  H   H880      1.0  0.57726  0.84656  0.65185  1.0000
  H   H881      1.0  0.60540  0.91027  0.42541  1.0000
  C   C876      1.0  0.85124  0.93072  0.56030  1.0000
  S   S286      1.0  0.56331  0.05399  0.56752  1.0000
  C   C877      1.0  0.90068  0.76659  0.53548  1.0000
  H   H882      1.0  0.91780  0.85246  0.49531  1.0000
  H   H883      1.0  0.44396  0.76992  0.45701  1.0000
  S   S287      1.0  0.49368  0.81758  0.44603  1.0000
  S   S288      1.0  0.64794  0.74622  0.58373  1.0000
  C   C878      1.0  0.46261  0.75584  0.46326  1.0000
  C   C879      1.0  0.44633  0.94341  0.57309  1.0000
  N   N73       1.0  0.82452  0.77836  0.43072  1.0000
  C   C880      1.0  0.78650  0.92101  0.50465  1.0000
  H   H884      1.0  0.52961  0.70523  0.48498  1.0000
  H   H885      1.0  0.66336  0.80193  0.45641  1.0000
  S   S289      1.0  0.49028  0.59023  0.64971  1.0000
  N   N74       1.0  0.67251  0.94177  0.59806  1.0000
  H   H886      1.0  0.72663  0.89172  0.52188  1.0000
  C   C881      1.0  0.91050  0.79927  0.49561  1.0000
  H   H887      1.0  0.49123  0.96477  0.56018  1.0000
  C   C882      1.0  0.59332  0.70756  0.65164  1.0000
  S   S290      1.0  0.76393  0.97149  0.57568  1.0000
  C   C883      1.0  0.46371  0.00357  0.53481  1.0000
  S   S291      1.0  0.44372  0.89511  0.44079  1.0000
  C   C884      1.0  0.66098  0.03979  0.51665  1.0000
  H   H888      1.0  0.59215  0.64600  0.55331  1.0000
  S   S292      1.0  0.86613  0.63513  0.54752  1.0000
  C   C885      1.0  0.78307  0.86190  0.55999  1.0000
  C   C886      1.0  0.53527  0.59617  0.47356  1.0000
  S   S293      1.0  0.78078  0.81864  0.55767  1.0000
  S   S294      1.0  0.49173  0.03721  0.51749  1.0000
  H   H889      1.0  0.86570  0.98402  0.51922  1.0000
  C   C887      1.0  0.77237  0.87145  0.62322  1.0000
  S   S295      1.0  0.52831  0.66447  0.61338  1.0000
  C   C888      1.0  0.55673  0.83434  0.48337  1.0000
  C   C889      1.0  0.76794  0.90540  0.62746  1.0000
  H   H890      1.0  0.60384  0.79273  0.64039  1.0000
  Fe  Fe146     1.0  0.54475  0.95622  0.63618  1.0000
  H   H891      1.0  0.79430  0.05776  0.45120  1.0000
  H   H892      1.0  0.84137  0.05255  0.55086  1.0000
  H   H893      1.0  0.78059  0.77668  0.42148  1.0000
  C   C890      1.0  0.43547  0.01018  0.52824  1.0000
  C   C891      1.0  0.84178  0.06196  0.59463  1.0000
  H   H894      1.0  0.60615  0.68608  0.63730  1.0000
  C   C892      1.0  0.49969  0.81831  0.66348  1.0000
  H   H895      1.0  0.78419  0.01753  0.43665  1.0000
  S   S296      1.0  0.71130  0.74636  0.65963  1.0000
  S   S297      1.0  0.88587  0.66472  0.66121  1.0000
  C   C893      1.0  0.86122  0.97013  0.62412  1.0000
  H   H896      1.0  0.86788  0.99564  0.62733  1.0000
  C   C894      1.0  0.82254  0.04544  0.66038  1.0000
  H   H897      1.0  0.51876  0.90584  0.47900  1.0000
  S   S298      1.0  0.49390  0.62519  0.77416  1.0000
  C   C895      1.0  0.45510  0.88937  0.76149  1.0000
  C   C896      1.0  0.43808  0.87432  0.82921  1.0000
  C   C897      1.0  0.69241  0.65741  0.76567  1.0000
  Fe  Fe147     1.0  0.73770  0.92879  0.82537  1.0000
  Fe  Fe148     1.0  0.49411  0.67567  0.70987  1.0000
  C   C898      1.0  0.60739  0.02922  0.74752  1.0000
  S   S299      1.0  0.71340  0.80818  0.73984  1.0000
  Fe  Fe149     1.0  0.67314  0.82666  0.71533  1.0000
  N   N75       1.0  0.87861  0.63246  0.85312  1.0000
  S   S300      1.0  0.70578  0.93882  0.76899  1.0000
  H   H898      1.0  0.50957  0.82844  0.69690  1.0000
  H   H899      1.0  0.85311  0.94915  0.72883  1.0000
  H   H900      1.0  0.47330  0.03673  0.77353  1.0000
  C   C899      1.0  0.62281  0.58231  0.85046  1.0000
  H   H901      1.0  0.91255  0.71313  0.79986  1.0000
  C   C900      1.0  0.90913  0.68613  0.80137  1.0000
  C   C901      1.0  0.52747  0.73079  0.88743  1.0000
  S   S301      1.0  0.45409  0.65893  0.68589  1.0000
  C   C902      1.0  0.56567  0.88874  0.70299  1.0000
  C   C903      1.0  0.50963  0.86498  0.90262  1.0000
  C   C904      1.0  0.47697  0.06257  0.74457  1.0000
  H   H902      1.0  0.74308  0.74093  0.75342  1.0000
  C   C905      1.0  0.57950  0.03897  0.79053  1.0000
  C   C906      1.0  0.59809  0.68716  0.80792  1.0000
  H   H903      1.0  0.55052  0.67691  0.70778  1.0000
  C   C907      1.0  0.72834  0.07186  0.86442  1.0000
  C   C908      1.0  0.47271  0.06940  0.68258  1.0000
  S   S302      1.0  0.50405  0.72385  0.74065  1.0000
  S   S303      1.0  0.43899  0.83063  0.85603  1.0000
  N   N76       1.0  0.84413  0.91157  0.67784  1.0000
  H   H904      1.0  0.62384  0.83661  0.68047  1.0000
  C   C909      1.0  0.57521  0.03946  0.85808  1.0000
  C   C910      1.0  0.58313  0.86187  0.68279  1.0000
  C   C911      1.0  0.61795  0.87742  0.73553  1.0000
  C   C912      1.0  0.64817  0.80853  0.91379  1.0000
  H   H905      1.0  0.77805  0.81069  0.79146  1.0000
  C   C913      1.0  0.66919  0.83424  0.91163  1.0000
  C   C914      1.0  0.72118  0.71051  0.85448  1.0000
  C   C915      1.0  0.59957  0.90322  0.75848  1.0000
  H   H906      1.0  0.77269  0.61874  0.83990  1.0000
  N   N77       1.0  0.73016  0.62285  0.82480  1.0000
  C   C916      1.0  0.62987  0.01758  0.77359  1.0000
  Fe  Fe150     1.0  0.68858  0.75646  0.76531  1.0000
  Fe  Fe151     1.0  0.83549  0.66400  0.72217  1.0000
  H   H907      1.0  0.83101  0.79163  0.76674  1.0000
  H   H908      1.0  0.69199  0.82847  0.91031  1.0000
  H   H909      1.0  0.46974  0.87452  0.72743  1.0000
  H   H910      1.0  0.73955  0.59913  0.91126  1.0000
  S   S304      1.0  0.79857  0.03738  0.79938  1.0000
  S   S305      1.0  0.65218  0.87279  0.75028  1.0000
  C   C917      1.0  0.54455  0.73010  0.70670  1.0000
  H   H911      1.0  0.75406  0.57932  0.83788  1.0000
  C   C918      1.0  0.78041  0.69114  0.83855  1.0000
  N   N78       1.0  0.63218  0.87517  0.91081  1.0000
  H   H912      1.0  0.55425  0.04801  0.89101  1.0000
  H   H913      1.0  0.89622  0.59006  0.80810  1.0000
  S   S306      1.0  0.73362  0.01970  0.72943  1.0000
  H   H914      1.0  0.73596  0.78579  0.90166  1.0000
  S   S307      1.0  0.87237  0.82791  0.83622  1.0000
  S   S308      1.0  0.57247  0.59913  0.68195  1.0000
  C   C919      1.0  0.77588  0.71373  0.78623  1.0000
  H   H915      1.0  0.44310  0.70571  0.83629  1.0000
  Fe  Fe152     1.0  0.74593  0.97234  0.68716  1.0000
  C   C920      1.0  0.57353  0.90893  0.74196  1.0000
  Fe  Fe153     1.0  0.52714  0.61346  0.67714  1.0000
  C   C921      1.0  0.69900  0.62084  0.86070  1.0000
  C   C922      1.0  0.50156  0.95776  0.85402  1.0000
  H   H916      1.0  0.65761  0.94402  0.70266  1.0000
  H   H917      1.0  0.76723  0.64242  0.73087  1.0000
  Fe  Fe154     1.0  0.69588  0.98530  0.81505  1.0000
  Fe  Fe155     1.0  0.45714  0.60697  0.74138  1.0000
  S   S309      1.0  0.72503  0.97285  0.87719  1.0000
  C   C923      1.0  0.82291  0.05755  0.71726  1.0000
  C   C924      1.0  0.66083  0.86766  0.90974  1.0000
  C   C925      1.0  0.55989  0.76259  0.69110  1.0000
  C   C926      1.0  0.88290  0.66661  0.85062  1.0000
  C   C927      1.0  0.43425  0.94315  0.78074  1.0000
  H   H918      1.0  0.56001  0.92964  0.75787  1.0000
  S   S310      1.0  0.74266  0.87902  0.88599  1.0000
  H   H919      1.0  0.72064  0.58277  0.71901  1.0000
  Fe  Fe156     1.0  0.90523  0.79387  0.86437  1.0000
  C   C928      1.0  0.83318  0.88481  0.73947  1.0000
  C   C929      1.0  0.50404  0.70483  0.90437  1.0000
  C   C930      1.0  0.56166  0.70245  0.69055  1.0000
  C   C931      1.0  0.75009  0.60395  0.85489  1.0000
  H   H920      1.0  0.54703  0.78395  0.70558  1.0000
  H   H921      1.0  0.60054  0.66348  0.78692  1.0000
  H   H922      1.0  0.65534  0.63812  0.86166  1.0000
  H   H923      1.0  0.60597  0.91964  0.78688  1.0000
  H   H924      1.0  0.62878  0.60543  0.81206  1.0000
  N   N79       1.0  0.56552  0.69325  0.83994  1.0000
  S   S311      1.0  0.81677  0.67649  0.82608  1.0000
  H   H925      1.0  0.77878  0.94088  0.87018  1.0000
  Fe  Fe157     1.0  0.89628  0.86837  0.86413  1.0000
  H   H926      1.0  0.63745  0.92564  0.85491  1.0000
  H   H927      1.0  0.73425  0.67265  0.67678  1.0000
  H   H928      1.0  0.88767  0.78533  0.69130  1.0000
  C   C932      1.0  0.55831  0.72441  0.85561  1.0000
  S   S312      1.0  0.77853  0.95816  0.73991  1.0000
  Fe  Fe158     1.0  0.90991  0.84260  0.73318  1.0000
  C   C933      1.0  0.85302  0.94367  0.68127  1.0000
  C   C934      1.0  0.60947  0.85634  0.69874  1.0000
  H   H929      1.0  0.84355  0.88956  0.77647  1.0000
  C   C935      1.0  0.50008  0.92256  0.85777  1.0000
  H   H930      1.0  0.75827  0.91192  0.67689  1.0000
  C   C936      1.0  0.67368  0.07003  0.90207  1.0000
  H   H931      1.0  0.67775  0.67123  0.74286  1.0000
  C   C937      1.0  0.81833  0.75800  0.86490  1.0000
  C   C938      1.0  0.51161  0.67308  0.88845  1.0000
  C   C939      1.0  0.74632  0.72354  0.79428  1.0000
  C   C940      1.0  0.62444  0.91060  0.90685  1.0000
  H   H932      1.0  0.68893  0.60575  0.91191  1.0000
  H   H933      1.0  0.61060  0.70848  0.76496  1.0000
  C   C941      1.0  0.78294  0.79236  0.82919  1.0000
  H   H934      1.0  0.65126  0.00983  0.74076  1.0000
  H   H935      1.0  0.80762  0.88379  0.76417  1.0000
  C   C942      1.0  0.72407  0.65858  0.72891  1.0000
  S   S313      1.0  0.82496  0.61144  0.71123  1.0000
  H   H936      1.0  0.61182  0.03102  0.69415  1.0000
  C   C943      1.0  0.89966  0.61706  0.80671  1.0000
  H   H937      1.0  0.46670  0.93509  0.68493  1.0000
  C   C944      1.0  0.74271  0.64130  0.75972  1.0000
  H   H938      1.0  0.50048  0.79027  0.67126  1.0000
  H   H939      1.0  0.51689  0.99907  0.88923  1.0000
  C   C945      1.0  0.81263  0.78182  0.81553  1.0000
  C   C946      1.0  0.54264  0.66772  0.85584  1.0000
  C   C947      1.0  0.45329  0.92369  0.73740  1.0000
  H   H940      1.0  0.79522  0.72411  0.73982  1.0000
  H   H941      1.0  0.49277  0.97414  0.82045  1.0000
  S   S314      1.0  0.54884  0.04865  0.76305  1.0000
  S   S315      1.0  0.64657  0.77546  0.74925  1.0000
  C   C948      1.0  0.59751  0.02769  0.88398  1.0000
  H   H942      1.0  0.52176  0.75568  0.89879  1.0000
  H   H943      1.0  0.83981  0.85966  0.72696  1.0000
  H   H944      1.0  0.49097  0.91211  0.82499  1.0000
  Fe  Fe159     1.0  0.76364  0.00292  0.78800  1.0000
  C   C949      1.0  0.67979  0.63866  0.83219  1.0000
  H   H945      1.0  0.83361  0.60905  0.88005  1.0000
  C   C950      1.0  0.62430  0.01571  0.84258  1.0000
  H   H946      1.0  0.84131  0.74943  0.85372  1.0000
  H   H947      1.0  0.60919  0.68468  0.84606  1.0000
  H   H948      1.0  0.49360  0.65271  0.90106  1.0000
  S   S316      1.0  0.68400  0.72070  0.86147  1.0000
  H   H949      1.0  0.86598  0.67899  0.88675  1.0000
  H   H950      1.0  0.54831  0.64300  0.84329  1.0000
  C   C951      1.0  0.75929  0.77850  0.89115  1.0000
  C   C952      1.0  0.75557  0.67922  0.89989  1.0000
  S   S317      1.0  0.64923  0.99710  0.88042  1.0000
  S   S318      1.0  0.43102  0.98541  0.74760  1.0000
  C   C953      1.0  0.85072  0.61237  0.90375  1.0000
  C   C954      1.0  0.51506  0.97173  0.89271  1.0000
  H   H951      1.0  0.57646  0.74460  0.84292  1.0000
  N   N80       1.0  0.51070  0.90172  0.90082  1.0000
  C   C955      1.0  0.72584  0.68872  0.90783  1.0000
  H   H952      1.0  0.82888  0.95152  0.87856  1.0000
  S   S319      1.0  0.51111  0.99378  0.67347  1.0000
  H   H953      1.0  0.76686  0.85247  0.66927  1.0000
  H   H954      1.0  0.65295  0.07636  0.89240  1.0000
  C   C956      1.0  0.78913  0.91982  0.88943  1.0000
  C   C957      1.0  0.59848  0.58062  0.91307  1.0000
  C   C958      1.0  0.61131  0.85004  0.91340  1.0000
  C   C959      1.0  0.81739  0.92602  0.89556  1.0000
  H   H955      1.0  0.58878  0.85598  0.91323  1.0000
  H   H956      1.0  0.53087  0.85899  0.86286  1.0000
  H   H957      1.0  0.48926  0.85615  0.89274  1.0000
  H   H958      1.0  0.67753  0.88762  0.90646  1.0000
  C   C960      1.0  0.77506  0.88667  0.90614  1.0000
  Fe  Fe160     1.0  0.55106  0.02526  0.67437  1.0000
  H   H959      1.0  0.80737  0.02347  0.66673  1.0000
  H   H960      1.0  0.47492  0.82308  0.67936  1.0000
  S   S320      1.0  0.53631  0.89976  0.67322  1.0000
