data_image0
_chemical_formula_structural       HC2SC2H2FeH3NHCHC3SHCH6C2SFeCH2CH2CH3CHCHSNHCSCHCH2FeH2CHCHC2SCHSHCSHFeSCFeCHFeSH2SHCHC2HC2SHC2HFeCSCHS2HFeCSHSH2CFeCSFeH3C2HCHCHC3H4C4H2CS2HCHC2HN2CH6CH2C6HCHFeH2CHCFeC2SCFeSC3S2HCHFe2S2C2FeHCHCSC2H2SFeCH2CHC2SFeCHSHNS2CH2C2HC2H2CH3CSNC2HFeHCHNHCSHFeC2NC3HC2HCH4SC3SHC2H3CHCH2CSC6SHSHFeCH2C2SH2SC3HNHCSH4CHCH2CHSFeC2HCS2C4H2CSCHFeSCSCSHCNSFeHC5NH5CHS2H4CFeCHFeSHC2FeH2SHFeCH2SHCSH2SCHNH2NCHC3S2C2H2C2FeHC2HCHCSCH3CFeC2H2CSC3HCS2HC3NCHCHCHCNCHCHCH2CHCSH2SFeHFeH2CH2CHS2FeCSFeCFeCFeC2H3CH2CH2CSCH3C5HSCH2C2Fe2SCNHC2H2CFeCS2FeSHNCHCHCHCHNHS2C2HCHNCSHCHC3HCSC3SH2CH2C2H2CHSFeCSC2H2CH3SC3HCHC2NCHCHSNC2FeHCHCSH4CH3NCHC2HCH2CHCHSC2FeC2HCHSHSFeC2HCNHFeCH3FeCS2C2SH6SCHC2SCNH2C2FeCFeH3CH2CHSHFeHCHSC7H3CHCH2CH2NHCHNC2HSHCHCHCSCSHCHCHCSCHCHCNC2H3CH2CH3CHNH3C2H3CSHFeSFeHS2H2C2FeH2SCHCS2FeNCH2CHC5FeHFeHCHS2C3HCHC3SCH3C2HC3HNHSC3SHNCHCH2SFeCH2C2FeC3SH2CH3CHSH2C2H4C3FeC2H4CH2CHC3HCH2CSCSH2FeHC3H2CFeHC4H2SHNSFeHC2H2CFeCSHS2CHCHSNSFeCH2C2HCH3CHCSHCSHCHCHCFeSHC2H2C3HCHSC2HCHCSCNH4C2HC2HCSFeH4S2HSH2NCHCHC2H2NC4H3C5H2CSC3HCH2FeCH2FeH2CSCHSCFeHS2FeHC2H2CS2CS2HSCHFeH2FeHCS2C4HSFeH2C2H2CH
_chemical_formula_sum              "H432 C432 S144 Fe72 N36"
_cell_length_a       30.012
_cell_length_b       29.8775
_cell_length_c       20.9077
_cell_angle_alpha    73.824
_cell_angle_beta     104.12
_cell_angle_gamma    112.927

_space_group_name_H-M_alt    "P 1"
_space_group_IT_number       1

loop_
  _space_group_symop_operation_xyz
  'x, y, z'

loop_
  _atom_site_type_symbol
  _atom_site_label
  _atom_site_symmetry_multiplicity
  _atom_site_fract_x
  _atom_site_fract_y
  _atom_site_fract_z
  _atom_site_occupancy
  H   H1        1.0  0.73966  0.02428  0.90698  1.0000
  C   C1        1.0  0.56634  0.46608  0.92394  1.0000
  C   C2        1.0  0.61508  0.46945  0.93103  1.0000
  S   S1        1.0  0.70844  0.21772  0.90396  1.0000
  C   C3        1.0  0.34736  0.35693  0.93986  1.0000
  C   C4        1.0  0.36004  0.31511  0.97451  1.0000
  H   H2        1.0  0.73194  0.32174  0.89886  1.0000
  H   H3        1.0  0.75049  0.13301  0.02135  1.0000
  Fe  Fe1       1.0  0.46938  0.47746  0.12070  1.0000
  H   H4        1.0  0.38271  0.08139  0.04275  1.0000
  H   H5        1.0  0.44882  0.44715  0.99017  1.0000
  H   H6        1.0  0.54759  0.45126  0.96743  1.0000
  N   N1        1.0  0.37903  0.40362  0.94593  1.0000
  H   H7        1.0  0.39675  0.47948  0.89537  1.0000
  C   C5        1.0  0.52263  0.00636  0.00305  1.0000
  H   H8        1.0  0.47264  0.37462  0.05386  1.0000
  C   C6        1.0  0.72199  0.12234  0.05356  1.0000
  C   C7        1.0  0.67584  0.03335  0.08734  1.0000
  C   C8        1.0  0.81529  0.30453  0.04527  1.0000
  S   S2        1.0  0.58780  0.10912  0.89639  1.0000
  H   H9        1.0  0.79286  0.32121  0.12415  1.0000
  C   C9        1.0  0.47692  0.00577  0.00936  1.0000
  H   H10       1.0  0.63372  0.45678  0.97995  1.0000
  H   H11       1.0  0.81097  0.25297  0.95877  1.0000
  H   H12       1.0  0.73306  0.15097  0.08430  1.0000
  H   H13       1.0  0.68722  0.12329  0.02014  1.0000
  H   H14       1.0  0.77800  0.28741  0.02200  1.0000
  H   H15       1.0  0.55385  0.19545  0.89613  1.0000
  C   C10       1.0  0.42340  0.41002  0.98644  1.0000
  C   C11       1.0  0.53569  0.26005  0.88844  1.0000
  S   S3        1.0  0.53144  0.46894  0.09095  1.0000
  Fe  Fe2       1.0  0.36092  0.45656  0.10478  1.0000
  C   C12       1.0  0.34375  0.06053  0.03592  1.0000
  H   H16       1.0  0.64592  0.03746  0.04778  1.0000
  H   H17       1.0  0.33761  0.06893  0.92851  1.0000
  C   C13       1.0  0.36456  0.44700  0.91177  1.0000
  H   H18       1.0  0.34890  0.45709  0.94638  1.0000
  H   H19       1.0  0.41550  0.28931  0.04397  1.0000
  C   C14       1.0  0.43715  0.36909  0.02220  1.0000
  H   H20       1.0  0.47486  0.03385  0.03075  1.0000
  H   H21       1.0  0.37683  0.19165  0.04480  1.0000
  H   H22       1.0  0.50744  0.24054  0.92026  1.0000
  C   C15       1.0  0.34956  0.17182  0.07793  1.0000
  H   H23       1.0  0.55568  0.03468  0.02007  1.0000
  C   C16       1.0  0.40514  0.32132  0.01638  1.0000
  H   H24       1.0  0.33519  0.27825  0.96815  1.0000
  S   S4        1.0  0.69984  0.49057  0.88556  1.0000
  N   N2        1.0  0.71716  0.07342  0.09741  1.0000
  H   H25       1.0  0.63471  0.48584  0.12327  1.0000
  C   C17       1.0  0.75473  0.06798  0.14766  1.0000
  S   S5        1.0  0.42398  0.19739  0.18114  1.0000
  C   C18       1.0  0.56804  0.45387  0.16631  1.0000
  H   H26       1.0  0.32769  0.06945  0.32887  1.0000
  C   C19       1.0  0.32809  0.14252  0.19033  1.0000
  H   H27       1.0  0.47783  0.29516  0.34679  1.0000
  H   H28       1.0  0.44374  0.36277  0.29421  1.0000
  Fe  Fe3       1.0  0.80068  0.10845  0.32961  1.0000
  H   H29       1.0  0.46843  0.00880  0.30120  1.0000
  H   H30       1.0  0.78772  0.09931  0.15545  1.0000
  C   C20       1.0  0.64815  0.45984  0.23082  1.0000
  H   H31       1.0  0.69217  0.06856  0.27619  1.0000
  C   C21       1.0  0.61848  0.46784  0.16882  1.0000
  H   H32       1.0  0.68727  0.47155  0.23301  1.0000
  C   C22       1.0  0.70266  0.00028  0.33198  1.0000
  C   C23       1.0  0.36328  0.16820  0.14767  1.0000
  S   S6        1.0  0.40853  0.41311  0.16611  1.0000
  C   C24       1.0  0.54702  0.43031  0.22513  1.0000
  H   H33       1.0  0.65320  0.26135  0.31232  1.0000
  S   S7        1.0  0.51692  0.19617  0.34585  1.0000
  H   H34       1.0  0.50806  0.41923  0.22314  1.0000
  C   C25       1.0  0.62707  0.43647  0.28969  1.0000
  S   S8        1.0  0.76884  0.15499  0.24146  1.0000
  H   H35       1.0  0.32994  0.37086  0.27980  1.0000
  Fe  Fe4       1.0  0.42412  0.45848  0.24334  1.0000
  S   S9        1.0  0.78552  0.46900  0.29780  1.0000
  C   C26       1.0  0.57646  0.42090  0.28671  1.0000
  Fe  Fe5       1.0  0.43985  0.16888  0.29286  1.0000
  C   C27       1.0  0.62974  0.00535  0.25322  1.0000
  H   H36       1.0  0.78055  0.01803  0.23118  1.0000
  Fe  Fe6       1.0  0.80094  0.21364  0.30267  1.0000
  S   S10       1.0  0.42987  0.08874  0.33787  1.0000
  H   H37       1.0  0.73327  0.32501  0.35539  1.0000
  H   H38       1.0  0.64106  0.32300  0.35980  1.0000
  S   S11       1.0  0.75521  0.25409  0.31292  1.0000
  H   H39       1.0  0.35631  0.30268  0.28462  1.0000
  C   C28       1.0  0.75111  0.02190  0.19032  1.0000
  H   H40       1.0  0.36375  0.24828  0.22034  1.0000
  C   C29       1.0  0.64434  0.25145  0.36293  1.0000
  C   C30       1.0  0.45335  0.35393  0.34817  1.0000
  H   H41       1.0  0.56016  0.40250  0.33212  1.0000
  C   C31       1.0  0.33609  0.26579  0.20181  1.0000
  C   C32       1.0  0.47279  0.31578  0.37797  1.0000
  S   S12       1.0  0.42297  0.42878  0.35420  1.0000
  H   H42       1.0  0.60998  0.02751  0.21700  1.0000
  C   C33       1.0  0.79236  0.30092  0.35707  1.0000
  C   C34       1.0  0.67648  0.02868  0.28623  1.0000
  H   H43       1.0  0.33738  0.04755  0.14064  1.0000
  Fe  Fe7       1.0  0.73878  0.48243  0.35339  1.0000
  C   C35       1.0  0.77185  0.33143  0.37025  1.0000
  S   S13       1.0  0.40633  0.17738  0.37199  1.0000
  C   C36       1.0  0.33189  0.29675  0.23772  1.0000
  H   H44       1.0  0.33853  0.14033  0.24401  1.0000
  S   S14       1.0  0.66393  0.42905  0.36758  1.0000
  S   S15       1.0  0.76269  0.02758  0.37083  1.0000
  H   H45       1.0  0.35410  0.47829  0.37481  1.0000
  Fe  Fe8       1.0  0.40271  0.09940  0.42161  1.0000
  C   C37       1.0  0.33555  0.14689  0.61030  1.0000
  S   S16       1.0  0.51163  0.25847  0.48762  1.0000
  H   H46       1.0  0.78460  0.10666  0.56989  1.0000
  S   S17       1.0  0.55587  0.07614  0.41020  1.0000
  H   H47       1.0  0.62558  0.15503  0.49706  1.0000
  H   H48       1.0  0.59188  0.17413  0.57736  1.0000
  C   C38       1.0  0.80164  0.37181  0.39993  1.0000
  Fe  Fe9       1.0  0.48291  0.19896  0.42801  1.0000
  C   C39       1.0  0.81503  0.38089  0.56586  1.0000
  S   S18       1.0  0.34235  0.47129  0.54439  1.0000
  Fe  Fe10      1.0  0.50427  0.11656  0.39693  1.0000
  H   H49       1.0  0.70176  0.13765  0.53269  1.0000
  H   H50       1.0  0.54342  0.44536  0.41693  1.0000
  H   H51       1.0  0.67324  0.43329  0.55239  1.0000
  C   C40       1.0  0.64024  0.20423  0.40197  1.0000
  C   C41       1.0  0.62930  0.19206  0.46731  1.0000
  H   H52       1.0  0.64631  0.04257  0.48169  1.0000
  C   C42       1.0  0.81043  0.06512  0.52776  1.0000
  H   H53       1.0  0.47538  0.01842  0.48595  1.0000
  C   C43       1.0  0.44657  0.38046  0.38844  1.0000
  H   H54       1.0  0.78027  0.20682  0.51457  1.0000
  C   C44       1.0  0.48733  0.30569  0.44775  1.0000
  C   C45       1.0  0.72285  0.15727  0.57268  1.0000
  C   C46       1.0  0.65464  0.45466  0.51217  1.0000
  H   H55       1.0  0.78538  0.39491  0.41056  1.0000
  H   H56       1.0  0.44009  0.23712  0.56965  1.0000
  H   H57       1.0  0.44913  0.16019  0.59193  1.0000
  H   H58       1.0  0.39394  0.28977  0.56896  1.0000
  C   C47       1.0  0.61543  0.21365  0.56363  1.0000
  C   C48       1.0  0.63840  0.02004  0.53249  1.0000
  C   C49       1.0  0.37676  0.24959  0.57974  1.0000
  C   C50       1.0  0.41000  0.13788  0.59630  1.0000
  H   H59       1.0  0.65121  0.21965  0.59744  1.0000
  H   H60       1.0  0.58438  0.39588  0.51136  1.0000
  C   C51       1.0  0.81619  0.10380  0.55740  1.0000
  S   S19       1.0  0.34056  0.04036  0.47140  1.0000
  S   S20       1.0  0.47673  0.12160  0.48374  1.0000
  H   H61       1.0  0.45479  0.38958  0.48990  1.0000
  C   C52       1.0  0.40291  0.21960  0.58042  1.0000
  H   H62       1.0  0.39384  0.11856  0.55334  1.0000
  C   C53       1.0  0.45999  0.36934  0.45834  1.0000
  C   C54       1.0  0.52672  0.49223  0.55624  1.0000
  H   H63       1.0  0.47660  0.48305  0.46348  1.0000
  N   N3        1.0  0.62332  0.22624  0.49336  1.0000
  N   N4        1.0  0.38238  0.16899  0.59606  1.0000
  C   C55       1.0  0.76736  0.19623  0.56257  1.0000
  H   H64       1.0  0.77434  0.03833  0.51650  1.0000
  H   H65       1.0  0.59682  0.23666  0.57231  1.0000
  H   H66       1.0  0.52703  0.45454  0.56898  1.0000
  H   H67       1.0  0.49314  0.32555  0.54123  1.0000
  H   H68       1.0  0.67189  0.03067  0.57009  1.0000
  H   H69       1.0  0.60968  0.03006  0.54414  1.0000
  C   C56       1.0  0.58176  0.46144  0.43636  1.0000
  H   H70       1.0  0.62294  0.30011  0.47597  1.0000
  H   H71       1.0  0.77520  0.36626  0.56817  1.0000
  C   C57       1.0  0.60480  0.43376  0.48923  1.0000
  C   C58       1.0  0.48151  0.33298  0.48756  1.0000
  C   C59       1.0  0.62763  0.27284  0.45556  1.0000
  C   C60       1.0  0.52410  0.01217  0.43102  1.0000
  C   C61       1.0  0.32897  0.22739  0.59424  1.0000
  C   C62       1.0  0.79576  0.22049  0.61504  1.0000
  H   H72       1.0  0.64543  0.17719  0.38164  1.0000
  C   C63       1.0  0.63777  0.28601  0.38963  1.0000
  H   H73       1.0  0.53985  0.20482  0.68266  1.0000
  Fe  Fe11      1.0  0.62910  0.09869  0.74240  1.0000
  H   H74       1.0  0.72080  0.15880  0.73370  1.0000
  H   H75       1.0  0.59276  0.39511  0.73420  1.0000
  C   C64       1.0  0.33199  0.00684  0.71451  1.0000
  H   H76       1.0  0.40332  0.02946  0.86226  1.0000
  C   C65       1.0  0.54199  0.48221  0.86091  1.0000
  Fe  Fe12      1.0  0.75094  0.47044  0.68935  1.0000
  C   C66       1.0  0.51693  0.21871  0.69849  1.0000
  C   C67       1.0  0.79899  0.07227  0.71894  1.0000
  S   S21       1.0  0.61759  0.16713  0.74805  1.0000
  C   C68       1.0  0.54592  0.31060  0.85979  1.0000
  Fe  Fe13      1.0  0.65680  0.15541  0.85402  1.0000
  S   S22       1.0  0.45150  0.44726  0.67357  1.0000
  C   C69       1.0  0.72481  0.26408  0.77570  1.0000
  C   C70       1.0  0.45546  0.25434  0.73559  1.0000
  C   C71       1.0  0.48248  0.18673  0.74029  1.0000
  S   S23       1.0  0.35503  0.41946  0.74297  1.0000
  S   S24       1.0  0.49425  0.34827  0.66313  1.0000
  H   H77       1.0  0.34555  0.17411  0.74214  1.0000
  C   C72       1.0  0.52074  0.26859  0.67535  1.0000
  H   H78       1.0  0.73064  0.29960  0.67175  1.0000
  Fe  Fe14      1.0  0.43833  0.36630  0.69466  1.0000
  Fe  Fe15      1.0  0.54972  0.11500  0.79017  1.0000
  S   S25       1.0  0.74391  0.40091  0.66130  1.0000
  S   S26       1.0  0.48154  0.47888  0.85345  1.0000
  C   C73       1.0  0.37114  0.03052  0.82288  1.0000
  C   C74       1.0  0.48985  0.28630  0.69372  1.0000
  Fe  Fe16      1.0  0.43519  0.43385  0.77702  1.0000
  H   H79       1.0  0.70149  0.02191  0.75389  1.0000
  C   C75       1.0  0.70588  0.14382  0.63443  1.0000
  H   H80       1.0  0.77267  0.08866  0.68720  1.0000
  C   C76       1.0  0.73140  0.30466  0.72134  1.0000
  S   S27       1.0  0.42817  0.35398  0.80145  1.0000
  C   C77       1.0  0.32395  0.22165  0.77941  1.0000
  C   C78       1.0  0.41570  0.99586  0.69750  1.0000
  H   H81       1.0  0.63455  0.33015  0.77271  1.0000
  H   H82       1.0  0.74375  0.39371  0.80263  1.0000
  S   S28       1.0  0.47689  0.12438  0.76988  1.0000
  Fe  Fe17      1.0  0.60074  0.04472  0.88038  1.0000
  C   C79       1.0  0.73363  0.16902  0.68601  1.0000
  H   H83       1.0  0.62758  0.40961  0.81441  1.0000
  H   H84       1.0  0.79939  0.22646  0.71647  1.0000
  C   C80       1.0  0.79521  0.02469  0.71586  1.0000
  H   H85       1.0  0.44512  0.01362  0.79551  1.0000
  C   C81       1.0  0.72451  0.27008  0.83947  1.0000
  C   C82       1.0  0.73815  0.35148  0.73091  1.0000
  S   S29       1.0  0.68374  0.48150  0.69867  1.0000
  Fe  Fe18      1.0  0.34896  0.34027  0.75965  1.0000
  C   C83       1.0  0.77854  0.20704  0.67651  1.0000
  H   H86       1.0  0.71962  0.22800  0.76819  1.0000
  S   S30       1.0  0.35809  0.34571  0.65370  1.0000
  H   H87       1.0  0.42579  0.17991  0.79229  1.0000
  N   N5        1.0  0.58075  0.33500  0.81832  1.0000
  S   S31       1.0  0.55775  0.04713  0.77646  1.0000
  S   S32       1.0  0.65000  0.09596  0.64794  1.0000
  C   C84       1.0  0.45175  0.20447  0.75883  1.0000
  H   H88       1.0  0.43196  0.26812  0.75030  1.0000
  H   H89       1.0  0.56317  0.40138  0.79395  1.0000
  C   C85       1.0  0.59165  0.38795  0.78896  1.0000
  C   C86       1.0  0.73924  0.35781  0.79521  1.0000
  H   H90       1.0  0.52557  0.33010  0.87039  1.0000
  C   C87       1.0  0.60687  0.31067  0.80550  1.0000
  C   C88       1.0  0.59786  0.26027  0.83374  1.0000
  H   H91       1.0  0.35068  0.25527  0.75729  1.0000
  H   H92       1.0  0.37214  0.06958  0.80787  1.0000
  C   C89       1.0  0.73270  0.31712  0.84967  1.0000
  H   H93       1.0  0.61845  0.24108  0.82313  1.0000
  H   H94       1.0  0.54713  0.29322  0.64242  1.0000
  H   H95       1.0  0.40945  0.11005  0.64432  1.0000
  C   C90       1.0  0.41331  0.00786  0.75640  1.0000
  S   S33       1.0  0.67323  0.09028  0.84606  1.0000
  N   N6        1.0  0.37201  0.01382  0.76382  1.0000
  C   C91       1.0  0.32116  0.17571  0.77102  1.0000
  C   C92       1.0  0.56181  0.23479  0.87506  1.0000
  H   H96       1.0  0.33735  0.44024  0.86576  1.0000
  Fe  Fe19      1.0  0.37040  0.42645  0.64003  1.0000
  H   H97       1.0  0.33744  0.00677  0.84539  1.0000
  C   C93       1.0  0.63956  0.48890  0.87505  1.0000
  H   H98       1.0  0.76376  0.00973  0.84739  1.0000
  N   N7        1.0  0.60593  0.59997  0.07974  1.0000
  H   H99       1.0  0.74363  0.79412  0.94744  1.0000
  C   C94       1.0  0.39442  0.79046  0.07114  1.0000
  S   S34       1.0  0.70504  0.75792  0.09546  1.0000
  H   H100      1.0  0.40445  0.90362  0.94583  1.0000
  Fe  Fe20      1.0  0.68498  0.82598  0.06735  1.0000
  C   C95       1.0  0.52814  0.59982  0.01390  1.0000
  C   C96       1.0  0.43711  0.93307  0.95994  1.0000
  N   N8        1.0  0.77505  0.59134  0.93978  1.0000
  C   C97       1.0  0.42688  0.77034  0.06298  1.0000
  C   C98       1.0  0.53663  0.58096  0.96590  1.0000
  C   C99       1.0  0.73101  0.59023  0.95975  1.0000
  H   H101      1.0  0.41345  0.73405  0.05001  1.0000
  C   C100      1.0  0.49435  0.67977  0.08452  1.0000
  C   C101      1.0  0.72164  0.81167  0.90708  1.0000
  H   H102      1.0  0.78430  0.53211  0.02055  1.0000
  C   C102      1.0  0.73695  0.99413  0.88333  1.0000
  H   H103      1.0  0.81403  0.84510  0.89830  1.0000
  H   H104      1.0  0.64865  0.57529  0.03879  1.0000
  H   H105      1.0  0.74766  0.96498  0.92297  1.0000
  H   H106      1.0  0.74101  0.61809  0.99120  1.0000
  S   S35       1.0  0.44305  0.63571  0.11981  1.0000
  C   C103      1.0  0.48271  0.93387  0.95303  1.0000
  C   C104      1.0  0.67083  0.79283  0.90429  1.0000
  C   C105      1.0  0.48902  0.70150  0.01588  1.0000
  S   S36       1.0  0.61416  0.81957  0.99918  1.0000
  H   H107      1.0  0.58817  0.55998  0.93630  1.0000
  C   C106      1.0  0.79332  0.62573  0.88521  1.0000
  C   C107      1.0  0.52689  0.74339  0.98954  1.0000
  H   H108      1.0  0.45482  0.68733  0.98366  1.0000
  H   H109      1.0  0.70447  0.59826  0.91463  1.0000
  H   H110      1.0  0.56409  0.86645  0.05770  1.0000
  C   C108      1.0  0.37954  0.77116  0.88913  1.0000
  H   H111      1.0  0.38747  0.85201  0.09739  1.0000
  C   C109      1.0  0.57056  0.76298  0.03125  1.0000
  H   H112      1.0  0.71182  0.55286  0.98860  1.0000
  H   H113      1.0  0.50930  0.57274  0.92196  1.0000
  C   C110      1.0  0.52547  0.97079  0.97403  1.0000
  S   S37       1.0  0.37684  0.97033  0.99178  1.0000
  C   C111      1.0  0.75030  0.71905  0.89827  1.0000
  C   C112      1.0  0.58055  0.57283  0.97457  1.0000
  C   C113      1.0  0.56294  0.60818  0.07154  1.0000
  C   C114      1.0  0.47695  0.79719  0.07227  1.0000
  C   C115      1.0  0.81731  0.63354  0.11067  1.0000
  C   C116      1.0  0.61495  0.58236  0.03223  1.0000
  S   S38       1.0  0.58185  0.97504  0.95835  1.0000
  H   H114      1.0  0.49463  0.60765  0.00641  1.0000
  S   S39       1.0  0.76048  0.87721  0.04870  1.0000
  H   H115      1.0  0.37637  0.69635  0.89881  1.0000
  Fe  Fe21      1.0  0.78175  0.80945  0.08711  1.0000
  C   C117      1.0  0.57680  0.73975  0.09935  1.0000
  H   H116      1.0  0.48480  0.90596  0.93130  1.0000
  H   H117      1.0  0.50209  0.78108  0.06827  1.0000
  C   C118      1.0  0.53840  0.69881  0.12618  1.0000
  C   C119      1.0  0.41235  0.83670  0.08909  1.0000
  S   S40       1.0  0.42008  0.51687  0.05191  1.0000
  H   H118      1.0  0.55545  0.90972  0.09346  1.0000
  H   H119      1.0  0.55521  0.62086  0.10987  1.0000
  S   S41       1.0  0.32493  0.75055  0.92291  1.0000
  C   C120      1.0  0.54715  0.86960  0.09728  1.0000
  C   C121      1.0  0.46276  0.86266  0.09728  1.0000
  C   C122      1.0  0.79845  0.55899  0.97679  1.0000
  H   H120      1.0  0.35549  0.76966  0.06488  1.0000
  N   N9        1.0  0.49426  0.84306  0.08760  1.0000
  H   H121      1.0  0.47653  0.89862  0.11098  1.0000
  C   C123      1.0  0.79968  0.70438  0.11752  1.0000
  S   S42       1.0  0.65208  0.67321  0.89055  1.0000
  H   H122      1.0  0.52161  0.76178  0.93741  1.0000
  H   H123      1.0  0.65375  0.76110  0.94182  1.0000
  H   H124      1.0  0.66113  0.92376  0.93876  1.0000
  H   H125      1.0  0.75130  0.70710  0.95226  1.0000
  C   C124      1.0  0.43405  0.96947  0.98693  1.0000
  H   H126      1.0  0.63863  0.95488  0.12046  1.0000
  C   C125      1.0  0.67147  0.98643  0.12823  1.0000
  H   H127      1.0  0.67949  0.62133  0.13054  1.0000
  H   H128      1.0  0.40570  0.94010  0.13005  1.0000
  C   C126      1.0  0.65200  0.93765  0.88530  1.0000
  H   H129      1.0  0.57613  0.88999  0.88310  1.0000
  S   S43       1.0  0.75587  0.56234  0.30161  1.0000
  Fe  Fe22      1.0  0.77386  0.88045  0.15794  1.0000
  C   C127      1.0  0.60848  0.95355  0.26726  1.0000
  C   C128      1.0  0.54646  0.68178  0.33066  1.0000
  H   H130      1.0  0.70931  0.85828  0.35142  1.0000
  C   C129      1.0  0.40415  0.54441  0.32262  1.0000
  S   S44       1.0  0.33120  0.75999  0.19621  1.0000
  S   S45       1.0  0.55130  0.92563  0.22215  1.0000
  C   C130      1.0  0.44212  0.97696  0.21267  1.0000
  C   C131      1.0  0.79471  0.65422  0.13974  1.0000
  C   C132      1.0  0.60090  0.64670  0.31015  1.0000
  C   C133      1.0  0.37751  0.65747  0.21693  1.0000
  H   H131      1.0  0.35577  0.65385  0.16621  1.0000
  H   H132      1.0  0.41646  0.67868  0.21063  1.0000
  C   C134      1.0  0.40138  0.94700  0.17595  1.0000
  S   S46       1.0  0.37187  0.49717  0.18560  1.0000
  C   C135      1.0  0.43718  0.98537  0.27252  1.0000
  H   H133      1.0  0.38817  0.96850  0.34294  1.0000
  Fe  Fe23      1.0  0.48109  0.74384  0.35026  1.0000
  S   S47       1.0  0.81515  0.95380  0.18747  1.0000
  C   C136      1.0  0.74043  0.84578  0.36827  1.0000
  S   S48       1.0  0.43681  0.85563  0.29613  1.0000
  C   C137      1.0  0.57844  0.72952  0.30855  1.0000
  S   S49       1.0  0.48819  0.52031  0.20196  1.0000
  H   H134      1.0  0.53182  0.60335  0.34528  1.0000
  C   C138      1.0  0.55694  0.64033  0.32946  1.0000
  N   N10       1.0  0.35697  0.92604  0.19816  1.0000
  S   S50       1.0  0.81772  0.57327  0.14438  1.0000
  Fe  Fe24      1.0  0.50683  0.85328  0.28066  1.0000
  H   H135      1.0  0.63489  0.57193  0.17889  1.0000
  C   C139      1.0  0.70938  0.98079  0.18005  1.0000
  C   C140      1.0  0.35870  0.51466  0.34230  1.0000
  C   C141      1.0  0.62248  0.73577  0.28949  1.0000
  C   C142      1.0  0.32650  0.57924  0.27850  1.0000
  C   C143      1.0  0.40971  0.59107  0.28061  1.0000
  N   N11       1.0  0.37132  0.60818  0.25994  1.0000
  H   H136      1.0  0.70636  0.94481  0.21280  1.0000
  H   H137      1.0  0.47752  0.99281  0.19552  1.0000
  H   H138      1.0  0.78310  0.72039  0.14133  1.0000
  H   H139      1.0  0.44502  0.61361  0.26478  1.0000
  H   H140      1.0  0.59077  0.53073  0.36593  1.0000
  C   C144      1.0  0.68112  0.94846  0.34648  1.0000
  H   H141      1.0  0.56630  0.99406  0.37854  1.0000
  S   S51       1.0  0.69211  0.70097  0.27756  1.0000
  S   S52       1.0  0.79935  0.81534  0.19517  1.0000
  H   H142      1.0  0.57050  0.76162  0.30966  1.0000
  H   H143      1.0  0.63840  0.63584  0.16376  1.0000
  H   H144      1.0  0.77386  0.63174  0.17985  1.0000
  H   H145      1.0  0.64824  0.77256  0.27647  1.0000
  C   C145      1.0  0.78810  0.87986  0.36971  1.0000
  Fe  Fe25      1.0  0.72038  0.76971  0.20060  1.0000
  C   C146      1.0  0.35224  0.93281  0.25795  1.0000
  H   H146      1.0  0.60904  0.61475  0.30960  1.0000
  Fe  Fe26      1.0  0.43450  0.55532  0.13655  1.0000
  S   S53       1.0  0.49520  0.67301  0.36466  1.0000
  H   H147      1.0  0.36536  0.67921  0.23990  1.0000
  C   C147      1.0  0.39210  0.96291  0.29573  1.0000
  C   C148      1.0  0.63447  0.69438  0.29224  1.0000
  Fe  Fe27      1.0  0.40103  0.78216  0.26695  1.0000
  H   H148      1.0  0.79471  0.91950  0.35369  1.0000
  H   H149      1.0  0.61772  0.88499  0.32535  1.0000
  S   S54       1.0  0.69625  0.83576  0.17281  1.0000
  H   H150      1.0  0.54227  0.68300  0.17960  1.0000
  Fe  Fe28      1.0  0.80774  0.54979  0.25309  1.0000
  C   C149      1.0  0.63389  0.92507  0.31461  1.0000
  H   H151      1.0  0.43475  0.53114  0.33855  1.0000
  H   H152      1.0  0.56392  0.85408  0.14781  1.0000
  S   S55       1.0  0.46948  0.78252  0.24287  1.0000
  H   H153      1.0  0.68026  0.58566  0.34342  1.0000
  C   C150      1.0  0.64141  0.60758  0.14138  1.0000
  S   S56       1.0  0.41001  0.73992  0.37283  1.0000
  H   H154      1.0  0.61009  0.75494  0.13229  1.0000
  H   H155      1.0  0.32820  0.79080  0.42229  1.0000
  S   S57       1.0  0.77897  0.54440  0.62178  1.0000
  C   C151      1.0  0.49850  0.50818  0.49713  1.0000
  H   H156      1.0  0.58589  0.64459  0.60814  1.0000
  N   N12       1.0  0.65785  0.52979  0.42961  1.0000
  H   H157      1.0  0.33633  0.80017  0.50667  1.0000
  H   H158      1.0  0.67061  0.97695  0.46672  1.0000
  N   N13       1.0  0.62205  0.96683  0.53316  1.0000
  C   C152      1.0  0.63293  0.70891  0.48269  1.0000
  H   H159      1.0  0.71954  0.51865  0.49870  1.0000
  C   C153      1.0  0.44115  0.58642  0.62062  1.0000
  C   C154      1.0  0.73290  0.79505  0.39031  1.0000
  C   C155      1.0  0.35296  0.71546  0.52718  1.0000
  S   S58       1.0  0.66889  0.80290  0.50314  1.0000
  S   S59       1.0  0.66377  0.58333  0.55221  1.0000
  C   C156      1.0  0.81855  0.81172  0.41491  1.0000
  C   C157      1.0  0.60894  0.50969  0.40714  1.0000
  H   H160      1.0  0.72494  0.59143  0.41835  1.0000
  H   H161      1.0  0.38772  0.74564  0.53134  1.0000
  C   C158      1.0  0.68079  0.50290  0.48131  1.0000
  C   C159      1.0  0.38806  0.57145  0.49401  1.0000
  Fe  Fe29      1.0  0.73502  0.85211  0.55791  1.0000
  H   H162      1.0  0.69579  0.76903  0.39017  1.0000
  C   C160      1.0  0.47310  0.90945  0.46128  1.0000
  C   C161      1.0  0.55345  0.52485  0.60002  1.0000
  H   H163      1.0  0.60511  0.72053  0.44618  1.0000
  C   C162      1.0  0.45058  0.62514  0.56489  1.0000
  H   H164      1.0  0.52676  0.62644  0.51247  1.0000
  C   C163      1.0  0.42330  0.61808  0.50152  1.0000
  S   S60       1.0  0.44142  0.84516  0.47956  1.0000
  C   C164      1.0  0.58722  0.93351  0.57139  1.0000
  H   H165      1.0  0.42987  0.64833  0.45830  1.0000
  H   H166      1.0  0.52086  0.90386  0.40425  1.0000
  H   H167      1.0  0.57002  0.94630  0.59910  1.0000
  C   C165      1.0  0.57206  0.88251  0.57341  1.0000
  Fe  Fe30      1.0  0.45285  0.81416  0.40073  1.0000
  C   C166      1.0  0.66808  0.64508  0.54037  1.0000
  C   C167      1.0  0.70326  0.67774  0.57941  1.0000
  H   H168      1.0  0.60688  0.63618  0.46024  1.0000
  H   H169      1.0  0.38543  0.65966  0.57829  1.0000
  C   C168      1.0  0.64283  0.95067  0.49683  1.0000
  S   S61       1.0  0.76165  0.93409  0.51881  1.0000
  C   C169      1.0  0.62809  0.90009  0.49712  1.0000
  C   C170      1.0  0.76340  0.72532  0.43653  1.0000
  C   C171      1.0  0.68514  0.58091  0.39894  1.0000
  H   H170      1.0  0.47660  0.56990  0.43659  1.0000
  C   C172      1.0  0.59279  0.86580  0.53598  1.0000
  S   S62       1.0  0.52524  0.81498  0.38702  1.0000
  S   S63       1.0  0.49673  0.68140  0.57703  1.0000
  H   H171      1.0  0.36779  0.56572  0.44497  1.0000
  C   C173      1.0  0.51096  0.92855  0.42252  1.0000
  C   C174      1.0  0.49835  0.55662  0.48185  1.0000
  C   C175      1.0  0.38068  0.53209  0.54995  1.0000
  N   N14       1.0  0.55291  0.57228  0.58453  1.0000
  C   C176      1.0  0.53690  0.97967  0.40832  1.0000
  H   H172      1.0  0.64375  0.88748  0.46710  1.0000
  C   C177      1.0  0.66837  0.74189  0.52080  1.0000
  H   H173      1.0  0.70116  0.92635  0.38198  1.0000
  C   C178      1.0  0.70379  0.72642  0.56891  1.0000
  H   H174      1.0  0.58126  0.82639  0.53638  1.0000
  C   C179      1.0  0.40646  0.54022  0.61324  1.0000
  N   N15       1.0  0.77168  0.77858  0.41310  1.0000
  C   C180      1.0  0.52625  0.58844  0.52593  1.0000
  H   H175      1.0  0.43106  0.92746  0.51409  1.0000
  C   C181      1.0  0.48560  0.99335  0.46867  1.0000
  H   H176      1.0  0.54363  0.85612  0.60241  1.0000
  C   C182      1.0  0.46060  0.94193  0.48469  1.0000
  H   H177      1.0  0.67199  0.60719  0.41089  1.0000
  H   H178      1.0  0.77818  0.71708  0.49092  1.0000
  C   C183      1.0  0.35207  0.66672  0.55295  1.0000
  H   H179      1.0  0.72381  0.70259  0.42966  1.0000
  C   C184      1.0  0.63368  0.66111  0.49108  1.0000
  S   S64       1.0  0.80880  0.84549  0.57452  1.0000
  H   H180      1.0  0.73137  0.75183  0.59818  1.0000
  H   H181      1.0  0.73031  0.66575  0.61708  1.0000
  S   S65       1.0  0.79589  0.49842  0.44304  1.0000
  Fe  Fe31      1.0  0.81788  0.57749  0.38729  1.0000
  H   H182      1.0  0.37678  0.98111  0.59979  1.0000
  Fe  Fe32      1.0  0.77278  0.94099  0.62619  1.0000
  H   H183      1.0  0.78117  0.71297  0.40735  1.0000
  H   H184      1.0  0.40440  0.82925  0.62518  1.0000
  C   C185      1.0  0.43564  0.74974  0.84720  1.0000
  H   H185      1.0  0.39943  0.51088  0.65712  1.0000
  H   H186      1.0  0.61674  0.98989  0.69727  1.0000
  C   C186      1.0  0.33317  0.99496  0.65494  1.0000
  H   H187      1.0  0.35879  0.86602  0.66848  1.0000
  S   S66       1.0  0.50970  0.81756  0.77856  1.0000
  S   S67       1.0  0.74839  0.99222  0.65934  1.0000
  Fe  Fe33      1.0  0.71495  0.55803  0.63849  1.0000
  C   C187      1.0  0.35327  0.82673  0.68422  1.0000
  S   S68       1.0  0.73973  0.85941  0.66292  1.0000
  Fe  Fe34      1.0  0.81599  0.85867  0.67721  1.0000
  C   C188      1.0  0.66406  0.85507  0.80408  1.0000
  Fe  Fe35      1.0  0.47347  0.63570  0.81842  1.0000
  C   C189      1.0  0.59078  0.93731  0.78614  1.0000
  Fe  Fe36      1.0  0.58445  0.68234  0.82167  1.0000
  C   C190      1.0  0.60364  0.91859  0.85416  1.0000
  C   C191      1.0  0.46060  0.79999  0.82287  1.0000
  H   H188      1.0  0.66986  0.71203  0.75216  1.0000
  H   H189      1.0  0.74654  0.76467  0.70556  1.0000
  H   H190      1.0  0.55581  0.59554  0.67239  1.0000
  C   C192      1.0  0.61528  0.50513  0.81184  1.0000
  H   H191      1.0  0.44725  0.72170  0.84046  1.0000
  H   H192      1.0  0.57484  0.51216  0.64629  1.0000
  C   C193      1.0  0.40530  0.82152  0.86655  1.0000
  H   H193      1.0  0.39409  0.84931  0.87439  1.0000
  H   H194      1.0  0.60259  0.80116  0.85126  1.0000
  C   C194      1.0  0.35786  0.55982  0.81430  1.0000
  S   S69       1.0  0.45978  0.69138  0.72708  1.0000
  C   C195      1.0  0.79327  0.74998  0.87172  1.0000
  H   H195      1.0  0.46512  0.87492  0.81553  1.0000
  H   H196      1.0  0.39873  0.56217  0.74150  1.0000
  H   H197      1.0  0.61455  0.60059  0.65663  1.0000
  C   C196      1.0  0.70559  0.70656  0.85527  1.0000
  C   C197      1.0  0.74749  0.75255  0.75928  1.0000
  C   C198      1.0  0.36273  0.55392  0.75270  1.0000
  C   C199      1.0  0.67443  0.99234  0.78241  1.0000
  C   C200      1.0  0.70424  0.72250  0.78565  1.0000
  H   H198      1.0  0.44889  0.99221  0.69130  1.0000
  S   S70       1.0  0.53202  0.69317  0.87054  1.0000
  C   C201      1.0  0.37109  0.75537  0.68137  1.0000
  H   H199      1.0  0.55318  0.92333  0.76192  1.0000
  H   H200      1.0  0.64170  0.87182  0.76318  1.0000
  C   C202      1.0  0.71505  0.87300  0.80833  1.0000
  C   C203      1.0  0.37856  0.80612  0.65977  1.0000
  Fe  Fe37      1.0  0.81721  0.57256  0.71656  1.0000
  Fe  Fe38      1.0  0.51699  0.68133  0.68760  1.0000
  S   S71       1.0  0.57855  0.74267  0.73053  1.0000
  C   C204      1.0  0.32102  0.53695  0.70581  1.0000
  N   N16       1.0  0.33932  0.72597  0.72586  1.0000
  H   H201      1.0  0.39150  0.73986  0.66317  1.0000
  C   C205      1.0  0.64199  0.81500  0.85285  1.0000
  C   C206      1.0  0.79165  0.76772  0.80243  1.0000
  H   H202      1.0  0.37011  0.66953  0.77349  1.0000
  H   H203      1.0  0.46109  0.59174  0.66954  1.0000
  C   C207      1.0  0.44568  0.83596  0.83333  1.0000
  Fe  Fe39      1.0  0.72859  0.51366  0.78798  1.0000
  C   C208      1.0  0.62634  0.97437  0.74991  1.0000
  S   S72       1.0  0.75478  0.59167  0.72882  1.0000
  S   S73       1.0  0.79419  0.49715  0.78323  1.0000
  Fe  Fe40      1.0  0.52121  0.74814  0.77648  1.0000
  S   S74       1.0  0.52665  0.62036  0.77612  1.0000
  H   H204      1.0  0.73206  0.90431  0.77042  1.0000
  N   N17       1.0  0.74309  0.85098  0.85905  1.0000
  C   C209      1.0  0.56624  0.50126  0.80467  1.0000
  H   H205      1.0  0.63429  0.52072  0.76866  1.0000
  C   C210      1.0  0.37537  0.98968  0.64630  1.0000
  H   H206      1.0  0.80655  0.87630  0.81262  1.0000
  C   C211      1.0  0.79645  0.87098  0.86264  1.0000
  H   H207      1.0  0.77470  0.65122  0.85571  1.0000
  C   C212      1.0  0.33409  0.67339  0.74986  1.0000
  H   H208      1.0  0.54745  0.51398  0.75605  1.0000
  N   N18       1.0  0.68683  0.97358  0.84919  1.0000
  H   H209      1.0  0.32490  0.53219  0.65840  1.0000
  S   S75       1.0  0.32080  0.88663  0.85420  1.0000
  S   S76       1.0  0.40981  0.58394  0.87133  1.0000
  C   C213      1.0  0.32077  0.79647  0.72930  1.0000
  C   C214      1.0  0.39558  0.73540  0.88073  1.0000
  H   H210      1.0  0.81178  0.90687  0.87935  1.0000
  C   C215      1.0  0.57862  0.60479  0.63297  1.0000
  H   H211      1.0  0.93925  0.06803  0.07345  1.0000
  N   N19       1.0  0.85381  0.30621  0.01952  1.0000
  C   C216      1.0  0.99926  0.44457  0.91543  1.0000
  S   S77       1.0  0.07582  0.06522  0.10982  1.0000
  H   H212      1.0  0.06848  0.28946  0.97565  1.0000
  C   C217      1.0  0.09263  0.08975  0.90018  1.0000
  H   H213      1.0  0.28995  0.15199  0.99714  1.0000
  C   C218      1.0  0.97172  0.17660  0.10897  1.0000
  C   C219      1.0  0.13405  0.42824  0.98130  1.0000
  C   C220      1.0  0.26813  0.01473  0.08101  1.0000
  H   H214      1.0  0.85856  0.18445  0.97527  1.0000
  C   C221      1.0  0.09200  0.40121  0.01142  1.0000
  S   S78       1.0  0.95432  0.34922  0.89596  1.0000
  C   C222      1.0  0.89024  0.18269  0.01264  1.0000
  C   C223      1.0  0.91149  0.04606  0.03755  1.0000
  C   C224      1.0  0.90094  0.32709  0.04918  1.0000
  S   S79       1.0  0.20383  0.09703  0.06057  1.0000
  H   H215      1.0  0.12983  0.13768  0.97128  1.0000
  H   H216      1.0  0.03382  0.33078  0.02838  1.0000
  C   C225      1.0  0.26522  0.12408  0.09386  1.0000
  H   H217      1.0  0.24889  0.02163  0.91384  1.0000
  H   H218      1.0  0.24312  0.27282  0.07316  1.0000
  C   C226      1.0  0.97019  0.17392  0.04262  1.0000
  C   C227      1.0  0.26855  0.27965  0.11901  1.0000
  H   H219      1.0  0.90627  0.07220  0.98926  1.0000
  H   H220      1.0  0.83968  0.31547  0.91314  1.0000
  C   C228      1.0  0.07926  0.16545  0.89379  1.0000
  H   H221      1.0  0.98041  0.06320  0.96620  1.0000
  S   S80       1.0  0.84212  0.19340  0.09814  1.0000
  Fe  Fe41      1.0  0.07008  0.13928  0.10000  1.0000
  C   C229      1.0  0.30054  0.14939  0.05103  1.0000
  S   S81       1.0  0.01714  0.16493  0.01702  1.0000
  C   C230      1.0  0.25883  0.46353  0.07522  1.0000
  C   C231      1.0  0.12892  0.35670  0.94715  1.0000
  H   H222      1.0  0.97021  0.43633  0.94363  1.0000
  H   H223      1.0  0.07726  0.41899  0.03555  1.0000
  C   C232      1.0  0.06777  0.35142  0.00790  1.0000
  H   H224      1.0  0.87474  0.27541  0.95600  1.0000
  H   H225      1.0  0.30674  0.23330  0.11376  1.0000
  H   H226      1.0  0.11090  0.06303  0.92518  1.0000
  S   S82       1.0  0.28330  0.42460  0.05766  1.0000
  C   C233      1.0  0.08681  0.32856  0.97703  1.0000
  C   C234      1.0  0.10327  0.13164  0.92607  1.0000
  C   C235      1.0  0.91042  0.34685  0.10637  1.0000
  H   H227      1.0  0.14265  0.33913  0.92121  1.0000
  C   C236      1.0  0.26827  0.02677  0.96386  1.0000
  H   H228      1.0  0.92785  0.17487  0.94342  1.0000
  C   C237      1.0  0.92946  0.17724  0.99457  1.0000
  C   C238      1.0  0.19416  0.43526  0.91422  1.0000
  N   N20       1.0  0.15190  0.40593  0.94948  1.0000
  C   C239      1.0  0.21713  0.44361  0.10647  1.0000
  H   H229      1.0  0.15155  0.46747  0.98224  1.0000
  C   C240      1.0  0.82346  0.32368  0.10273  1.0000
  H   H230      1.0  0.93152  0.32786  0.02943  1.0000
  S   S83       1.0  0.15044  0.17967  0.10228  1.0000
  N   N21       1.0  0.24393  0.00725  0.01825  1.0000
  C   C241      1.0  0.00005  0.40826  0.88575  1.0000
  C   C242      1.0  0.03601  0.49173  0.90863  1.0000
  Fe  Fe42      1.0  0.15685  0.10482  0.12235  1.0000
  H   H231      1.0  0.21465  0.47139  0.93016  1.0000
  C   C243      1.0  0.84428  0.28680  0.95857  1.0000
  H   H232      1.0  0.87596  0.02867  0.05700  1.0000
  C   C244      1.0  0.89190  0.18577  0.07871  1.0000
  S   S84       1.0  0.08098  0.49139  0.11333  1.0000
  H   H233      1.0  0.08625  0.19757  0.91429  1.0000
  H   H234      1.0  0.24821  0.00119  0.12342  1.0000
  H   H235      1.0  0.22038  0.41512  0.92588  1.0000
  H   H236      1.0  0.19700  0.40405  0.11461  1.0000
  C   C245      1.0  0.96494  0.02422  0.98957  1.0000
  H   H237      1.0  0.17119  0.00715  0.99544  1.0000
  H   H238      1.0  0.05119  0.27016  0.11988  1.0000
  H   H239      1.0  0.31227  0.35178  0.90741  1.0000
  N   N22       1.0  0.92863  0.00909  0.02782  1.0000
  C   C246      1.0  0.31848  0.04102  0.09098  1.0000
  H   H240      1.0  0.01135  0.00163  0.95012  1.0000
  C   C247      1.0  0.93268  0.18287  0.12695  1.0000
  C   C248      1.0  0.20251  0.47463  0.12989  1.0000
  H   H241      1.0  0.94781  0.36260  0.13031  1.0000
  C   C249      1.0  0.31849  0.05371  0.97182  1.0000
  H   H242      1.0  0.98719  0.05389  0.20588  1.0000
  H   H243      1.0  0.25214  0.10037  0.19670  1.0000
  C   C250      1.0  0.08383  0.31682  0.19287  1.0000
  H   H244      1.0  0.12269  0.35469  0.27430  1.0000
  C   C251      1.0  0.93037  0.47687  0.28396  1.0000
  H   H245      1.0  0.85830  0.28519  0.36840  1.0000
  S   S85       1.0  0.16603  0.09425  0.23506  1.0000
  C   C252      1.0  0.15160  0.26687  0.23649  1.0000
  C   C253      1.0  0.28083  0.00413  0.29054  1.0000
  Fe  Fe43      1.0  0.06279  0.42009  0.18942  1.0000
  C   C254      1.0  0.29376  0.35197  0.25183  1.0000
  C   C255      1.0  0.07882  0.21233  0.37759  1.0000
  H   H246      1.0  0.93448  0.18636  0.17766  1.0000
  C   C256      1.0  0.97653  0.07001  0.35442  1.0000
  H   H247      1.0  0.06542  0.24258  0.34570  1.0000
  S   S86       1.0  0.87213  0.13346  0.29203  1.0000
  H   H248      1.0  0.87831  0.35969  0.17815  1.0000
  S   S87       1.0  0.12758  0.44795  0.26558  1.0000
  Fe  Fe44      1.0  0.07804  0.47081  0.30345  1.0000
  C   C257      1.0  0.12119  0.32831  0.24726  1.0000
  C   C258      1.0  0.01041  0.15824  0.31132  1.0000
  H   H249      1.0  0.93947  0.29801  0.35707  1.0000
  C   C259      1.0  0.97120  0.49347  0.33199  1.0000
  N   N23       1.0  0.29766  0.31955  0.21377  1.0000
  H   H250      1.0  0.28260  0.02280  0.23842  1.0000
  Fe  Fe45      1.0  0.84214  0.18433  0.20804  1.0000
  C   C260      1.0  0.84259  0.30966  0.37646  1.0000
  H   H251      1.0  0.94993  0.03362  0.34907  1.0000
  H   H252      1.0  0.98072  0.38723  0.35764  1.0000
  H   H253      1.0  0.26780  0.32958  0.28816  1.0000
  Fe  Fe46      1.0  0.89747  0.19489  0.34902  1.0000
  C   C261      1.0  0.97674  0.11141  0.30285  1.0000
  S   S88       1.0  0.07251  0.13040  0.21037  1.0000
  S   S89       1.0  0.18955  0.23079  0.26666  1.0000
  C   C262      1.0  0.30422  0.25741  0.14196  1.0000
  C   C263      1.0  0.27907  0.12069  0.16343  1.0000
  S   S90       1.0  0.04023  0.34636  0.16199  1.0000
  H   H254      1.0  0.18298  0.31136  0.31230  1.0000
  H   H255      1.0  0.18669  0.01361  0.33612  1.0000
  H   H256      1.0  0.01023  0.19043  0.27127  1.0000
  H   H257      1.0  0.17050  0.45899  0.15434  1.0000
  H   H258      1.0  0.91041  0.43743  0.28743  1.0000
  H   H259      1.0  0.89894  0.04078  0.17588  1.0000
  S   S91       1.0  0.01198  0.43925  0.23027  1.0000
  C   C264      1.0  0.96120  0.01775  0.22116  1.0000
  H   H260      1.0  0.98229  0.46639  0.37270  1.0000
  C   C265      1.0  0.08046  0.28019  0.16089  1.0000
  C   C266      1.0  0.15519  0.30347  0.26900  1.0000
  S   S92       1.0  0.87196  0.24749  0.26164  1.0000
  C   C267      1.0  0.30677  0.03045  0.34169  1.0000
  N   N24       1.0  0.04304  0.16344  0.36956  1.0000
  H   H261      1.0  0.11253  0.22952  0.15473  1.0000
  H   H262      1.0  0.95084  0.10726  0.25672  1.0000
  C   C268      1.0  0.26548  0.31043  0.15612  1.0000
  C   C269      1.0  0.91112  0.01009  0.20354  1.0000
  Fe  Fe47      1.0  0.08400  0.05920  0.22096  1.0000
  C   C270      1.0  0.11485  0.25634  0.18148  1.0000
  Fe  Fe48      1.0  0.15350  0.16670  0.21381  1.0000
  H   H263      1.0  0.00341  0.17519  0.14589  1.0000
  H   H264      1.0  0.28045  0.38158  0.21745  1.0000
  H   H265      1.0  0.11391  0.21684  0.36355  1.0000
  C   C271      1.0  0.87140  0.34524  0.13309  1.0000
  H   H266      1.0  0.23703  0.32686  0.13876  1.0000
  H   H267      1.0  0.12364  0.47836  0.57450  1.0000
  C   C272      1.0  0.04971  0.20418  0.60878  1.0000
  H   H268      1.0  0.19019  0.40367  0.42885  1.0000
  S   S93       1.0  0.97126  0.21356  0.41539  1.0000
  H   H269      1.0  0.18272  0.32887  0.50765  1.0000
  Fe  Fe49      1.0  0.84414  0.48960  0.38485  1.0000
  H   H270      1.0  0.06505  0.26817  0.48240  1.0000
  C   C273      1.0  0.01073  0.07564  0.41291  1.0000
  H   H271      1.0  0.24599  0.45157  0.45440  1.0000
  S   S94       1.0  0.07719  0.44275  0.41449  1.0000
  C   C274      1.0  0.97575  0.31075  0.38456  1.0000
  C   C275      1.0  0.87274  0.35129  0.40409  1.0000
  C   C276      1.0  0.19706  0.34876  0.54859  1.0000
  C   C277      1.0  0.99942  0.27691  0.41885  1.0000
  C   C278      1.0  0.04641  0.29399  0.45556  1.0000
  C   C279      1.0  0.18389  0.00117  0.38931  1.0000
  C   C280      1.0  0.98054  0.34990  0.56237  1.0000
  H   H272      1.0  0.18774  0.28146  0.62521  1.0000
  H   H273      1.0  0.23864  0.03680  0.53841  1.0000
  H   H274      1.0  0.91177  0.35941  0.41611  1.0000
  C   C281      1.0  0.21556  0.03123  0.43409  1.0000
  H   H275      1.0  0.02643  0.26128  0.61751  1.0000
  C   C282      1.0  0.23040  0.42439  0.58746  1.0000
  H   H276      1.0  0.07083  0.12684  0.46479  1.0000
  H   H277      1.0  0.84640  0.03220  0.48689  1.0000
  C   C283      1.0  0.04637  0.37862  0.42046  1.0000
  H   H278      1.0  0.18696  0.45229  0.45983  1.0000
  H   H279      1.0  0.85982  0.47191  0.59375  1.0000
  N   N25       1.0  0.21196  0.39951  0.53564  1.0000
  H   H280      1.0  0.82501  0.35244  0.55374  1.0000
  C   C284      1.0  0.95376  0.38052  0.55508  1.0000
  H   H281      1.0  0.01124  0.04384  0.45334  1.0000
  N   N26       1.0  0.89669  0.09622  0.52404  1.0000
  C   C285      1.0  0.06972  0.34473  0.45660  1.0000
  C   C286      1.0  0.04417  0.12283  0.41939  1.0000
  H   H282      1.0  0.24224  0.06672  0.41549  1.0000
  S   S95       1.0  0.85304  0.26663  0.60381  1.0000
  H   H283      1.0  0.08501  0.21637  0.43059  1.0000
  C   C287      1.0  0.99924  0.36142  0.38497  1.0000
  H   H284      1.0  0.30849  0.25015  0.59496  1.0000
  C   C288      1.0  0.20863  0.42801  0.46615  1.0000
  H   H285      1.0  0.10602  0.35776  0.48423  1.0000
  C   C289      1.0  0.02925  0.44861  0.57131  1.0000
  S   S96       1.0  0.88929  0.44130  0.43254  1.0000
  C   C290      1.0  0.85131  0.06182  0.51131  1.0000
  S   S97       1.0  0.82826  0.16554  0.39349  1.0000
  H   H286      1.0  0.97368  0.11975  0.52196  1.0000
  C   C291      1.0  0.93843  0.09199  0.50483  1.0000
  H   H287      1.0  0.91411  0.36585  0.54524  1.0000
  C   C292      1.0  0.19964  0.32166  0.61498  1.0000
  H   H288      1.0  0.95768  0.45436  0.55413  1.0000
  C   C293      1.0  0.85233  0.38345  0.41314  1.0000
  S   S98       1.0  0.07324  0.12834  0.59942  1.0000
  C   C294      1.0  0.97816  0.43009  0.56012  1.0000
  H   H289      1.0  0.96166  0.31138  0.55808  1.0000
  C   C295      1.0  0.90260  0.13490  0.55205  1.0000
  H   H290      1.0  0.02249  0.19509  0.56543  1.0000
  C   C296      1.0  0.03165  0.36934  0.57588  1.0000
  N   N27       1.0  0.05531  0.41829  0.57889  1.0000
  C   C297      1.0  0.30531  0.00656  0.40920  1.0000
  C   C298      1.0  0.30800  0.17569  0.60913  1.0000
  H   H291      1.0  0.05253  0.34546  0.58293  1.0000
  H   H292      1.0  0.93385  0.09819  0.44910  1.0000
  H   H293      1.0  0.12470  0.42081  0.56730  1.0000
  C   C299      1.0  0.21387  0.01426  0.50303  1.0000
  H   H294      1.0  0.94081  0.05444  0.52729  1.0000
  H   H295      1.0  0.04779  0.48742  0.57341  1.0000
  C   C300      1.0  0.86250  0.13908  0.56969  1.0000
  H   H296      1.0  0.93811  0.16336  0.55956  1.0000
  H   H297      1.0  0.27131  0.15798  0.62228  1.0000
  H   H298      1.0  0.86699  0.16998  0.59129  1.0000
  C   C301      1.0  0.10887  0.43754  0.59322  1.0000
  H   H299      1.0  0.24391  0.46466  0.57703  1.0000
  N   N28       1.0  0.84279  0.39375  0.63021  1.0000
  H   H300      1.0  0.31951  0.10679  0.62372  1.0000
  H   H301      1.0  0.82250  0.41363  0.52392  1.0000
  H   H302      1.0  0.22814  0.10072  0.85879  1.0000
  C   C302      1.0  0.23288  0.39846  0.65441  1.0000
  C   C303      1.0  0.29092  0.22411  0.81415  1.0000
  H   H303      1.0  0.90197  0.49276  0.70441  1.0000
  H   H304      1.0  0.29878  0.01027  0.72125  1.0000
  H   H305      1.0  0.01174  0.09233  0.71623  1.0000
  C   C304      1.0  0.05237  0.24214  0.63779  1.0000
  S   S99       1.0  0.29081  0.28200  0.81685  1.0000
  H   H306      1.0  0.82829  0.31807  0.67995  1.0000
  Fe  Fe50      1.0  0.19254  0.04402  0.74181  1.0000
  S   S100      1.0  0.88718  0.23685  0.80348  1.0000
  Fe  Fe51      1.0  0.93751  0.19436  0.81887  1.0000
  H   H307      1.0  0.14308  0.17052  0.71168  1.0000
  S   S101      1.0  0.00335  0.25463  0.85717  1.0000
  S   S102      1.0  0.27395  0.07738  0.77089  1.0000
  H   H308      1.0  0.14937  0.23951  0.76161  1.0000
  H   H309      1.0  0.24708  0.41859  0.69516  1.0000
  C   C305      1.0  0.89006  0.41664  0.75503  1.0000
  C   C306      1.0  0.86664  0.02986  0.80229  1.0000
  Fe  Fe52      1.0  0.01534  0.28389  0.74979  1.0000
  H   H310      1.0  0.23221  0.18207  0.87250  1.0000
  H   H311      1.0  0.99372  0.14215  0.71870  1.0000
  S   S103      1.0  0.97066  0.33314  0.72632  1.0000
  C   C307      1.0  0.25437  0.13443  0.83574  1.0000
  H   H312      1.0  0.18175  0.44265  0.85900  1.0000
  C   C308      1.0  0.84550  0.35648  0.68484  1.0000
  S   S104      1.0  0.15606  0.04822  0.63399  1.0000
  S   S105      1.0  0.14201  0.07093  0.77155  1.0000
  Fe  Fe53      1.0  0.10303  0.07026  0.66615  1.0000
  N   N29       1.0  0.03569  0.11638  0.80965  1.0000
  C   C309      1.0  0.07535  0.46564  0.84496  1.0000
  H   H313      1.0  0.21903  0.32610  0.71996  1.0000
  H   H314      1.0  0.87051  0.33757  0.79129  1.0000
  C   C310      1.0  0.83783  0.09951  0.76138  1.0000
  H   H315      1.0  0.89274  0.01330  0.83456  1.0000
  C   C311      1.0  0.86909  0.36730  0.74799  1.0000
  C   C312      1.0  0.82883  0.00337  0.75802  1.0000
  C   C313      1.0  0.11771  0.19037  0.69111  1.0000
  C   C314      1.0  0.21731  0.34673  0.66819  1.0000
  C   C315      1.0  0.28483  0.13234  0.79636  1.0000
  Fe  Fe54      1.0  0.90671  0.26704  0.69932  1.0000
  H   H316      1.0  0.04940  0.04959  0.82226  1.0000
  Fe  Fe55      1.0  0.95457  0.29997  0.83194  1.0000
  H   H317      1.0  0.84140  0.13683  0.76200  1.0000
  C   C316      1.0  0.04536  0.15715  0.83534  1.0000
  H   H318      1.0  0.12120  0.42875  0.64840  1.0000
  S   S106      1.0  0.95294  0.22106  0.71313  1.0000
  S   S107      1.0  0.92163  0.11209  0.85480  1.0000
  C   C317      1.0  0.87181  0.07839  0.80291  1.0000
  C   C318      1.0  0.99940  0.10736  0.74913  1.0000
  C   C319      1.0  0.88686  0.45443  0.69914  1.0000
  H   H319      1.0  0.10647  0.47223  0.82222  1.0000
  C   C320      1.0  0.05809  0.08243  0.84194  1.0000
  H   H320      1.0  0.04014  0.39043  0.82986  1.0000
  C   C321      1.0  0.08856  0.25538  0.69240  1.0000
  C   C322      1.0  0.03823  0.41885  0.85062  1.0000
  C   C323      1.0  0.25711  0.18039  0.84422  1.0000
  S   S108      1.0  0.09085  0.30281  0.72822  1.0000
  C   C324      1.0  0.12149  0.22966  0.71895  1.0000
  H   H321      1.0  0.96387  0.08053  0.76379  1.0000
  H   H322      1.0  0.90837  0.42553  0.80384  1.0000
  H   H323      1.0  0.02677  0.18342  0.81081  1.0000
  C   C325      1.0  0.08171  0.17769  0.63591  1.0000
  C   C326      1.0  0.86301  0.44231  0.63663  1.0000
  H   H324      1.0  0.21288  0.64822  0.91673  1.0000
  C   C327      1.0  0.96850  0.68165  0.05781  1.0000
  C   C328      1.0  0.84023  0.55931  0.95791  1.0000
  C   C329      1.0  0.20485  0.70191  0.08017  1.0000
  H   H325      1.0  0.88204  0.94850  0.09075  1.0000
  N   N30       1.0  0.01511  0.73379  0.90601  1.0000
  H   H326      1.0  0.13082  0.58925  0.99648  1.0000
  S   S109      1.0  0.01313  0.76514  0.11024  1.0000
  C   C330      1.0  0.12301  0.83755  0.99362  1.0000
  C   C331      1.0  0.19107  0.98050  0.00858  1.0000
  C   C332      1.0  0.85011  0.71324  0.03732  1.0000
  S   S110      1.0  0.98277  0.54798  0.09256  1.0000
  H   H327      1.0  0.26283  0.64435  0.98433  1.0000
  N   N31       1.0  0.19990  0.64639  0.01267  1.0000
  C   C333      1.0  0.98266  0.98982  0.98042  1.0000
  H   H328      1.0  0.20891  0.59070  0.97708  1.0000
  C   C334      1.0  0.96201  0.63336  0.05406  1.0000
  H   H329      1.0  0.03484  0.51979  0.93096  1.0000
  H   H330      1.0  0.87315  0.73634  0.99959  1.0000
  S   S111      1.0  0.16080  0.80220  0.03013  1.0000
  Fe  Fe56      1.0  0.21794  0.83119  0.96335  1.0000
  C   C335      1.0  0.84390  0.66265  0.05825  1.0000
  H   H331      1.0  0.86166  0.64670  0.03610  1.0000
  H   H332      1.0  0.18011  0.95934  0.96780  1.0000
  C   C336      1.0  0.12928  0.63491  0.05871  1.0000
  C   C337      1.0  0.15180  0.62095  0.01999  1.0000
  Fe  Fe57      1.0  0.29410  0.80958  0.91522  1.0000
  C   C338      1.0  0.85851  0.59359  0.90146  1.0000
  C   C339      1.0  0.05302  0.71717  0.95388  1.0000
  C   C340      1.0  0.08265  0.89186  0.00110  1.0000
  S   S112      1.0  0.29433  0.83416  0.00698  1.0000
  H   H333      1.0  0.13937  0.68733  0.11900  1.0000
  H   H334      1.0  0.08735  0.73188  0.93180  1.0000
  C   C341      1.0  0.22231  0.63179  0.97057  1.0000
  H   H335      1.0  0.12439  0.83315  0.89302  1.0000
  H   H336      1.0  0.97688  0.91293  0.00423  1.0000
  H   H337      1.0  0.04055  0.67598  0.96733  1.0000
  C   C342      1.0  0.96335  0.93991  0.01110  1.0000
  H   H338      1.0  0.07299  0.90987  0.03124  1.0000
  S   S113      1.0  0.24012  0.91038  0.90635  1.0000
  H   H339      1.0  0.06199  0.73077  0.00145  1.0000
  H   H340      1.0  0.01557  0.78303  0.96357  1.0000
  C   C343      1.0  0.11249  0.84912  0.92340  1.0000
  C   C344      1.0  0.28525  0.51457  0.06607  1.0000
  H   H341      1.0  0.91189  0.88627  0.07541  1.0000
  H   H342      1.0  0.93231  0.61453  0.01923  1.0000
  H   H343      1.0  0.82717  0.76248  0.90496  1.0000
  H   H344      1.0  0.89038  0.59372  0.88548  1.0000
  C   C345      1.0  0.00630  0.70574  0.10384  1.0000
  C   C346      1.0  0.82754  0.73406  0.06645  1.0000
  C   C347      1.0  0.07538  0.90597  0.93081  1.0000
  Fe  Fe58      1.0  0.31673  0.91078  0.94414  1.0000
  C   C348      1.0  0.00032  0.76836  0.91781  1.0000
  C   C349      1.0  0.08727  0.88210  0.89222  1.0000
  H   H345      1.0  0.09144  0.61399  0.06544  1.0000
  H   H346      1.0  0.31779  0.53007  0.04223  1.0000
  H   H347      1.0  0.31281  0.91218  0.10429  1.0000
  H   H348      1.0  0.22583  0.73384  0.10324  1.0000
  C   C350      1.0  0.10645  0.85736  0.03259  1.0000
  H   H349      1.0  0.26426  0.70719  0.03530  1.0000
  H   H350      1.0  0.17943  0.95322  0.05519  1.0000
  C   C351      1.0  0.15612  0.67569  0.08897  1.0000
  H   H351      1.0  0.94408  0.70019  0.02541  1.0000
  C   C352      1.0  0.22631  0.68669  0.04163  1.0000
  C   C353      1.0  0.91003  0.96034  0.05913  1.0000
  C   C354      1.0  0.92690  0.92499  0.05094  1.0000
  H   H352      1.0  0.11439  0.84826  0.08694  1.0000
  C   C355      1.0  0.99356  0.60930  0.09597  1.0000
  H   H353      1.0  0.85825  0.53312  0.98695  1.0000
  H   H354      1.0  0.29343  0.58427  0.08696  1.0000
  C   C356      1.0  0.27151  0.54527  0.09137  1.0000
  S   S114      1.0  0.83355  0.79683  0.03939  1.0000
  C   C357      1.0  0.23045  0.52526  0.12405  1.0000
  S   S115      1.0  0.06015  0.95894  0.89047  1.0000
  H   H355      1.0  0.05639  0.61581  0.17329  1.0000
  H   H356      1.0  0.92760  0.58899  0.19131  1.0000
  Fe  Fe59      1.0  0.07448  0.79673  0.34368  1.0000
  H   H357      1.0  0.89258  0.65272  0.21662  1.0000
  C   C358      1.0  0.91462  0.51147  0.23314  1.0000
  C   C359      1.0  0.31938  0.53195  0.31958  1.0000
  C   C360      1.0  0.25357  0.68444  0.24789  1.0000
  H   H358      1.0  0.07916  0.91359  0.37320  1.0000
  H   H359      1.0  0.88283  0.49931  0.19572  1.0000
  C   C361      1.0  0.97738  0.97889  0.25931  1.0000
  Fe  Fe60      1.0  0.14254  0.52066  0.19269  1.0000
  H   H360      1.0  0.99977  0.61670  0.27758  1.0000
  C   C362      1.0  0.25238  0.95398  0.30673  1.0000
  C   C363      1.0  0.89944  0.79097  0.29568  1.0000
  C   C364      1.0  0.89281  0.92338  0.25672  1.0000
  C   C365      1.0  0.03196  0.63395  0.14093  1.0000
  H   H361      1.0  0.86641  0.88694  0.27033  1.0000
  H   H362      1.0  0.91954  0.70440  0.15277  1.0000
  S   S116      1.0  0.21541  0.56357  0.15901  1.0000
  H   H363      1.0  0.05919  0.59909  0.36784  1.0000
  N   N32       1.0  0.99570  0.54312  0.32929  1.0000
  S   S117      1.0  0.15342  0.80302  0.37160  1.0000
  Fe  Fe61      1.0  0.13108  0.73947  0.32023  1.0000
  H   H364      1.0  0.30197  0.80113  0.27986  1.0000
  C   C366      1.0  0.20714  0.69432  0.31953  1.0000
  C   C367      1.0  0.23844  0.74359  0.31741  1.0000
  H   H365      1.0  0.27969  0.88820  0.17418  1.0000
  H   H366      1.0  0.31758  0.91483  0.27689  1.0000
  C   C368      1.0  0.28449  0.73386  0.24533  1.0000
  Fe  Fe62      1.0  0.16160  0.85092  0.26823  1.0000
  C   C369      1.0  0.03817  0.68196  0.14519  1.0000
  S   S118      1.0  0.14565  0.78767  0.21885  1.0000
  H   H367      1.0  0.25879  0.66194  0.21972  1.0000
  S   S119      1.0  0.05183  0.72936  0.29992  1.0000
  S   S120      1.0  0.09952  0.54737  0.23816  1.0000
  C   C370      1.0  0.94301  0.93185  0.27836  1.0000
  H   H368      1.0  0.11973  0.94426  0.31202  1.0000
  C   C371      1.0  0.21528  0.66434  0.28613  1.0000
  H   H369      1.0  0.23168  0.76696  0.34244  1.0000
  S   S121      1.0  0.04019  0.98867  0.28331  1.0000
  N   N33       1.0  0.91261  0.72491  0.23763  1.0000
  S   S122      1.0  0.87116  0.56992  0.33526  1.0000
  Fe  Fe63      1.0  0.03652  0.51383  0.16178  1.0000
  C   C372      1.0  0.31502  0.89451  0.15879  1.0000
  H   H370      1.0  0.95529  0.90206  0.30952  1.0000
  H   H371      1.0  0.06780  0.70061  0.18033  1.0000
  C   C373      1.0  0.27786  0.76303  0.28158  1.0000
  C   C374      1.0  0.86490  0.74330  0.29704  1.0000
  H   H372      1.0  0.96748  0.84251  0.26276  1.0000
  C   C375      1.0  0.92064  0.69029  0.20789  1.0000
  H   H373      1.0  0.89507  0.81617  0.32020  1.0000
  H   H374      1.0  0.29602  0.59276  0.26138  1.0000
  H   H375      1.0  0.95688  0.68672  0.22947  1.0000
  C   C376      1.0  0.87691  0.96258  0.21926  1.0000
  H   H376      1.0  0.19076  0.62646  0.28721  1.0000
  C   C377      1.0  0.94005  0.80570  0.26365  1.0000
  S   S123      1.0  0.22223  0.92265  0.24050  1.0000
  H   H377      1.0  0.28365  0.50910  0.33361  1.0000
  C   C378      1.0  0.93972  0.56201  0.23091  1.0000
  S   S124      1.0  0.08410  0.84937  0.24392  1.0000
  H   H378      1.0  0.83314  0.73124  0.32180  1.0000
  C   C379      1.0  0.98044  0.57733  0.27971  1.0000
  H   H379      1.0  0.97709  0.78386  0.20869  1.0000
  C   C380      1.0  0.87237  0.71035  0.26827  1.0000
  H   H380      1.0  0.84605  0.67294  0.27153  1.0000
  C   C381      1.0  0.94574  0.77212  0.23402  1.0000
  Fe  Fe64      1.0  0.06750  0.78239  0.20226  1.0000
  S   S125      1.0  0.15504  0.67373  0.35755  1.0000
  H   H381      1.0  0.12713  0.89095  0.37402  1.0000
  C   C382      1.0  0.11773  0.92472  0.36549  1.0000
  C   C383      1.0  0.25001  0.93019  0.37436  1.0000
  H   H382      1.0  0.31868  0.85779  0.16570  1.0000
  H   H383      1.0  0.91958  0.63872  0.41106  1.0000
  C   C384      1.0  0.92632  0.67373  0.42289  1.0000
  C   C385      1.0  0.03672  0.55930  0.38233  1.0000
  C   C386      1.0  0.97121  0.71181  0.41499  1.0000
  H   H384      1.0  0.30146  0.98982  0.61581  1.0000
  C   C387      1.0  0.82744  0.86270  0.39298  1.0000
  H   H385      1.0  0.00235  0.67285  0.56419  1.0000
  S   S126      1.0  0.83042  0.63830  0.44055  1.0000
  C   C388      1.0  0.94506  0.91903  0.57316  1.0000
  C   C389      1.0  0.98066  0.75750  0.43043  1.0000
  H   H386      1.0  0.95390  0.79855  0.47275  1.0000
  C   C390      1.0  0.26545  0.63725  0.51275  1.0000
  H   H387      1.0  0.99857  0.70547  0.39766  1.0000
  C   C391      1.0  0.94616  0.76374  0.45857  1.0000
  S   S127      1.0  0.00574  0.56315  0.55927  1.0000
  C   C392      1.0  0.08520  0.70674  0.51173  1.0000
  N   N34       1.0  0.15059  0.95614  0.41246  1.0000
  H   H388      1.0  0.27541  0.93792  0.47783  1.0000
  H   H389      1.0  0.87389  0.73032  0.48698  1.0000
  H   H390      1.0  0.27592  0.77950  0.46099  1.0000
  H   H391      1.0  0.06151  0.53773  0.39239  1.0000
  C   C393      1.0  0.18043  0.96787  0.52627  1.0000
  C   C394      1.0  0.10160  0.77609  0.56453  1.0000
  H   H392      1.0  0.23373  0.69387  0.46628  1.0000
  C   C395      1.0  0.31279  0.77638  0.47023  1.0000
  C   C396      1.0  0.97204  0.57243  0.60916  1.0000
  H   H393      1.0  0.87387  0.60693  0.59391  1.0000
  C   C397      1.0  0.97145  0.94378  0.46414  1.0000
  S   S128      1.0  0.15147  0.60733  0.56905  1.0000
  Fe  Fe65      1.0  0.83633  0.92827  0.54309  1.0000
  H   H394      1.0  0.12405  0.70927  0.52803  1.0000
  H   H395      1.0  0.86465  0.88891  0.39476  1.0000
  H   H396      1.0  0.06239  0.66682  0.51575  1.0000
  H   H397      1.0  0.04070  0.93785  0.46350  1.0000
  S   S129      1.0  0.03517  0.80678  0.41447  1.0000
  S   S130      1.0  0.07989  0.91301  0.60445  1.0000
  H   H398      1.0  0.25992  0.84427  0.54244  1.0000
  S   S131      1.0  0.89021  0.96270  0.47029  1.0000
  H   H399      1.0  0.91920  0.91483  0.60421  1.0000
  H   H400      1.0  0.12185  0.90360  0.49800  1.0000
  N   N35       1.0  0.07129  0.73033  0.55279  1.0000
  C   C398      1.0  0.01287  0.73132  0.61280  1.0000
  H   H401      1.0  0.08063  0.72568  0.45820  1.0000
  C   C399      1.0  0.93828  0.93951  0.50428  1.0000
  H   H402      1.0  0.23110  0.60695  0.50585  1.0000
  C   C400      1.0  0.26730  0.68653  0.48975  1.0000
  C   C401      1.0  0.22329  0.78477  0.61837  1.0000
  H   H403      1.0  0.91397  0.58053  0.52787  1.0000
  H   H404      1.0  0.25678  0.91049  0.58951  1.0000
  N   N36       1.0  0.31074  0.72489  0.49707  1.0000
  C   C402      1.0  0.24285  0.83461  0.58675  1.0000
  C   C403      1.0  0.89028  0.68114  0.44563  1.0000
  C   C404      1.0  0.14856  0.93926  0.47990  1.0000
  C   C405      1.0  0.27654  0.95651  0.42567  1.0000
  H   H405      1.0  0.84938  0.79897  0.43406  1.0000
  H   H406      1.0  0.96570  0.95835  0.41056  1.0000
  H   H407      1.0  0.17874  0.95424  0.57984  1.0000
  C   C406      1.0  0.08877  0.80015  0.60193  1.0000
  C   C407      1.0  0.02728  0.70803  0.57603  1.0000
  C   C408      1.0  0.01363  0.93168  0.49399  1.0000
  C   C409      1.0  0.98707  0.90689  0.60294  1.0000
  C   C410      1.0  0.90095  0.72536  0.46643  1.0000
  H   H408      1.0  0.02253  0.55372  0.42941  1.0000
  H   H409      1.0  0.13552  0.79457  0.54386  1.0000
  C   C411      1.0  0.02224  0.91506  0.56383  1.0000
  S   S132      1.0  0.22779  0.73837  0.58763  1.0000
  C   C412      1.0  0.92878  0.58228  0.58013  1.0000
  C   C413      1.0  0.24092  0.87203  0.61310  1.0000
  C   C414      1.0  0.90594  0.59703  0.61766  1.0000
  H   H410      1.0  0.11321  0.83622  0.61172  1.0000
  C   C415      1.0  0.30814  0.62739  0.54477  1.0000
  H   H411      1.0  0.30721  0.58936  0.56273  1.0000
  H   H412      1.0  0.22882  0.89137  0.38722  1.0000
  Fe  Fe66      1.0  0.08268  0.58135  0.61339  1.0000
  C   C416      1.0  0.04392  0.77784  0.62564  1.0000
  H   H413      1.0  0.97739  0.71374  0.62970  1.0000
  H   H414      1.0  0.31026  0.65469  0.78959  1.0000
  Fe  Fe67      1.0  0.10754  0.96995  0.66892  1.0000
  H   H415      1.0  0.18018  0.79986  0.74367  1.0000
  H   H416      1.0  0.02269  0.56454  0.70073  1.0000
  C   C417      1.0  0.96831  0.58994  0.71416  1.0000
  S   S133      1.0  0.89699  0.61842  0.73259  1.0000
  C   C418      1.0  0.26953  0.53219  0.78191  1.0000
  H   H417      1.0  0.03314  0.79719  0.65275  1.0000
  S   S134      1.0  0.21497  0.79920  0.87704  1.0000
  C   C419      1.0  0.20065  0.77227  0.67494  1.0000
  Fe  Fe68      1.0  0.09573  0.99073  0.79664  1.0000
  H   H418      1.0  0.23361  0.52427  0.79315  1.0000
  S   S135      1.0  0.11055  0.64040  0.67428  1.0000
  S   S136      1.0  0.84359  0.81327  0.77126  1.0000
  Fe  Fe69      1.0  0.13590  0.58439  0.75558  1.0000
  H   H419      1.0  0.99339  0.89343  0.65686  1.0000
  C   C420      1.0  0.92582  0.60118  0.68459  1.0000
  C   C421      1.0  0.99575  0.71545  0.84827  1.0000
  H   H420      1.0  0.98327  0.59189  0.76635  1.0000
  H   H421      1.0  0.30127  0.81210  0.74932  1.0000
  C   C422      1.0  0.99086  0.57478  0.67683  1.0000
  S   S137      1.0  0.22375  0.51513  0.65553  1.0000
  S   S138      1.0  0.20990  0.61374  0.72386  1.0000
  C   C423      1.0  0.83536  0.62748  0.86533  1.0000
  S   S139      1.0  0.84994  0.94143  0.64788  1.0000
  S   S140      1.0  0.11904  0.56231  0.86156  1.0000
  H   H422      1.0  0.28838  0.72267  0.78424  1.0000
  S   S141      1.0  0.14935  0.96379  0.77375  1.0000
  C   C424      1.0  0.22002  0.85957  0.67138  1.0000
  H   H423      1.0  0.00720  0.68784  0.83896  1.0000
  Fe  Fe70      1.0  0.17727  0.55716  0.65909  1.0000
  H   H424      1.0  0.84906  0.65406  0.82106  1.0000
  H   H425      1.0  0.82574  0.96646  0.75649  1.0000
  Fe  Fe71      1.0  0.24202  0.87870  0.82182  1.0000
  H   H426      1.0  0.91980  0.78133  0.77411  1.0000
  C   C425      1.0  0.27457  0.52791  0.71927  1.0000
  S   S142      1.0  0.10509  0.52481  0.69538  1.0000
  S   S143      1.0  0.22388  0.90591  0.71051  1.0000
  C   C426      1.0  0.96108  0.73214  0.80016  1.0000
  C   C427      1.0  0.31113  0.54746  0.82981  1.0000
  C   C428      1.0  0.19879  0.80967  0.70109  1.0000
  C   C429      1.0  0.94622  0.76770  0.81145  1.0000
  H   H427      1.0  0.07800  0.88999  0.83806  1.0000
  S   S144      1.0  0.05186  0.99259  0.69375  1.0000
  Fe  Fe72      1.0  0.18115  0.66275  0.63564  1.0000
  H   H428      1.0  0.18531  0.73384  0.69930  1.0000
  H   H429      1.0  0.94587  0.71771  0.75428  1.0000
  C   C430      1.0  0.07374  0.50270  0.87226  1.0000
  C   C431      1.0  0.31353  0.74572  0.74881  1.0000
  H   H430      1.0  0.31863  0.65343  0.70750  1.0000
  H   H431      1.0  0.30722  0.55146  0.87787  1.0000
  C   C432      1.0  0.96566  0.78580  0.87076  1.0000
  H   H432      1.0  0.95425  0.81351  0.87991  1.0000
