data_image0
_chemical_formula_structural       FeCH3SC3H2C2H5SHC2H3SHS3HFeHCHFeCFeCSC3SCHFeHC7SHFeHSHNHCNHFeH3SH4C2HC2HNSCH3C2HCFeCHS2C2HCH3CH2C2FeNSC4SC4H3SH2CHFeHCFeHSFeHCS2H3SFeHSC2HC3HFeS2CHNSC2H2CHCS3CNHCSHCHCHSC2HSHSC3S2FeCH2C2FeSCFeHCFeHCNFeHCH3CHSCH2FeHFeCHC2S2CH3SHSHS2C3H3C2H3CH2SH2C3HC6NC3HSHNH2C6FeCH2C2SHC2SCHCH3FeH3CH2C2H3FeCHSC5H3C2HCHSHC2HCH3FeHC2SCHFeSFeCH2CSFeSHSHCSH3C2HCFeC2S2HNH3CHCSHSH4CHCHCHNCH2CH2CNSC3HC4HCH5C3HCHS2HNCNHCH3C2HCH2SHSH2C2SHCSHCFe2C3HSH3CHSCHC3SFeHCH2CFeSH2FeC2HSHNCHC5HCSCH2SHSCNCNFe2HSHFeH5SC2HNHC6H3SCFeHC2H3SH2CH2C6HCH2CHS2C2SCHCHCH2C3H3CNCSH4SC2HC2FeHFeH2SCHCSCSHCH2CNHNC2H4CHSC3HCH2CFeC3HCHFe2C6SC2H3SHFeH2CH3SHSCHCH2SHCH2SHSFeH2CH2NSCH2CHCHC2HCH2CH3C2HC4HC2H2C2H4CH2C2FeS2HC6HCNC3H3C2H5CH2FeH2SHCH2C2SCS2HCSC2HSCFeCHSCHCHC2SCFeC3HSH2FeHC2NH5C5NFeNHC2HFeCHSFeSC3HC3H2FeCFeSHSH3C2SHCH2SFeC3H4CH2CHNCH3CHCHFeC3S2CNC2H2C2SHCFeH2CHSH3CNCSHC2Fe2CSC3H2SHSC2HC2SH3CNH2SCH4CHCSHCSCH3C2SCH3C5H3NHSCFe2SHFeHCHFeCHCHCSCHC2H2C2SHSCHCHS2H2FeCH4CH3C3NC2H2SC3H3FeHNHC3HCHSNC2SHC2FeCHSC3HCSCHC2NHFeHCHC2FeH2CSC2HFeHFeCH3SCH2CHC2H2SHC2FeSCFeC4SFeC6SC2H2CSH2SHSHS2H4CSC4H2C2NCHC2H2CHC3HC2H3NFeHC2SC2H2CSNH5C2H2C2S2HCFeCH2CHC2HSHCH2C3NH2NCSCH3CFeHS2C2SFeSHCHS2C5HCFeH2CFeC
_chemical_formula_sum              "Fe80 C480 H480 S160 N40"
_cell_length_a       26.2665
_cell_length_b       32.749
_cell_length_c       22.3758
_cell_angle_alpha    107.51
_cell_angle_beta     86.4545
_cell_angle_gamma    89.4303

_space_group_name_H-M_alt    "P 1"
_space_group_IT_number       1

loop_
  _space_group_symop_operation_xyz
  'x, y, z'

loop_
  _atom_site_type_symbol
  _atom_site_label
  _atom_site_symmetry_multiplicity
  _atom_site_fract_x
  _atom_site_fract_y
  _atom_site_fract_z
  _atom_site_occupancy
  Fe  Fe1       1.0  0.30017  0.76120  0.03312  1.0000
  C   C1        1.0  0.52513  0.41952  0.94356  1.0000
  H   H1        1.0  0.57228  0.35569  0.09791  1.0000
  H   H2        1.0  0.24143  0.37160  0.04262  1.0000
  H   H3        1.0  0.13429  0.70251  0.00168  1.0000
  S   S1        1.0  0.28670  0.78673  0.95268  1.0000
  C   C2        1.0  0.21208  0.36981  0.95416  1.0000
  C   C3        1.0  0.57839  0.39547  0.01107  1.0000
  C   C4        1.0  0.09487  0.61345  0.03720  1.0000
  H   H4        1.0  0.40966  0.73605  0.02189  1.0000
  H   H5        1.0  0.56377  0.68129  0.92126  1.0000
  C   C5        1.0  0.40675  0.49687  0.99890  1.0000
  C   C6        1.0  0.39170  0.52665  0.96936  1.0000
  H   H6        1.0  0.17679  0.45743  0.91443  1.0000
  H   H7        1.0  0.10973  0.58462  0.04479  1.0000
  H   H8        1.0  0.34060  0.33791  0.98408  1.0000
  H   H9        1.0  0.32128  0.41985  0.94267  1.0000
  H   H10       1.0  0.09496  0.34779  0.08590  1.0000
  S   S2        1.0  0.56990  0.52776  0.93100  1.0000
  H   H11       1.0  0.46687  0.34526  0.99931  1.0000
  C   C7        1.0  0.10902  0.67972  0.01263  1.0000
  C   C8        1.0  0.35102  0.51801  0.93022  1.0000
  H   H12       1.0  0.16784  0.51673  0.04981  1.0000
  H   H13       1.0  0.44333  0.62628  0.88660  1.0000
  H   H14       1.0  0.35594  0.51314  0.11455  1.0000
  S   S3        1.0  0.19430  0.63211  0.01380  1.0000
  H   H15       1.0  0.34589  0.68564  0.09711  1.0000
  S   S4        1.0  0.45991  0.50546  0.04383  1.0000
  S   S5        1.0  0.13910  0.81809  0.96510  1.0000
  S   S6        1.0  0.31296  0.69296  0.97306  1.0000
  H   H16       1.0  0.16009  0.62708  0.87776  1.0000
  Fe  Fe2       1.0  0.22880  0.68749  0.98863  1.0000
  H   H17       1.0  0.31499  0.39029  0.10857  1.0000
  C   C9        1.0  0.19124  0.43888  0.94283  1.0000
  H   H18       1.0  0.43338  0.81521  0.89916  1.0000
  Fe  Fe3       1.0  0.29293  0.71740  0.89386  1.0000
  C   C10       1.0  0.47225  0.72122  0.07058  1.0000
  Fe  Fe4       1.0  0.20432  0.77431  0.96976  1.0000
  C   C11       1.0  0.19414  0.39429  0.91812  1.0000
  S   S7        1.0  0.57426  0.57786  0.08194  1.0000
  C   C12       1.0  0.22557  0.43505  0.03664  1.0000
  C   C13       1.0  0.32636  0.47916  0.91977  1.0000
  C   C14       1.0  0.37959  0.45940  0.99182  1.0000
  S   S8        1.0  0.49364  0.61102  0.99776  1.0000
  C   C15       1.0  0.48776  0.39182  0.95299  1.0000
  H   H19       1.0  0.51884  0.43906  0.91312  1.0000
  Fe  Fe5       1.0  0.51457  0.54948  0.01572  1.0000
  H   H20       1.0  0.49228  0.70098  0.02832  1.0000
  C   C16       1.0  0.42572  0.74145  0.06684  1.0000
  C   C17       1.0  0.12837  0.64263  0.02278  1.0000
  C   C18       1.0  0.49631  0.36661  0.99203  1.0000
  C   C19       1.0  0.22757  0.39026  0.01407  1.0000
  C   C20       1.0  0.57052  0.42192  0.97346  1.0000
  C   C21       1.0  0.20579  0.50571  0.02506  1.0000
  C   C22       1.0  0.55154  0.33910  0.05632  1.0000
  S   S9        1.0  0.21725  0.75373  0.05442  1.0000
  H   H21       1.0  0.23819  0.45066  0.08295  1.0000
  Fe  Fe6       1.0  0.55708  0.63819  0.05868  1.0000
  H   H22       1.0  0.28828  0.65563  0.08428  1.0000
  S   S10       1.0  0.20951  0.70715  0.90488  1.0000
  H   H23       1.0  0.15160  0.55947  0.90383  1.0000
  N   N1        1.0  0.54142  0.36830  0.01984  1.0000
  H   H24       1.0  0.23563  0.51780  0.05853  1.0000
  C   C23       1.0  0.33994  0.45019  0.95138  1.0000
  N   N2        1.0  0.20821  0.45879  0.00068  1.0000
  H   H25       1.0  0.21246  0.52041  0.98651  1.0000
  Fe  Fe7       1.0  0.55474  0.59230  0.91901  1.0000
  H   H26       1.0  0.41152  0.55615  0.97624  1.0000
  H   H27       1.0  0.39061  0.43662  0.01547  1.0000
  H   H28       1.0  0.38673  0.74934  0.89455  1.0000
  S   S11       1.0  0.54270  0.81082  0.91007  1.0000
  H   H29       1.0  0.34050  0.54034  0.90562  1.0000
  H   H30       1.0  0.21419  0.33512  0.93545  1.0000
  H   H31       1.0  0.45244  0.38954  0.92990  1.0000
  H   H32       1.0  0.18282  0.37906  0.87102  1.0000
  C   C24       1.0  0.09964  0.82760  0.03433  1.0000
  C   C25       1.0  0.23835  0.71327  0.17417  1.0000
  H   H33       1.0  0.26936  0.51987  0.16739  1.0000
  C   C26       1.0  0.31774  0.72768  0.22043  1.0000
  C   C27       1.0  0.29481  0.76056  0.27061  1.0000
  H   H34       1.0  0.54529  0.58446  0.34649  1.0000
  N   N3        1.0  0.28960  0.70478  0.17284  1.0000
  S   S12       1.0  0.53495  0.33576  0.21018  1.0000
  C   C28       1.0  0.49761  0.67746  0.33218  1.0000
  H   H35       1.0  0.48359  0.53716  0.24832  1.0000
  H   H36       1.0  0.33250  0.64626  0.13693  1.0000
  H   H37       1.0  0.22458  0.79521  0.31041  1.0000
  C   C29       1.0  0.11316  0.47650  0.20003  1.0000
  C   C30       1.0  0.26229  0.39290  0.18783  1.0000
  H   H38       1.0  0.34377  0.49341  0.35900  1.0000
  C   C31       1.0  0.24276  0.76977  0.27185  1.0000
  Fe  Fe8       1.0  0.49751  0.45315  0.30749  1.0000
  C   C32       1.0  0.30861  0.38159  0.15134  1.0000
  H   H39       1.0  0.21569  0.69479  0.13700  1.0000
  S   S13       1.0  0.20457  0.68180  0.34639  1.0000
  S   S14       1.0  0.08955  0.70992  0.26236  1.0000
  C   C33       1.0  0.37641  0.60183  0.28434  1.0000
  C   C34       1.0  0.38830  0.48237  0.17643  1.0000
  H   H40       1.0  0.52724  0.70785  0.26491  1.0000
  C   C35       1.0  0.43541  0.54934  0.33381  1.0000
  H   H41       1.0  0.13853  0.48590  0.33245  1.0000
  H   H42       1.0  0.41077  0.45915  0.25098  1.0000
  H   H43       1.0  0.25373  0.49270  0.25899  1.0000
  C   C36       1.0  0.36140  0.59616  0.34219  1.0000
  H   H44       1.0  0.13484  0.78330  0.34174  1.0000
  H   H45       1.0  0.43259  0.58508  0.20579  1.0000
  C   C37       1.0  0.29203  0.49119  0.23727  1.0000
  C   C38       1.0  0.49338  0.72820  0.12862  1.0000
  Fe  Fe9       1.0  0.17330  0.56761  0.24222  1.0000
  N   N4        1.0  0.33195  0.47620  0.26181  1.0000
  S   S15       1.0  0.23093  0.57949  0.31444  1.0000
  C   C39       1.0  0.29396  0.36202  0.26438  1.0000
  C   C40       1.0  0.34824  0.36209  0.17277  1.0000
  C   C41       1.0  0.11263  0.43222  0.18988  1.0000
  C   C42       1.0  0.42085  0.58086  0.25077  1.0000
  S   S16       1.0  0.34049  0.63607  0.25505  1.0000
  C   C43       1.0  0.25578  0.38462  0.24565  1.0000
  C   C44       1.0  0.54122  0.61136  0.32811  1.0000
  C   C45       1.0  0.34874  0.50110  0.15423  1.0000
  C   C46       1.0  0.42300  0.77767  0.17864  1.0000
  H   H46       1.0  0.35819  0.72038  0.21968  1.0000
  H   H47       1.0  0.55885  0.79971  0.17062  1.0000
  H   H48       1.0  0.15981  0.33614  0.15685  1.0000
  S   S17       1.0  0.44774  0.39800  0.30790  1.0000
  H   H49       1.0  0.28420  0.46801  0.33842  1.0000
  H   H50       1.0  0.17381  0.75311  0.22368  1.0000
  C   C47       1.0  0.44964  0.55368  0.27475  1.0000
  H   H51       1.0  0.32718  0.61224  0.36809  1.0000
  Fe  Fe10      1.0  0.25652  0.63254  0.27760  1.0000
  H   H52       1.0  0.34267  0.43680  0.32018  1.0000
  C   C48       1.0  0.46893  0.75679  0.18252  1.0000
  Fe  Fe11      1.0  0.51961  0.36290  0.31450  1.0000
  H   H53       1.0  0.23314  0.41076  0.17345  1.0000
  S   S18       1.0  0.11465  0.61079  0.30959  1.0000
  Fe  Fe12      1.0  0.14700  0.66233  0.27339  1.0000
  H   H54       1.0  0.40398  0.79951  0.22051  1.0000
  C   C49       1.0  0.32513  0.46824  0.32280  1.0000
  S   S19       1.0  0.40868  0.35451  0.13289  1.0000
  S   S20       1.0  0.56814  0.41969  0.32250  1.0000
  H   H55       1.0  0.14491  0.41229  0.16528  1.0000
  H   H56       1.0  0.37068  0.33544  0.24459  1.0000
  H   H57       1.0  0.31720  0.77899  0.30811  1.0000
  S   S21       1.0  0.54961  0.70072  0.13481  1.0000
  Fe  Fe13      1.0  0.57877  0.39528  0.21714  1.0000
  H   H58       1.0  0.08482  0.43818  0.36361  1.0000
  S   S22       1.0  0.20347  0.40758  0.29804  1.0000
  C   C50       1.0  0.56767  0.64829  0.25561  1.0000
  C   C51       1.0  0.53043  0.68053  0.28244  1.0000
  H   H59       1.0  0.48532  0.76245  0.22727  1.0000
  C   C52       1.0  0.37935  0.47090  0.23142  1.0000
  C   C53       1.0  0.34046  0.35131  0.22846  1.0000
  C   C54       1.0  0.30017  0.50516  0.18428  1.0000
  H   H60       1.0  0.42621  0.47885  0.15298  1.0000
  Fe  Fe14      1.0  0.46691  0.37557  0.20390  1.0000
  S   S23       1.0  0.51197  0.43318  0.20290  1.0000
  S   S24       1.0  0.20173  0.61819  0.20131  1.0000
  C   C55       1.0  0.21427  0.74609  0.22336  1.0000
  H   H61       1.0  0.28857  0.35430  0.30791  1.0000
  N   N5        1.0  0.57218  0.61395  0.27802  1.0000
  S   S25       1.0  0.16739  0.50036  0.17827  1.0000
  C   C56       1.0  0.39166  0.57108  0.36778  1.0000
  C   C57       1.0  0.31515  0.67141  0.12006  1.0000
  H   H62       1.0  0.49249  0.82553  0.31523  1.0000
  H   H63       1.0  0.46844  0.70222  0.35295  1.0000
  C   C58       1.0  0.50318  0.64282  0.35557  1.0000
  H   H64       1.0  0.10390  0.53657  0.35718  1.0000
  C   C59       1.0  0.40087  0.76932  0.12106  1.0000
  S   S26       1.0  0.47348  0.51945  0.36810  1.0000
  S   S27       1.0  0.34177  0.79364  0.11822  1.0000
  S   S28       1.0  0.19374  0.35380  0.42742  1.0000
  C   C60       1.0  0.12690  0.51400  0.37358  1.0000
  N   N6        1.0  0.09691  0.50155  0.42231  1.0000
  H   H65       1.0  0.40156  0.64819  0.54589  1.0000
  C   C61       1.0  0.38641  0.77444  0.55077  1.0000
  S   S29       1.0  0.15773  0.63342  0.48034  1.0000
  H   H66       1.0  0.41072  0.80900  0.42308  1.0000
  C   C62       1.0  0.26881  0.69078  0.52402  1.0000
  H   H67       1.0  0.44269  0.74618  0.59372  1.0000
  C   C63       1.0  0.27621  0.56077  0.50289  1.0000
  H   H68       1.0  0.30074  0.69392  0.43427  1.0000
  S   S30       1.0  0.09114  0.40528  0.56808  1.0000
  C   C64       1.0  0.10782  0.77108  0.37006  1.0000
  C   C65       1.0  0.36424  0.65984  0.53912  1.0000
  H   H69       1.0  0.55796  0.33017  0.56790  1.0000
  S   S31       1.0  0.18889  0.45741  0.48399  1.0000
  H   H70       1.0  0.23159  0.70285  0.51765  1.0000
  S   S32       1.0  0.24192  0.39955  0.56238  1.0000
  C   C66       1.0  0.43570  0.75973  0.55634  1.0000
  C   C67       1.0  0.08708  0.53105  0.48005  1.0000
  C   C68       1.0  0.41789  0.79534  0.46033  1.0000
  S   S33       1.0  0.33642  0.77339  0.60626  1.0000
  S   S34       1.0  0.29508  0.51402  0.58165  1.0000
  Fe  Fe15      1.0  0.27011  0.35605  0.46745  1.0000
  C   C69       1.0  0.21384  0.56856  0.59020  1.0000
  H   H71       1.0  0.19946  0.69084  0.61229  1.0000
  H   H72       1.0  0.13264  0.81161  0.45682  1.0000
  C   C70       1.0  0.32459  0.66578  0.58591  1.0000
  C   C71       1.0  0.46732  0.78159  0.46659  1.0000
  Fe  Fe16      1.0  0.15591  0.81628  0.56845  1.0000
  S   S35       1.0  0.29876  0.40890  0.43129  1.0000
  C   C72       1.0  0.19823  0.60281  0.51058  1.0000
  Fe  Fe17      1.0  0.17533  0.62729  0.37826  1.0000
  H   H73       1.0  0.33968  0.80267  0.49688  1.0000
  C   C73       1.0  0.30768  0.68557  0.47651  1.0000
  Fe  Fe18      1.0  0.22055  0.40867  0.39584  1.0000
  H   H74       1.0  0.31185  0.54709  0.47764  1.0000
  C   C74       1.0  0.37758  0.79180  0.50227  1.0000
  N   N7        1.0  0.27770  0.68121  0.57800  1.0000
  Fe  Fe19      1.0  0.16817  0.40208  0.51846  1.0000
  H   H75       1.0  0.47819  0.64011  0.39446  1.0000
  C   C75       1.0  0.47625  0.76334  0.51425  1.0000
  H   H76       1.0  0.10055  0.56327  0.48917  1.0000
  H   H77       1.0  0.16225  0.52976  0.39256  1.0000
  H   H78       1.0  0.39381  0.33747  0.57471  1.0000
  C   C76       1.0  0.24516  0.58643  0.47918  1.0000
  H   H79       1.0  0.38088  0.56815  0.41373  1.0000
  S   S36       1.0  0.22625  0.79047  0.50567  1.0000
  C   C77       1.0  0.18298  0.59444  0.56668  1.0000
  H   H80       1.0  0.14649  0.60669  0.59091  1.0000
  H   H81       1.0  0.25782  0.59370  0.43695  1.0000
  Fe  Fe20      1.0  0.26442  0.45245  0.52282  1.0000
  H   H82       1.0  0.38650  0.66717  0.44866  1.0000
  Fe  Fe21      1.0  0.26864  0.81081  0.59276  1.0000
  C   C78       1.0  0.35577  0.67035  0.48452  1.0000
  H   H83       1.0  0.51441  0.75252  0.51906  1.0000
  C   C79       1.0  0.26049  0.55172  0.55827  1.0000
  C   C80       1.0  0.10701  0.78674  0.43551  1.0000
  S   S37       1.0  0.51682  0.78791  0.41405  1.0000
  S   S38       1.0  0.08037  0.78452  0.55410  1.0000
  C   C81       1.0  0.40876  0.78465  0.74475  1.0000
  H   H84       1.0  0.12012  0.67378  0.77059  1.0000
  H   H85       1.0  0.46255  0.55314  0.86475  1.0000
  H   H86       1.0  0.23908  0.66596  0.65464  1.0000
  S   S39       1.0  0.55218  0.60163  0.82381  1.0000
  H   H87       1.0  0.38323  0.63724  0.85910  1.0000
  S   S40       1.0  0.12059  0.41274  0.79552  1.0000
  H   H88       1.0  0.45824  0.47786  0.79833  1.0000
  S   S41       1.0  0.33170  0.69383  0.79719  1.0000
  S   S42       1.0  0.30083  0.33712  0.82424  1.0000
  C   C82       1.0  0.39222  0.52701  0.71209  1.0000
  C   C83       1.0  0.39483  0.56930  0.75086  1.0000
  C   C84       1.0  0.55083  0.82158  0.67816  1.0000
  H   H89       1.0  0.36629  0.72933  0.69890  1.0000
  H   H90       1.0  0.41362  0.46098  0.69959  1.0000
  H   H91       1.0  0.21518  0.62892  0.78331  1.0000
  C   C85       1.0  0.09633  0.70352  0.70268  1.0000
  C   C86       1.0  0.39281  0.75907  0.85262  1.0000
  H   H92       1.0  0.56481  0.76446  0.76561  1.0000
  H   H93       1.0  0.23527  0.45507  0.73682  1.0000
  H   H94       1.0  0.41485  0.79450  0.70301  1.0000
  C   C87       1.0  0.09162  0.77983  0.80005  1.0000
  H   H95       1.0  0.37321  0.51995  0.66857  1.0000
  H   H96       1.0  0.44270  0.64203  0.81680  1.0000
  S   S43       1.0  0.40212  0.39174  0.81583  1.0000
  H   H97       1.0  0.13147  0.50915  0.66693  1.0000
  H   H98       1.0  0.33182  0.65899  0.62924  1.0000
  C   C88       1.0  0.52307  0.34309  0.74760  1.0000
  C   C89       1.0  0.21045  0.59924  0.79476  1.0000
  C   C90       1.0  0.18010  0.59842  0.84786  1.0000
  H   H99       1.0  0.14742  0.44057  0.68866  1.0000
  C   C91       1.0  0.44002  0.50339  0.78488  1.0000
  C   C92       1.0  0.56415  0.40685  0.73865  1.0000
  C   C93       1.0  0.38188  0.74746  0.74220  1.0000
  C   C94       1.0  0.52535  0.37723  0.72241  1.0000
  C   C95       1.0  0.11491  0.50432  0.70972  1.0000
  C   C96       1.0  0.42224  0.62308  0.84399  1.0000
  N   N8        1.0  0.22725  0.52352  0.76946  1.0000
  C   C97       1.0  0.10957  0.70360  0.76212  1.0000
  C   C98       1.0  0.19878  0.52285  0.82244  1.0000
  C   C99       1.0  0.17498  0.56023  0.86249  1.0000
  H   H100      1.0  0.19296  0.49299  0.83290  1.0000
  S   S44       1.0  0.47896  0.38199  0.67122  1.0000
  H   H101      1.0  0.20037  0.56021  0.63153  1.0000
  N   N9        1.0  0.41966  0.57833  0.80510  1.0000
  H   H102      1.0  0.11626  0.74241  0.85804  1.0000
  H   H103      1.0  0.12343  0.35896  0.66042  1.0000
  C   C100      1.0  0.41494  0.49391  0.72940  1.0000
  C   C101      1.0  0.42714  0.80920  0.80137  1.0000
  C   C102      1.0  0.25112  0.48393  0.72690  1.0000
  C   C103      1.0  0.10239  0.45875  0.77691  1.0000
  C   C104      1.0  0.12363  0.46538  0.72182  1.0000
  C   C105      1.0  0.55951  0.75825  0.71479  1.0000
  Fe  Fe22      1.0  0.31889  0.39889  0.80552  1.0000
  C   C106      1.0  0.10742  0.74201  0.81111  1.0000
  H   H104      1.0  0.24406  0.48122  0.67743  1.0000
  H   H105      1.0  0.51798  0.75550  0.70813  1.0000
  C   C107      1.0  0.23421  0.56123  0.75605  1.0000
  C   C108      1.0  0.41977  0.79611  0.85510  1.0000
  S   S45       1.0  0.28549  0.46309  0.85924  1.0000
  H   H106      1.0  0.25750  0.56179  0.71458  1.0000
  C   C109      1.0  0.55936  0.33784  0.78779  1.0000
  C   C110      1.0  0.37292  0.73527  0.79654  1.0000
  S   S46       1.0  0.32567  0.37180  0.70059  1.0000
  C   C111      1.0  0.44213  0.54604  0.82235  1.0000
  H   H107      1.0  0.50970  0.81891  0.68092  1.0000
  C   C112      1.0  0.08537  0.53696  0.75310  1.0000
  H   H108      1.0  0.37735  0.59504  0.73717  1.0000
  H   H109      1.0  0.09669  0.67365  0.66466  1.0000
  H   H110      1.0  0.29275  0.48359  0.73246  1.0000
  Fe  Fe23      1.0  0.40840  0.36027  0.71249  1.0000
  H   H111      1.0  0.24484  0.72251  0.66357  1.0000
  H   H112      1.0  0.56609  0.43354  0.71962  1.0000
  H   H113      1.0  0.08826  0.80908  0.83917  1.0000
  C   C113      1.0  0.23815  0.69065  0.62980  1.0000
  H   H114      1.0  0.08150  0.82402  0.68900  1.0000
  H   H115      1.0  0.57870  0.72706  0.68827  1.0000
  C   C114      1.0  0.08124  0.74205  0.69308  1.0000
  C   C115      1.0  0.57047  0.03768  0.07615  1.0000
  H   H116      1.0  0.28334  0.30561  0.04978  1.0000
  H   H117      1.0  0.43517  0.12210  0.89396  1.0000
  H   H118      1.0  0.16169  0.83255  0.09453  1.0000
  Fe  Fe24      1.0  0.34599  0.07289  0.92291  1.0000
  C   C116      1.0  0.52433  0.05451  0.11019  1.0000
  H   H119      1.0  0.51552  0.32725  0.07306  1.0000
  S   S47       1.0  0.53449  0.85513  0.09729  1.0000
  C   C117      1.0  0.11574  0.94174  0.90447  1.0000
  C   C118      1.0  0.12077  0.83264  0.09193  1.0000
  C   C119      1.0  0.37860  0.27774  0.93320  1.0000
  C   C120      1.0  0.34221  0.30372  0.97692  1.0000
  C   C121      1.0  0.45339  0.17703  0.11529  1.0000
  H   H120      1.0  0.57513  0.31111  0.02708  1.0000
  H   H121      1.0  0.16960  0.06883  0.91372  1.0000
  H   H122      1.0  0.26586  0.24442  0.87639  1.0000
  C   C122      1.0  0.47927  0.05247  0.07916  1.0000
  C   C123      1.0  0.31336  0.24151  0.00567  1.0000
  H   H123      1.0  0.31842  0.92596  0.87969  1.0000
  C   C124      1.0  0.30988  0.28556  0.01385  1.0000
  H   H124      1.0  0.47869  0.14961  0.11021  1.0000
  S   S48       1.0  0.26788  0.10355  0.94688  1.0000
  H   H125      1.0  0.40892  0.21378  0.89014  1.0000
  C   C125      1.0  0.52658  0.01693  0.98006  1.0000
  C   C126      1.0  0.10201  0.23893  0.03942  1.0000
  H   H126      1.0  0.12252  0.92723  0.11460  1.0000
  C   C127      1.0  0.57146  0.01817  0.01117  1.0000
  H   H127      1.0  0.56869  0.05066  0.87992  1.0000
  H   H128      1.0  0.08576  0.21175  0.00606  1.0000
  H   H129      1.0  0.37250  0.85790  0.05092  1.0000
  Fe  Fe25      1.0  0.51848  0.86434  0.87447  1.0000
  H   H130      1.0  0.08795  0.07316  0.08781  1.0000
  C   C128      1.0  0.08645  0.28030  0.04135  1.0000
  C   C129      1.0  0.13771  0.08053  0.94773  1.0000
  S   S49       1.0  0.27667  0.21874  0.05467  1.0000
  C   C130      1.0  0.09947  0.10676  0.93564  1.0000
  H   H131      1.0  0.44611  0.03279  0.98957  1.0000
  Fe  Fe26      1.0  0.30086  0.14935  0.02939  1.0000
  S   S50       1.0  0.52119  0.91321  0.96853  1.0000
  Fe  Fe27      1.0  0.36119  0.07824  0.05881  1.0000
  C   C131      1.0  0.48070  0.03456  0.01387  1.0000
  H   H132      1.0  0.14273  0.92017  0.91794  1.0000
  H   H133      1.0  0.34906  0.18152  0.95054  1.0000
  C   C132      1.0  0.38142  0.23385  0.92473  1.0000
  S   S51       1.0  0.56024  0.26636  0.89387  1.0000
  Fe  Fe28      1.0  0.25594  0.06164  0.00862  1.0000
  S   S52       1.0  0.38035  0.12181  0.00149  1.0000
  H   H134      1.0  0.49118  0.19442  0.03858  1.0000
  S   S53       1.0  0.33165  0.02670  0.97839  1.0000
  H   H135      1.0  0.16089  0.16878  0.02894  1.0000
  C   C133      1.0  0.42737  0.23697  0.08164  1.0000
  S   S54       1.0  0.28412  0.10971  0.09351  1.0000
  H   H136      1.0  0.13696  0.97097  0.90426  1.0000
  H   H137      1.0  0.52685  0.00100  0.93007  1.0000
  H   H138      1.0  0.43243  0.25689  0.05081  1.0000
  C   C134      1.0  0.09152  0.08244  0.04537  1.0000
  C   C135      1.0  0.10713  0.31556  0.08381  1.0000
  H   H139      1.0  0.10235  0.11563  0.89271  1.0000
  C   C136      1.0  0.13341  0.06792  0.00228  1.0000
  Fe  Fe29      1.0  0.55414  0.86109  0.00118  1.0000
  C   C137      1.0  0.34802  0.21565  0.95975  1.0000
  C   C138      1.0  0.46059  0.20226  0.07529  1.0000
  S   S55       1.0  0.17938  0.03331  0.01634  1.0000
  S   S56       1.0  0.42211  0.29933  0.88992  1.0000
  H   H140      1.0  0.23599  0.17436  0.88409  1.0000
  N   N10       1.0  0.13716  0.23282  0.07883  1.0000
  H   H141      1.0  0.43455  0.87368  0.02927  1.0000
  H   H142      1.0  0.11814  0.17517  0.09820  1.0000
  H   H143      1.0  0.18432  0.18811  0.10538  1.0000
  C   C139      1.0  0.15075  0.18909  0.07788  1.0000
  H   H144      1.0  0.42836  0.84230  0.08258  1.0000
  C   C140      1.0  0.41027  0.86853  0.06858  1.0000
  S   S57       1.0  0.09160  0.24397  0.87243  1.0000
  H   H145      1.0  0.46847  0.93771  0.09274  1.0000
  S   S58       1.0  0.42113  0.07102  0.12255  1.0000
  H   H146      1.0  0.46839  0.87915  0.35489  1.0000
  H   H147      1.0  0.12297  0.31679  0.32664  1.0000
  H   H148      1.0  0.30299  0.24396  0.19678  1.0000
  H   H149      1.0  0.32238  0.20016  0.22303  1.0000
  C   C141      1.0  0.14329  0.30905  0.12355  1.0000
  H   H150      1.0  0.18617  0.26241  0.15125  1.0000
  C   C142      1.0  0.39363  0.98011  0.22650  1.0000
  H   H151      1.0  0.33113  0.94786  0.25789  1.0000
  C   C143      1.0  0.38659  0.24540  0.12720  1.0000
  H   H152      1.0  0.10677  0.24771  0.34802  1.0000
  N   N11       1.0  0.37884  0.21983  0.16511  1.0000
  C   C144      1.0  0.36711  0.90965  0.16905  1.0000
  H   H153      1.0  0.17343  0.99206  0.12516  1.0000
  H   H154      1.0  0.40613  0.16600  0.19034  1.0000
  C   C145      1.0  0.10634  0.95860  0.14073  1.0000
  H   H155      1.0  0.51507  0.92338  0.26857  1.0000
  H   H156      1.0  0.36031  0.27184  0.13068  1.0000
  C   C146      1.0  0.14711  0.07243  0.19184  1.0000
  N   N12       1.0  0.54134  0.87579  0.30767  1.0000
  S   S59       1.0  0.15471  0.16689  0.31075  1.0000
  C   C147      1.0  0.36091  0.94612  0.22138  1.0000
  C   C148      1.0  0.13507  0.99530  0.14733  1.0000
  C   C149      1.0  0.18685  0.91135  0.29407  1.0000
  H   H157      1.0  0.57709  0.83249  0.34790  1.0000
  C   C150      1.0  0.43767  0.94004  0.12818  1.0000
  C   C151      1.0  0.25474  0.26215  0.35233  1.0000
  C   C152      1.0  0.20650  0.19789  0.34064  1.0000
  C   C153      1.0  0.22262  0.88855  0.31680  1.0000
  H   H158      1.0  0.34791  0.25257  0.25717  1.0000
  C   C154      1.0  0.21866  0.23361  0.32120  1.0000
  H   H159      1.0  0.25071  0.86731  0.28452  1.0000
  H   H160      1.0  0.16908  0.07628  0.23391  1.0000
  H   H161      1.0  0.10545  0.84216  0.19113  1.0000
  H   H162      1.0  0.45795  0.00340  0.18312  1.0000
  H   H163      1.0  0.38938  0.00850  0.26708  1.0000
  C   C155      1.0  0.43234  0.97711  0.17970  1.0000
  C   C156      1.0  0.08895  0.83856  0.14673  1.0000
  C   C157      1.0  0.41204  0.18634  0.16030  1.0000
  H   H164      1.0  0.18751  0.90793  0.24440  1.0000
  C   C158      1.0  0.49038  0.85873  0.31225  1.0000
  H   H165      1.0  0.12332  0.10208  0.19927  1.0000
  S   S60       1.0  0.10915  0.97098  0.30969  1.0000
  S   S61       1.0  0.18655  0.07047  0.36536  1.0000
  H   H166      1.0  0.26284  0.29060  0.33894  1.0000
  N   N13       1.0  0.40465  0.90723  0.12282  1.0000
  C   C159      1.0  0.15131  0.93952  0.33604  1.0000
  N   N14       1.0  0.11537  0.03474  0.18200  1.0000
  H   H167      1.0  0.34172  0.88327  0.16568  1.0000
  C   C160      1.0  0.54750  0.90971  0.28444  1.0000
  H   H168      1.0  0.52339  0.06838  0.16067  1.0000
  H   H169      1.0  0.46958  0.85785  0.27010  1.0000
  H   H170      1.0  0.17430  0.06961  0.15070  1.0000
  C   C161      1.0  0.33602  0.22962  0.21296  1.0000
  C   C162      1.0  0.08497  0.30398  0.32382  1.0000
  H   H171      1.0  0.19855  0.24028  0.28429  1.0000
  C   C163      1.0  0.15788  0.26720  0.12045  1.0000
  H   H172      1.0  0.46309  0.32730  0.49080  1.0000
  H   H173      1.0  0.49635  0.28533  0.61388  1.0000
  S   S62       1.0  0.52878  0.32339  0.37955  1.0000
  H   H174      1.0  0.53038  0.24333  0.55173  1.0000
  S   S63       1.0  0.28257  0.87657  0.58661  1.0000
  H   H175      1.0  0.33778  0.20060  0.56198  1.0000
  H   H176      1.0  0.39981  0.17349  0.54926  1.0000
  C   C164      1.0  0.26928  0.21747  0.41869  1.0000
  C   C165      1.0  0.37277  0.19163  0.52965  1.0000
  S   S64       1.0  0.54744  0.95119  0.45950  1.0000
  H   H177      1.0  0.35060  0.27441  0.59081  1.0000
  C   C166      1.0  0.40667  0.30539  0.54715  1.0000
  S   S65       1.0  0.54459  0.03594  0.41096  1.0000
  H   H178      1.0  0.38500  0.89155  0.49506  1.0000
  C   C167      1.0  0.22180  0.89320  0.38118  1.0000
  Fe  Fe30      1.0  0.18352  0.09203  0.47013  1.0000
  Fe  Fe31      1.0  0.23611  0.85752  0.50266  1.0000
  C   C168      1.0  0.32468  0.99114  0.39588  1.0000
  C   C169      1.0  0.15046  0.94383  0.40012  1.0000
  C   C170      1.0  0.38125  0.92324  0.48698  1.0000
  H   H179      1.0  0.22523  0.16076  0.40153  1.0000
  S   S66       1.0  0.52224  0.14544  0.52466  1.0000
  H   H180      1.0  0.44925  0.19102  0.44650  1.0000
  H   H181      1.0  0.08212  0.20565  0.59743  1.0000
  H   H182      1.0  0.42646  0.05441  0.43631  1.0000
  C   C171      1.0  0.09110  0.23930  0.61080  1.0000
  H   H183      1.0  0.24657  0.01037  0.42950  1.0000
  S   S67       1.0  0.25247  0.09307  0.52358  1.0000
  C   C172      1.0  0.34956  0.07140  0.47452  1.0000
  H   H184      1.0  0.12220  0.96458  0.43240  1.0000
  C   C173      1.0  0.37573  0.00298  0.39995  1.0000
  C   C174      1.0  0.26806  0.98814  0.57822  1.0000
  C   C175      1.0  0.43678  0.22317  0.47448  1.0000
  S   S68       1.0  0.16242  0.88214  0.55911  1.0000
  Fe  Fe32      1.0  0.52797  0.07491  0.51109  1.0000
  H   H185      1.0  0.41965  0.93659  0.48355  1.0000
  C   C176      1.0  0.28596  0.01981  0.43132  1.0000
  H   H186      1.0  0.28749  0.21178  0.45757  1.0000
  H   H187      1.0  0.36473  0.91808  0.44073  1.0000
  C   C177      1.0  0.38754  0.04407  0.43616  1.0000
  Fe  Fe33      1.0  0.48832  0.99076  0.43237  1.0000
  S   S69       1.0  0.31479  0.29468  0.45012  1.0000
  H   H188      1.0  0.17264  0.22658  0.59369  1.0000
  H   H189      1.0  0.49049  0.25364  0.42566  1.0000
  Fe  Fe34      1.0  0.53261  0.99567  0.55725  1.0000
  C   C178      1.0  0.30006  0.96236  0.52872  1.0000
  C   C179      1.0  0.44554  0.29967  0.49980  1.0000
  H   H190      1.0  0.35956  0.10181  0.50602  1.0000
  S   S70       1.0  0.11565  0.05390  0.48035  1.0000
  H   H191      1.0  0.40652  0.96035  0.60371  1.0000
  N   N15       1.0  0.39766  0.22914  0.51982  1.0000
  C   C180      1.0  0.29886  0.05924  0.47264  1.0000
  H   H192      1.0  0.12343  0.31823  0.49937  1.0000
  C   C181      1.0  0.14218  0.25089  0.60858  1.0000
  C   C182      1.0  0.46077  0.25833  0.46314  1.0000
  C   C183      1.0  0.18572  0.92084  0.42266  1.0000
  C   C184      1.0  0.08229  0.32018  0.50552  1.0000
  C   C185      1.0  0.38255  0.26956  0.55614  1.0000
  H   H193      1.0  0.36060  0.17037  0.48429  1.0000
  C   C186      1.0  0.27859  0.25485  0.40259  1.0000
  S   S71       1.0  0.46863  0.03153  0.53185  1.0000
  C   C187      1.0  0.23327  0.18896  0.38762  1.0000
  H   H194      1.0  0.28529  0.95008  0.48279  1.0000
  H   H195      1.0  0.18563  0.92540  0.47236  1.0000
  S   S72       1.0  0.13830  0.15208  0.47997  1.0000
  H   H196      1.0  0.22947  0.99625  0.57015  1.0000
  S   S73       1.0  0.26551  0.86427  0.40989  1.0000
  C   C188      1.0  0.36745  0.96772  0.59643  1.0000
  N   N16       1.0  0.34905  0.95247  0.53818  1.0000
  C   C189      1.0  0.52936  0.26224  0.60203  1.0000
  N   N17       1.0  0.57704  0.28510  0.61531  1.0000
  Fe  Fe35      1.0  0.11434  0.03712  0.37576  1.0000
  Fe  Fe36      1.0  0.13590  0.12754  0.37516  1.0000
  H   H197      1.0  0.31513  0.95925  0.36834  1.0000
  S   S74       1.0  0.42579  0.96545  0.36829  1.0000
  H   H198      1.0  0.45423  0.91193  0.65815  1.0000
  Fe  Fe37      1.0  0.31328  0.30869  0.71969  1.0000
  H   H199      1.0  0.54259  0.06703  0.78964  1.0000
  H   H200      1.0  0.37659  0.96830  0.83905  1.0000
  H   H201      1.0  0.49421  0.31964  0.73490  1.0000
  H   H202      1.0  0.53540  0.96256  0.76219  1.0000
  H   H203      1.0  0.08533  0.11969  0.65324  1.0000
  S   S75       1.0  0.45903  0.85635  0.80499  1.0000
  C   C190      1.0  0.11475  0.32519  0.64631  1.0000
  C   C191      1.0  0.38033  0.94266  0.79501  1.0000
  H   H204      1.0  0.26102  0.02173  0.67734  1.0000
  N   N18       1.0  0.34875  0.90859  0.78436  1.0000
  H   H205      1.0  0.38668  0.14920  0.67125  1.0000
  C   C192      1.0  0.33597  0.99257  0.64746  1.0000
  C   C193      1.0  0.43274  0.07944  0.73588  1.0000
  C   C194      1.0  0.28443  0.13769  0.80406  1.0000
  C   C195      1.0  0.44321  0.11793  0.84480  1.0000
  C   C196      1.0  0.11825  0.00559  0.79168  1.0000
  C   C197      1.0  0.39097  0.87757  0.68209  1.0000
  H   H206      1.0  0.20630  0.31713  0.76211  1.0000
  H   H207      1.0  0.30274  0.87375  0.83252  1.0000
  H   H208      1.0  0.10410  0.92600  0.85628  1.0000
  S   S76       1.0  0.26799  0.25205  0.67189  1.0000
  C   C198      1.0  0.26424  0.17547  0.84717  1.0000
  Fe  Fe38      1.0  0.20817  0.89493  0.64342  1.0000
  H   H209      1.0  0.27242  0.10680  0.80738  1.0000
  C   C199      1.0  0.21820  0.24872  0.72592  1.0000
  C   C200      1.0  0.48593  0.14154  0.76243  1.0000
  H   H210      1.0  0.54758  0.87777  0.64660  1.0000
  H   H211      1.0  0.36081  0.20117  0.67705  1.0000
  H   H212      1.0  0.47272  0.10430  0.66786  1.0000
  S   S77       1.0  0.19746  0.95589  0.72225  1.0000
  H   H213      1.0  0.32799  0.84966  0.71963  1.0000
  H   H214      1.0  0.41675  0.05357  0.70051  1.0000
  C   C201      1.0  0.14217  0.24498  0.81782  1.0000
  H   H215      1.0  0.14645  0.02960  0.80768  1.0000
  H   H216      1.0  0.27210  0.92071  0.82133  1.0000
  C   C202      1.0  0.28602  0.00285  0.63811  1.0000
  C   C203      1.0  0.32085  0.13995  0.75690  1.0000
  C   C204      1.0  0.20242  0.20894  0.73044  1.0000
  C   C205      1.0  0.15773  0.28441  0.81242  1.0000
  C   C206      1.0  0.42064  0.08510  0.79971  1.0000
  C   C207      1.0  0.47646  0.14581  0.82617  1.0000
  H   H217      1.0  0.10714  0.90476  0.69336  1.0000
  C   C208      1.0  0.30833  0.90724  0.83183  1.0000
  H   H218      1.0  0.34998  0.00349  0.69406  1.0000
  H   H219      1.0  0.33605  0.11047  0.72342  1.0000
  C   C209      1.0  0.35306  0.87665  0.72830  1.0000
  H   H220      1.0  0.55726  0.31073  0.80555  1.0000
  S   S78       1.0  0.52196  0.97189  0.64128  1.0000
  S   S79       1.0  0.37562  0.05188  0.82137  1.0000
  C   C210      1.0  0.13290  0.96614  0.74830  1.0000
  C   C211      1.0  0.19554  0.28635  0.76671  1.0000
  S   S80       1.0  0.39646  0.29481  0.72176  1.0000
  C   C212      1.0  0.31826  0.21583  0.79607  1.0000
  H   H221      1.0  0.14018  0.31363  0.84327  1.0000
  C   C213      1.0  0.57751  0.96973  0.68030  1.0000
  H   H222      1.0  0.21996  0.17972  0.69881  1.0000
  C   C214      1.0  0.41845  0.94468  0.74957  1.0000
  H   H223      1.0  0.49347  0.17145  0.86115  1.0000
  H   H224      1.0  0.52325  0.23970  0.63033  1.0000
  C   C215      1.0  0.16501  0.20708  0.77729  1.0000
  C   C216      1.0  0.09606  0.93535  0.72701  1.0000
  C   C217      1.0  0.42413  0.91153  0.69318  1.0000
  H   H225      1.0  0.15342  0.17642  0.78149  1.0000
  H   H226      1.0  0.44353  0.97170  0.75830  1.0000
  H   H227      1.0  0.33201  0.24641  0.79392  1.0000
  C   C218      1.0  0.37587  0.18121  0.70457  1.0000
  N   N19       1.0  0.33735  0.17874  0.75351  1.0000
  C   C219      1.0  0.46450  0.10810  0.71731  1.0000
  S   S81       1.0  0.52400  0.17776  0.73809  1.0000
  H   H228      1.0  0.56524  0.07684  0.68631  1.0000
  H   H229      1.0  0.41099  0.19572  0.72642  1.0000
  H   H230      1.0  0.39516  0.85176  0.63845  1.0000
  H   H231      1.0  0.19340  0.30354  0.62493  1.0000
  S   S82       1.0  0.19749  0.83040  0.65686  1.0000
  C   C220      1.0  0.57193  0.85507  0.65902  1.0000
  C   C221      1.0  0.57265  0.96560  0.74082  1.0000
  H   H232      1.0  0.09224  0.02519  0.64666  1.0000
  C   C222      1.0  0.28097  0.21484  0.84295  1.0000
  C   C223      1.0  0.15393  0.29415  0.62629  1.0000
  Fe  Fe39      1.0  0.57855  0.20999  0.80908  1.0000
  H   H233      1.0  0.58021  0.13566  0.62322  1.0000
  Fe  Fe40      1.0  0.38474  0.32753  0.82469  1.0000
  H   H234      1.0  0.67142  0.55112  0.88206  1.0000
  H   H235      1.0  0.76241  0.63902  0.99574  1.0000
  S   S83       1.0  0.89213  0.69522  0.88520  1.0000
  C   C224      1.0  0.67935  0.74116  0.01985  1.0000
  H   H236      1.0  0.94613  0.77948  0.92601  1.0000
  C   C225      1.0  0.05644  0.68726  0.01524  1.0000
  S   S84       1.0  0.70773  0.53477  0.99179  1.0000
  C   C226      1.0  0.81648  0.57074  0.88438  1.0000
  S   S85       1.0  0.61658  0.62396  0.97910  1.0000
  H   H237      1.0  0.76710  0.67644  0.91465  1.0000
  C   C227      1.0  0.92906  0.39192  0.09216  1.0000
  H   H238      1.0  0.88547  0.50982  0.08464  1.0000
  H   H239      1.0  0.81295  0.40424  0.07063  1.0000
  C   C228      1.0  0.73573  0.45018  0.05018  1.0000
  N   N20       1.0  0.76143  0.41255  0.00490  1.0000
  H   H240      1.0  0.61163  0.74594  0.92215  1.0000
  N   N21       1.0  0.70607  0.68233  0.05493  1.0000
  C   C229      1.0  0.04195  0.62106  0.03994  1.0000
  C   C230      1.0  0.61202  0.71948  0.87939  1.0000
  H   H241      1.0  0.71685  0.41512  0.92933  1.0000
  H   H242      1.0  0.75949  0.47875  0.05517  1.0000
  H   H243      1.0  0.71404  0.74281  0.93075  1.0000
  H   H244      1.0  0.88090  0.58185  0.06814  1.0000
  C   C231      1.0  0.71195  0.55634  0.88281  1.0000
  H   H245      1.0  0.69801  0.45724  0.03494  1.0000
  S   S86       1.0  0.06762  0.37009  0.93565  1.0000
  C   C232      1.0  0.90678  0.53612  0.11273  1.0000
  C   C233      1.0  0.82647  0.35676  0.98078  1.0000
  C   C234      1.0  0.93613  0.80961  0.91855  1.0000
  H   H246      1.0  0.71066  0.62484  0.08117  1.0000
  C   C235      1.0  0.71228  0.72611  0.96596  1.0000
  H   H247      1.0  0.97430  0.33736  0.03507  1.0000
  H   H248      1.0  0.65545  0.76975  0.02729  1.0000
  C   C236      1.0  0.94705  0.34933  0.07476  1.0000
  Fe  Fe41      1.0  0.62166  0.82496  0.88051  1.0000
  C   C237      1.0  0.73967  0.54823  0.92967  1.0000
  C   C238      1.0  0.74733  0.39862  0.94436  1.0000
  C   C239      1.0  0.80094  0.39253  0.02311  1.0000
  H   H249      1.0  0.85663  0.57652  0.88577  1.0000
  C   C240      1.0  0.77174  0.36269  0.90091  1.0000
  H   H250      1.0  0.61437  0.39643  0.03267  1.0000
  Fe  Fe42      1.0  0.95425  0.66554  0.92408  1.0000
  Fe  Fe43      1.0  0.98325  0.38481  0.95271  1.0000
  C   C241      1.0  0.70361  0.65991  0.10265  1.0000
  C   C242      1.0  0.90433  0.57637  0.10342  1.0000
  C   C243      1.0  0.67657  0.71858  0.06389  1.0000
  C   C244      1.0  0.74212  0.68897  0.95700  1.0000
  C   C245      1.0  0.02289  0.65787  0.02840  1.0000
  C   C246      1.0  0.81146  0.34162  0.91942  1.0000
  S   S87       1.0  0.95758  0.66566  0.02382  1.0000
  C   C247      1.0  0.73901  0.66770  0.00273  1.0000
  C   C248      1.0  0.79221  0.55444  0.92958  1.0000
  H   H251      1.0  0.01611  0.59757  0.04820  1.0000
  H   H252      1.0  0.60002  0.44303  0.96566  1.0000
  H   H253      1.0  0.81375  0.54833  0.96583  1.0000
  S   S88       1.0  0.94483  0.42429  0.04452  1.0000
  H   H254      1.0  0.85785  0.34109  0.99549  1.0000
  Fe  Fe44      1.0  0.62811  0.56080  0.99625  1.0000
  H   H255      1.0  0.04188  0.71579  0.00637  1.0000
  H   H256      1.0  0.83044  0.78417  0.88381  1.0000
  C   C249      1.0  0.58512  0.68266  0.87903  1.0000
  H   H257      1.0  0.72879  0.44496  0.09680  1.0000
  H   H258      1.0  0.65001  0.72974  0.10479  1.0000
  H   H259      1.0  0.03012  0.82569  0.98747  1.0000
  S   S89       1.0  0.01749  0.68618  0.86846  1.0000
  H   H260      1.0  0.99773  0.50425  0.27911  1.0000
  S   S90       1.0  0.88388  0.51542  0.31205  1.0000
  C   C250      1.0  0.67453  0.49646  0.31525  1.0000
  H   H261      1.0  0.61414  0.47292  0.25475  1.0000
  C   C251      1.0  0.65425  0.46996  0.26138  1.0000
  H   H262      1.0  0.77545  0.35696  0.26651  1.0000
  H   H263      1.0  0.98309  0.77022  0.29350  1.0000
  S   S91       1.0  0.70265  0.65287  0.25466  1.0000
  H   H264      1.0  0.79744  0.45851  0.28727  1.0000
  C   C252      1.0  0.72439  0.39126  0.34582  1.0000
  H   H265      1.0  0.90843  0.73728  0.12269  1.0000
  H   H266      1.0  0.07192  0.38033  0.20980  1.0000
  S   S92       1.0  0.73999  0.81850  0.20682  1.0000
  H   H267      1.0  0.79851  0.68859  0.22792  1.0000
  S   S93       1.0  0.98337  0.42062  0.29002  1.0000
  Fe  Fe45      1.0  0.67494  0.69820  0.34747  1.0000
  H   H268      1.0  0.81986  0.78572  0.29850  1.0000
  H   H269      1.0  0.88166  0.44072  0.15950  1.0000
  C   C253      1.0  0.75781  0.46251  0.27928  1.0000
  H   H270      1.0  0.03039  0.63880  0.18165  1.0000
  H   H271      1.0  0.05118  0.35678  0.30045  1.0000
  N   N22       1.0  0.96412  0.60240  0.18229  1.0000
  S   S94       1.0  0.65499  0.39595  0.16584  1.0000
  C   C254      1.0  0.80558  0.66621  0.25367  1.0000
  H   H272      1.0  0.97688  0.66722  0.23329  1.0000
  H   H273      1.0  0.88508  0.68126  0.26401  1.0000
  C   C255      1.0  0.99980  0.74098  0.16883  1.0000
  H   H274      1.0  0.85267  0.39301  0.22112  1.0000
  C   C256      1.0  0.93737  0.52965  0.15803  1.0000
  H   H275      1.0  0.74249  0.59772  0.31809  1.0000
  C   C257      1.0  0.89491  0.33764  0.16092  1.0000
  C   C258      1.0  0.77374  0.61512  0.30453  1.0000
  H   H276      1.0  0.69246  0.39078  0.31712  1.0000
  C   C259      1.0  0.02994  0.48419  0.25507  1.0000
  H   H277      1.0  0.01892  0.69463  0.35672  1.0000
  H   H278      1.0  0.98849  0.55854  0.22864  1.0000
  C   C260      1.0  0.99800  0.63607  0.21446  1.0000
  H   H279      1.0  0.82452  0.75773  0.18211  1.0000
  H   H280      1.0  0.82695  0.59108  0.35417  1.0000
  H   H281      1.0  0.00031  0.74955  0.12436  1.0000
  C   C261      1.0  0.72581  0.49157  0.32539  1.0000
  C   C262      1.0  0.86257  0.63481  0.31050  1.0000
  H   H282      1.0  0.89956  0.79147  0.35453  1.0000
  C   C263      1.0  0.03075  0.44054  0.24908  1.0000
  C   C264      1.0  0.07132  0.50221  0.23110  1.0000
  C   C265      1.0  0.73714  0.43527  0.22576  1.0000
  C   C266      1.0  0.87866  0.38069  0.18002  1.0000
  H   H283      1.0  0.62945  0.58320  0.20546  1.0000
  C   C267      1.0  0.76535  0.64245  0.26879  1.0000
  C   C268      1.0  0.59266  0.81666  0.16376  1.0000
  H   H284      1.0  0.03154  0.75831  0.19535  1.0000
  H   H285      1.0  0.61245  0.33395  0.29770  1.0000
  C   C269      1.0  0.68477  0.43773  0.21876  1.0000
  C   C270      1.0  0.90135  0.77933  0.30372  1.0000
  H   H286      1.0  0.63980  0.78482  0.21278  1.0000
  H   H287      1.0  0.64149  0.58174  0.28279  1.0000
  H   H288      1.0  0.66527  0.66429  0.12824  1.0000
  H   H289      1.0  0.59359  0.54804  0.23881  1.0000
  C   C271      1.0  0.63860  0.80801  0.18707  1.0000
  H   H290      1.0  0.93994  0.49847  0.16553  1.0000
  H   H291      1.0  0.01407  0.62933  0.25543  1.0000
  C   C272      1.0  0.96559  0.56345  0.19285  1.0000
  C   C273      1.0  0.82207  0.61137  0.32518  1.0000
  Fe  Fe46      1.0  0.93850  0.47836  0.34998  1.0000
  S   S95       1.0  0.65783  0.76582  0.35185  1.0000
  S   S96       1.0  0.92264  0.63002  0.33883  1.0000
  H   H292      1.0  0.64992  0.51935  0.35041  1.0000
  C   C274      1.0  0.77118  0.37233  0.31685  1.0000
  C   C275      1.0  0.61100  0.58000  0.24985  1.0000
  C   C276      1.0  0.81264  0.37365  0.35315  1.0000
  C   C277      1.0  0.85432  0.66239  0.27460  1.0000
  C   C278      1.0  0.94827  0.76729  0.26900  1.0000
  C   C279      1.0  0.85657  0.77601  0.27231  1.0000
  H   H293      1.0  0.76086  0.41030  0.19282  1.0000
  C   C280      1.0  0.07623  0.73788  0.34153  1.0000
  N   N23       1.0  0.95047  0.75303  0.20474  1.0000
  C   C281      1.0  0.85917  0.76040  0.20688  1.0000
  C   C282      1.0  0.07148  0.41419  0.21502  1.0000
  C   C283      1.0  0.90667  0.74888  0.17363  1.0000
  H   H294      1.0  0.84926  0.35949  0.33110  1.0000
  H   H295      1.0  0.00770  0.70616  0.15756  1.0000
  H   H296      1.0  0.73231  0.67270  0.13743  1.0000
  C   C284      1.0  0.89551  0.40779  0.14546  1.0000
  C   C285      1.0  0.93341  0.60936  0.13897  1.0000
  H   H297      1.0  0.07121  0.53608  0.23711  1.0000
  H   H298      1.0  0.93204  0.64034  0.13096  1.0000
  H   H299      1.0  0.59304  0.65118  0.21703  1.0000
  H   H300      1.0  0.75630  0.61261  0.51578  1.0000
  H   H301      1.0  0.01916  0.47034  0.55313  1.0000
  C   C286      1.0  0.66081  0.56870  0.58228  1.0000
  H   H302      1.0  0.05173  0.54346  0.57401  1.0000
  H   H303      1.0  0.73253  0.77126  0.54687  1.0000
  Fe  Fe47      1.0  0.91846  0.53434  0.48384  1.0000
  H   H304      1.0  0.84867  0.67567  0.44769  1.0000
  H   H305      1.0  0.81646  0.64373  0.59440  1.0000
  S   S97       1.0  0.61031  0.69385  0.41561  1.0000
  H   H306      1.0  0.67108  0.58363  0.49469  1.0000
  C   C287      1.0  0.07494  0.76904  0.47274  1.0000
  H   H307      1.0  0.98761  0.70712  0.58170  1.0000
  H   H308      1.0  0.98432  0.39130  0.57163  1.0000
  C   C288      1.0  0.73581  0.73002  0.60563  1.0000
  C   C289      1.0  0.79263  0.78862  0.60831  1.0000
  S   S98       1.0  0.77754  0.39448  0.60786  1.0000
  C   C290      1.0  0.90117  0.45455  0.56398  1.0000
  S   S99       1.0  0.64380  0.78855  0.50414  1.0000
  S   S100      1.0  0.92798  0.53788  0.58340  1.0000
  H   H309      1.0  0.62300  0.55619  0.57353  1.0000
  C   C291      1.0  0.86797  0.42255  0.56977  1.0000
  S   S101      1.0  0.88320  0.47446  0.42764  1.0000
  C   C292      1.0  0.82087  0.43377  0.60373  1.0000
  C   C293      1.0  0.04911  0.44954  0.45639  1.0000
  H   H310      1.0  0.01724  0.72273  0.47263  1.0000
  S   S102      1.0  0.97697  0.53666  0.40800  1.0000
  C   C294      1.0  0.04132  0.73724  0.44430  1.0000
  Fe  Fe48      1.0  0.83207  0.51758  0.39619  1.0000
  C   C295      1.0  0.88690  0.77852  0.49345  1.0000
  H   H311      1.0  0.80365  0.81511  0.59135  1.0000
  S   S103      1.0  0.73012  0.71610  0.42203  1.0000
  C   C296      1.0  0.05698  0.35926  0.53685  1.0000
  H   H312      1.0  0.66893  0.44125  0.49007  1.0000
  C   C297      1.0  0.86859  0.70378  0.47314  1.0000
  H   H313      1.0  0.90685  0.67149  0.52881  1.0000
  C   C298      1.0  0.00392  0.36118  0.54735  1.0000
  C   C299      1.0  0.95946  0.73419  0.60041  1.0000
  S   S104      1.0  0.68268  0.70032  0.57562  1.0000
  C   C300      1.0  0.75954  0.41191  0.44536  1.0000
  Fe  Fe49      1.0  0.66421  0.71969  0.49134  1.0000
  C   C301      1.0  0.63024  0.34306  0.60867  1.0000
  C   C302      1.0  0.05912  0.52021  0.52794  1.0000
  C   C303      1.0  0.86164  0.74239  0.46007  1.0000
  H   H314      1.0  0.63895  0.40598  0.42487  1.0000
  S   S105      1.0  0.86311  0.57736  0.45857  1.0000
  H   H315      1.0  0.03455  0.41751  0.44696  1.0000
  H   H316      1.0  0.83606  0.74448  0.42478  1.0000
  Fe  Fe50      1.0  0.70869  0.78374  0.43191  1.0000
  H   H317      1.0  0.75573  0.42752  0.49565  1.0000
  C   C304      1.0  0.88798  0.49773  0.59386  1.0000
  C   C305      1.0  0.04220  0.72143  0.37854  1.0000
  N   N24       1.0  0.92644  0.73716  0.55128  1.0000
  H   H318      1.0  0.63670  0.37117  0.59355  1.0000
  H   H319      1.0  0.66062  0.45768  0.42135  1.0000
  H   H320      1.0  0.93660  0.44574  0.53559  1.0000
  H   H321      1.0  0.83731  0.59166  0.59652  1.0000
  H   H322      1.0  0.87851  0.38929  0.54707  1.0000
  C   C306      1.0  0.90145  0.70167  0.51905  1.0000
  C   C307      1.0  0.75185  0.76360  0.58306  1.0000
  C   C308      1.0  0.73606  0.60056  0.55040  1.0000
  C   C309      1.0  0.80684  0.39358  0.41778  1.0000
  C   C310      1.0  0.04024  0.47916  0.51592  1.0000
  N   N25       1.0  0.71895  0.41036  0.40932  1.0000
  Fe  Fe51      1.0  0.59503  0.76292  0.42330  1.0000
  N   N26       1.0  0.75715  0.60196  0.60535  1.0000
  H   H323      1.0  0.87970  0.80907  0.48551  1.0000
  C   C311      1.0  0.68753  0.58421  0.53823  1.0000
  C   C312      1.0  0.91953  0.77530  0.53907  1.0000
  H   H324      1.0  0.93809  0.80375  0.56601  1.0000
  Fe  Fe52      1.0  0.91742  0.57372  0.37603  1.0000
  C   C313      1.0  0.66938  0.42981  0.43800  1.0000
  H   H325      1.0  0.83900  0.39524  0.44631  1.0000
  S   S106      1.0  0.74711  0.51751  0.39924  1.0000
  Fe  Fe53      1.0  0.80340  0.32821  0.54977  1.0000
  S   S107      1.0  0.77713  0.82487  0.44017  1.0000
  C   C314      1.0  0.80868  0.61811  0.61651  1.0000
  C   C315      1.0  0.07774  0.46135  0.40971  1.0000
  C   C316      1.0  0.97978  0.44783  0.69755  1.0000
  H   H326      1.0  0.03389  0.33688  0.66205  1.0000
  C   C317      1.0  0.63347  0.79666  0.69085  1.0000
  C   C318      1.0  0.93975  0.42424  0.71334  1.0000
  C   C319      1.0  0.80763  0.47686  0.63375  1.0000
  H   H327      1.0  0.77139  0.48560  0.66073  1.0000
  H   H328      1.0  0.82679  0.73560  0.70951  1.0000
  Fe  Fe54      1.0  0.05955  0.38579  0.84568  1.0000
  C   C320      1.0  0.84136  0.50878  0.62915  1.0000
  Fe  Fe55      1.0  0.89215  0.63136  0.81169  1.0000
  S   S108      1.0  0.81798  0.60127  0.78248  1.0000
  H   H329      1.0  0.93591  0.72965  0.64091  1.0000
  S   S109      1.0  0.07630  0.58599  0.73808  1.0000
  H   H330      1.0  0.04211  0.55557  0.84254  1.0000
  H   H331      1.0  0.01664  0.43254  0.67868  1.0000
  H   H332      1.0  0.85724  0.41044  0.79463  1.0000
  C   C321      1.0  0.88587  0.48670  0.74700  1.0000
  C   C322      1.0  0.97158  0.49123  0.70479  1.0000
  S   S110      1.0  0.67194  0.76877  0.82556  1.0000
  H   H333      1.0  0.94577  0.39025  0.70615  1.0000
  C   C323      1.0  0.73142  0.58636  0.64849  1.0000
  H   H334      1.0  0.66039  0.68919  0.72746  1.0000
  H   H335      1.0  0.84946  0.38743  0.71156  1.0000
  S   S111      1.0  0.94955  0.64887  0.74599  1.0000
  Fe  Fe56      1.0  0.00856  0.62362  0.79484  1.0000
  C   C324      1.0  0.73644  0.57172  0.83686  1.0000
  C   C325      1.0  0.85130  0.41797  0.75034  1.0000
  C   C326      1.0  0.07149  0.49080  0.81948  1.0000
  H   H336      1.0  0.84912  0.50227  0.76539  1.0000
  H   H337      1.0  0.63013  0.42495  0.79315  1.0000
  H   H338      1.0  0.65781  0.77363  0.70259  1.0000
  H   H339      1.0  0.69996  0.34847  0.65622  1.0000
  C   C327      1.0  0.92470  0.51098  0.73061  1.0000
  H   H340      1.0  0.78834  0.76223  0.82226  1.0000
  H   H341      1.0  0.91755  0.54445  0.73482  1.0000
  C   C328      1.0  0.81362  0.78928  0.84223  1.0000
  H   H342      1.0  0.84561  0.78895  0.80708  1.0000
  N   N27       1.0  0.89318  0.44361  0.73633  1.0000
  C   C329      1.0  0.63963  0.72186  0.82509  1.0000
  H   H343      1.0  0.81362  0.43473  0.75449  1.0000
  H   H344      1.0  0.76333  0.81886  0.76421  1.0000
  H   H345      1.0  0.61047  0.62484  0.72615  1.0000
  C   C330      1.0  0.06346  0.53009  0.80785  1.0000
  H   H346      1.0  0.05577  0.48613  0.86272  1.0000
  C   C331      1.0  0.61142  0.65100  0.76905  1.0000
  H   H347      1.0  0.07047  0.74168  0.64696  1.0000
  Fe  Fe57      1.0  0.96080  0.33750  0.81963  1.0000
  C   C332      1.0  0.06039  0.81895  0.73058  1.0000
  C   C333      1.0  0.76220  0.72071  0.65254  1.0000
  C   C334      1.0  0.59793  0.36720  0.80452  1.0000
  S   S112      1.0  0.95070  0.60077  0.85400  1.0000
  S   S113      1.0  0.64311  0.35927  0.85488  1.0000
  C   C335      1.0  0.58487  0.64826  0.82391  1.0000
  N   N28       1.0  0.58164  0.79281  0.69351  1.0000
  C   C336      1.0  0.63964  0.68739  0.76989  1.0000
  C   C337      1.0  0.60025  0.40205  0.78032  1.0000
  H   H348      1.0  0.01912  0.81649  0.72196  1.0000
  H   H349      1.0  0.00110  0.50951  0.68954  1.0000
  C   C338      1.0  0.78859  0.57965  0.83819  1.0000
  C   C339      1.0  0.80545  0.74384  0.67476  1.0000
  S   S114      1.0  0.96253  0.77029  0.79512  1.0000
  H   H350      1.0  0.71450  0.57859  0.80146  1.0000
  C   C340      1.0  0.94304  0.81450  0.85886  1.0000
  Fe  Fe58      1.0  0.95507  0.71033  0.82305  1.0000
  H   H351      1.0  0.74935  0.69559  0.67152  1.0000
  H   H352      1.0  0.75967  0.35115  0.85327  1.0000
  C   C341      1.0  0.66574  0.33041  0.64397  1.0000
  H   H353      1.0  0.83144  0.54192  0.65331  1.0000
  S   S115      1.0  0.87032  0.81026  0.68624  1.0000
  H   H354      1.0  0.81375  0.63178  0.66763  1.0000
  H   H355      1.0  0.74819  0.58697  0.69171  1.0000
  H   H356      1.0  0.66270  0.55752  0.67247  1.0000
  C   C342      1.0  0.81974  0.77861  0.65383  1.0000
  N   N29       1.0  0.07897  0.77955  0.74147  1.0000
  C   C343      1.0  0.68298  0.56949  0.63769  1.0000
  S   S116      1.0  0.97715  0.40611  0.86683  1.0000
  H   H357      1.0  0.98097  0.76393  0.61857  1.0000
  C   C344      1.0  0.05681  0.12028  0.97804  1.0000
  C   C345      1.0  0.81477  0.00386  0.94904  1.0000
  Fe  Fe59      1.0  0.85982  0.90539  0.11096  1.0000
  Fe  Fe60      1.0  0.61164  0.23320  0.94207  1.0000
  C   C346      1.0  0.63155  0.14801  0.06058  1.0000
  S   S117      1.0  0.87018  0.19767  0.05216  1.0000
  C   C347      1.0  0.91535  0.84345  0.96870  1.0000
  C   C348      1.0  0.98358  0.97291  0.03049  1.0000
  C   C349      1.0  0.04511  0.99101  0.95884  1.0000
  H   H358      1.0  0.74179  0.08203  0.92392  1.0000
  H   H359      1.0  0.79359  0.13830  0.90926  1.0000
  S   S118      1.0  0.96114  0.31700  0.90620  1.0000
  H   H360      1.0  0.97406  0.83766  0.08472  1.0000
  S   S119      1.0  0.92073  0.11309  0.07848  1.0000
  C   C350      1.0  0.90088  0.88214  0.95961  1.0000
  C   C351      1.0  0.67219  0.12386  0.07216  1.0000
  H   H361      1.0  0.99396  0.91003  0.04030  1.0000
  C   C352      1.0  0.60580  0.06646  0.87897  1.0000
  C   C353      1.0  0.77599  0.06414  0.92654  1.0000
  S   S120      1.0  0.68256  0.26492  0.91973  1.0000
  H   H362      1.0  0.83067  0.31373  0.88621  1.0000
  H   H363      1.0  0.66449  0.09811  0.09211  1.0000
  H   H364      1.0  0.70902  0.93754  0.89608  1.0000
  C   C354      1.0  0.05393  0.10918  0.03382  1.0000
  N   N30       1.0  0.07051  0.95263  0.94862  1.0000
  H   H365      1.0  0.05860  0.01367  0.93534  1.0000
  H   H366      1.0  0.98215  0.03260  0.00833  1.0000
  S   S121      1.0  0.59203  0.21647  0.03009  1.0000
  C   C355      1.0  0.72261  0.13460  0.06109  1.0000
  H   H367      1.0  0.63259  0.89403  0.10110  1.0000
  H   H368      1.0  0.73343  0.01607  0.95436  1.0000
  H   H369      1.0  0.90032  0.91807  0.89350  1.0000
  H   H370      1.0  0.81165  0.97492  0.96270  1.0000
  C   C356      1.0  0.91038  0.88789  0.90055  1.0000
  H   H371      1.0  0.69994  0.21668  0.00227  1.0000
  C   C357      1.0  0.75413  0.89627  0.93272  1.0000
  S   S122      1.0  0.62655  0.98990  0.97038  1.0000
  H   H372      1.0  0.05855  0.28479  0.00986  1.0000
  C   C358      1.0  0.77103  0.02682  0.94420  1.0000
  S   S123      1.0  0.77302  0.10958  0.08571  1.0000
  C   C359      1.0  0.64154  0.18203  0.03627  1.0000
  H   H373      1.0  0.75135  0.91760  0.98050  1.0000
  H   H374      1.0  0.07162  0.89252  0.96733  1.0000
  H   H375      1.0  0.59258  0.14079  0.07150  1.0000
  C   C360      1.0  0.86271  0.01831  0.93611  1.0000
  C   C361      1.0  0.73231  0.16704  0.03372  1.0000
  S   S124      1.0  0.00664  0.14998  0.96081  1.0000
  C   C362      1.0  0.78109  0.85708  0.91801  1.0000
  H   H376      1.0  0.77093  0.17509  0.02413  1.0000
  H   H377      1.0  0.90374  0.06667  0.90820  1.0000
  H   H378      1.0  0.94962  0.98083  0.06242  1.0000
  C   C363      1.0  0.00164  0.00191  0.00023  1.0000
  C   C364      1.0  0.05238  0.92350  0.97690  1.0000
  C   C365      1.0  0.92946  0.32199  0.10862  1.0000
  C   C366      1.0  0.86627  0.05584  0.91869  1.0000
  C   C367      1.0  0.69187  0.19042  0.02075  1.0000
  H   H379      1.0  0.94253  0.28883  0.09414  1.0000
  H   H380      1.0  0.02300  0.12126  0.06864  1.0000
  H   H381      1.0  0.60483  0.03798  0.10051  1.0000
  N   N31       1.0  0.82320  0.07838  0.91454  1.0000
  H   H382      1.0  0.89687  0.00022  0.93875  1.0000
  S   S125      1.0  0.86790  0.92218  0.02057  1.0000
  C   C368      1.0  0.00875  0.93325  0.01840  1.0000
  Fe  Fe61      1.0  0.84475  0.14733  0.09650  1.0000
  Fe  Fe62      1.0  0.94812  0.16624  0.04206  1.0000
  S   S126      1.0  0.63512  0.87147  0.97372  1.0000
  H   H383      1.0  0.79937  0.84869  0.95501  1.0000
  Fe  Fe63      1.0  0.60187  0.92189  0.93743  1.0000
  H   H384      1.0  0.90980  0.83901  0.01393  1.0000
  C   C369      1.0  0.73035  0.90741  0.88556  1.0000
  H   H385      1.0  0.63476  0.04590  0.89135  1.0000
  Fe  Fe64      1.0  0.04519  0.30388  0.88228  1.0000
  C   C370      1.0  0.01489  0.83655  0.08692  1.0000
  H   H386      1.0  0.60323  0.09835  0.91515  1.0000
  C   C371      1.0  0.82783  0.11656  0.89351  1.0000
  H   H387      1.0  0.86130  0.13532  0.91284  1.0000
  C   C372      1.0  0.04666  0.82999  0.03198  1.0000
  S   S127      1.0  0.99611  0.84740  0.21233  1.0000
  C   C373      1.0  0.66196  0.28166  0.14884  1.0000
  H   H388      1.0  0.86918  0.01974  0.20928  1.0000
  C   C374      1.0  0.62529  0.31407  0.32472  1.0000
  C   C375      1.0  0.88391  0.04639  0.30673  1.0000
  H   H389      1.0  0.67544  0.92118  0.29572  1.0000
  H   H390      1.0  0.93688  0.95882  0.32604  1.0000
  C   C376      1.0  0.02680  0.24909  0.33207  1.0000
  C   C377      1.0  0.73336  0.05172  0.30003  1.0000
  S   S128      1.0  0.98311  0.13947  0.24251  1.0000
  H   H391      1.0  0.60983  0.17949  0.19489  1.0000
  S   S129      1.0  0.91666  0.93319  0.18104  1.0000
  C   C378      1.0  0.63753  0.90906  0.30001  1.0000
  H   H392      1.0  0.99988  0.00648  0.22939  1.0000
  C   C379      1.0  0.64546  0.19130  0.21772  1.0000
  H   H393      1.0  0.74531  0.20138  0.19808  1.0000
  S   S130      1.0  0.87002  0.30325  0.20101  1.0000
  S   S131      1.0  0.97109  0.20834  0.13456  1.0000
  H   H394      1.0  0.60071  0.95323  0.26083  1.0000
  H   H395      1.0  0.99527  0.98084  0.35897  1.0000
  Fe  Fe65      1.0  0.89103  0.23480  0.14907  1.0000
  C   C380      1.0  0.02520  0.89672  0.36167  1.0000
  H   H396      1.0  0.99723  0.93908  0.28487  1.0000
  H   H397      1.0  0.03553  0.93414  0.16730  1.0000
  H   H398      1.0  0.73260  0.30722  0.12385  1.0000
  H   H399      1.0  0.72634  0.00552  0.18455  1.0000
  C   C381      1.0  0.88885  0.04390  0.24325  1.0000
  H   H400      1.0  0.70102  0.30545  0.27999  1.0000
  H   H401      1.0  0.93620  0.22269  0.28098  1.0000
  H   H402      1.0  0.96467  0.32737  0.29448  1.0000
  C   C382      1.0  0.91909  0.07294  0.22370  1.0000
  C   C383      1.0  0.93607  0.25438  0.31697  1.0000
  C   C384      1.0  0.71495  0.28328  0.14227  1.0000
  N   N32       1.0  0.98018  0.91890  0.36547  1.0000
  C   C385      1.0  0.63451  0.86887  0.12284  1.0000
  C   C386      1.0  0.68068  0.85944  0.14458  1.0000
  H   H403      1.0  0.67113  0.16294  0.21160  1.0000
  H   H404      1.0  0.66323  0.86108  0.34000  1.0000
  S   S132      1.0  0.79273  0.92694  0.18123  1.0000
  C   C387      1.0  0.74958  0.03381  0.18528  1.0000
  C   C388      1.0  0.69267  0.27173  0.34848  1.0000
  C   C389      1.0  0.63066  0.87524  0.32509  1.0000
  H   H405      1.0  0.05697  0.90059  0.33080  1.0000
  H   H406      1.0  0.63607  0.20676  0.26864  1.0000
  H   H407      1.0  0.96008  0.13059  0.36502  1.0000
  Fe  Fe66      1.0  0.91864  0.86943  0.19739  1.0000
  H   H408      1.0  0.63820  0.30375  0.13445  1.0000
  N   N33       1.0  0.98735  0.27159  0.31837  1.0000
  H   H409      1.0  0.90710  0.27557  0.30604  1.0000
  C   C390      1.0  0.77131  0.10299  0.25675  1.0000
  C   C391      1.0  0.05732  0.96253  0.17008  1.0000
  C   C392      1.0  0.73313  0.08065  0.36050  1.0000
  H   H410      1.0  0.78619  0.25498  0.15519  1.0000
  C   C393      1.0  0.94514  0.10383  0.26754  1.0000
  H   H411      1.0  0.78880  0.02246  0.16556  1.0000
  S   S133      1.0  0.75506  0.25062  0.33299  1.0000
  N   N34       1.0  0.75124  0.06347  0.24895  1.0000
  C   C394      1.0  0.06733  0.03888  0.21086  1.0000
  C   C395      1.0  0.99575  0.30965  0.30630  1.0000
  S   S134      1.0  0.86114  0.18641  0.19354  1.0000
  H   H412      1.0  0.71951  0.01979  0.29467  1.0000
  C   C396      1.0  0.04465  0.32643  0.30913  1.0000
  C   C397      1.0  0.58196  0.85900  0.32886  1.0000
  Fe  Fe67      1.0  0.85045  0.94860  0.25232  1.0000
  C   C398      1.0  0.67548  0.29787  0.31453  1.0000
  H   H413      1.0  0.05228  0.07006  0.23952  1.0000
  S   S135      1.0  0.85629  0.88645  0.27356  1.0000
  C   C399      1.0  0.97703  0.95103  0.33218  1.0000
  C   C400      1.0  0.90947  0.07756  0.35068  1.0000
  C   C401      1.0  0.03597  0.84026  0.14410  1.0000
  H   H414      1.0  0.02014  0.21887  0.34171  1.0000
  C   C402      1.0  0.94037  0.10626  0.33101  1.0000
  S   S136      1.0  0.84699  0.00965  0.33061  1.0000
  C   C403      1.0  0.59570  0.92680  0.28011  1.0000
  H   H415      1.0  0.78788  0.16386  0.32252  1.0000
  C   C404      1.0  0.74502  0.25401  0.15974  1.0000
  C   C405      1.0  0.77198  0.13256  0.31665  1.0000
  N   N35       1.0  0.66955  0.22213  0.18989  1.0000
  H   H416      1.0  0.78694  0.11181  0.21648  1.0000
  Fe  Fe68      1.0  0.80254  0.86285  0.19738  1.0000
  H   H417      1.0  0.59849  0.24985  0.17811  1.0000
  C   C406      1.0  0.72159  0.22356  0.18375  1.0000
  H   H418      1.0  0.92307  0.07084  0.17457  1.0000
  C   C407      1.0  0.03742  0.00296  0.20503  1.0000
  C   C408      1.0  0.63974  0.25093  0.17333  1.0000
  Fe  Fe69      1.0  0.93979  0.15710  0.17143  1.0000
  H   H419      1.0  0.71445  0.87556  0.13593  1.0000
  H   H420      1.0  0.73230  0.05012  0.15408  1.0000
  C   C409      1.0  0.59079  0.84658  0.13063  1.0000
  S   S137      1.0  0.86575  0.83970  0.12263  1.0000
  C   C410      1.0  0.07606  0.26505  0.33525  1.0000
  C   C411      1.0  0.68283  0.82915  0.17699  1.0000
  H   H421      1.0  0.92445  0.24992  0.36304  1.0000
  Fe  Fe70      1.0  0.60250  0.00092  0.44757  1.0000
  H   H422      1.0  0.99413  0.84101  0.46391  1.0000
  Fe  Fe71      1.0  0.78802  0.26040  0.42528  1.0000
  C   C412      1.0  0.94365  0.88473  0.43859  1.0000
  H   H423      1.0  0.99328  0.22770  0.59303  1.0000
  H   H424      1.0  0.67233  0.24067  0.41845  1.0000
  H   H425      1.0  0.90647  0.07892  0.39955  1.0000
  S   S138      1.0  0.00991  0.13360  0.56324  1.0000
  C   C413      1.0  0.96407  0.06038  0.49973  1.0000
  H   H426      1.0  0.06717  0.85200  0.39440  1.0000
  H   H427      1.0  0.91143  0.88130  0.46938  1.0000
  C   C414      1.0  0.61428  0.18119  0.50932  1.0000
  H   H428      1.0  0.63027  0.97575  0.60583  1.0000
  C   C415      1.0  0.60907  0.27808  0.40363  1.0000
  C   C416      1.0  0.93956  0.91311  0.40310  1.0000
  H   H429      1.0  0.98159  0.06516  0.45743  1.0000
  H   H430      1.0  0.90535  0.17930  0.58451  1.0000
  S   S139      1.0  0.59043  0.04305  0.54641  1.0000
  H   H431      1.0  0.75160  0.14391  0.41552  1.0000
  C   C417      1.0  0.05442  0.28279  0.48599  1.0000
  C   C418      1.0  0.68398  0.18187  0.57595  1.0000
  Fe  Fe72      1.0  0.06986  0.11256  0.48326  1.0000
  S   S140      1.0  0.87756  0.97113  0.54417  1.0000
  C   C419      1.0  0.78499  0.90153  0.41698  1.0000
  Fe  Fe73      1.0  0.88394  0.25768  0.49164  1.0000
  C   C420      1.0  0.79147  0.07877  0.59778  1.0000
  C   C421      1.0  0.70465  0.88886  0.46622  1.0000
  C   C422      1.0  0.65953  0.26178  0.39316  1.0000
  C   C423      1.0  0.71292  0.95067  0.42863  1.0000
  S   S141      1.0  0.82671  0.20852  0.45295  1.0000
  Fe  Fe74      1.0  0.78318  0.23634  0.54565  1.0000
  C   C424      1.0  0.93377  0.02487  0.49577  1.0000
  C   C425      1.0  0.75463  0.87568  0.44303  1.0000
  C   C426      1.0  0.91893  0.04744  0.60875  1.0000
  C   C427      1.0  0.00132  0.28486  0.49637  1.0000
  C   C428      1.0  0.68428  0.92695  0.46036  1.0000
  C   C429      1.0  0.60367  0.15122  0.59571  1.0000
  S   S142      1.0  0.73990  0.28453  0.51502  1.0000
  C   C430      1.0  0.97052  0.09015  0.55806  1.0000
  C   C431      1.0  0.98982  0.86247  0.43573  1.0000
  H   H432      1.0  0.78640  0.95741  0.38518  1.0000
  H   H433      1.0  0.58344  0.27019  0.43795  1.0000
  C   C432      1.0  0.82044  0.08249  0.49543  1.0000
  S   S143      1.0  0.68372  0.99262  0.40878  1.0000
  H   H434      1.0  0.05984  0.04792  0.59418  1.0000
  H   H435      1.0  0.82140  0.06971  0.44487  1.0000
  S   S144      1.0  0.74555  0.19565  0.59802  1.0000
  H   H436      1.0  0.68142  0.86944  0.48778  1.0000
  S   S145      1.0  0.96639  0.23847  0.47321  1.0000
  H   H437      1.0  0.59939  0.18804  0.46925  1.0000
  S   S146      1.0  0.06308  0.09281  0.37870  1.0000
  S   S147      1.0  0.84857  0.30800  0.45670  1.0000
  H   H438      1.0  0.77301  0.03279  0.51063  1.0000
  H   H439      1.0  0.92701  0.00317  0.45033  1.0000
  H   H440      1.0  0.71872  0.07140  0.40090  1.0000
  H   H441      1.0  0.86962  0.13433  0.49469  1.0000
  C   C433      1.0  0.94685  0.08428  0.61246  1.0000
  S   S148      1.0  0.84377  0.28160  0.58743  1.0000
  C   C434      1.0  0.66467  0.19119  0.52445  1.0000
  C   C435      1.0  0.91234  0.01757  0.55032  1.0000
  C   C436      1.0  0.76383  0.93872  0.40864  1.0000
  C   C437      1.0  0.03085  0.86850  0.39691  1.0000
  H   H442      1.0  0.68857  0.20575  0.49617  1.0000
  H   H443      1.0  0.64592  0.93702  0.47859  1.0000
  C   C438      1.0  0.79287  0.06192  0.53255  1.0000
  C   C439      1.0  0.65346  0.16209  0.61160  1.0000
  N   N36       1.0  0.84657  0.13497  0.58800  1.0000
  C   C440      1.0  0.87467  0.17357  0.61735  1.0000
  H   H444      1.0  0.07404  0.25223  0.46372  1.0000
  C   C441      1.0  0.84747  0.11904  0.52398  1.0000
  C   C442      1.0  0.97609  0.32400  0.52699  1.0000
  H   H445      1.0  0.82391  0.89159  0.40048  1.0000
  H   H446      1.0  0.93521  0.32552  0.53638  1.0000
  C   C443      1.0  0.58383  0.16112  0.54511  1.0000
  H   H447      1.0  0.90390  0.93107  0.40690  1.0000
  C   C444      1.0  0.58600  0.31962  0.59413  1.0000
  C   C445      1.0  0.75210  0.12137  0.36870  1.0000
  C   C446      1.0  0.59194  0.30407  0.36901  1.0000
  H   H448      1.0  0.99029  0.25052  0.67766  1.0000
  C   C447      1.0  0.06720  0.01419  0.81428  1.0000
  C   C448      1.0  0.01912  0.14921  0.79546  1.0000
  H   H449      1.0  0.84808  0.20185  0.63244  1.0000
  H   H450      1.0  0.72226  0.08879  0.73057  1.0000
  H   H451      1.0  0.69685  0.83290  0.67023  1.0000
  N   N37       1.0  0.61934  0.07113  0.81687  1.0000
  Fe  Fe75      1.0  0.90743  0.96399  0.75960  1.0000
  H   H452      1.0  0.83213  0.10699  0.84138  1.0000
  C   C449      1.0  0.66412  0.97181  0.74884  1.0000
  C   C450      1.0  0.68287  0.08338  0.74263  1.0000
  S   S149      1.0  0.84720  0.92414  0.78686  1.0000
  C   C451      1.0  0.86838  0.27635  0.75851  1.0000
  C   C452      1.0  0.93149  0.85401  0.84999  1.0000
  H   H453      1.0  0.93003  0.24867  0.79428  1.0000
  H   H454      1.0  0.02571  0.01528  0.63277  1.0000
  C   C453      1.0  0.06118  0.11661  0.69274  1.0000
  S   S150      1.0  0.92575  0.91727  0.66454  1.0000
  N   N38       1.0  0.78464  0.82999  0.85787  1.0000
  H   H455      1.0  0.68564  0.28321  0.68845  1.0000
  H   H456      1.0  0.01127  0.17688  0.83661  1.0000
  H   H457      1.0  0.60564  0.24388  0.66379  1.0000
  H   H458      1.0  0.93679  0.85787  0.80364  1.0000
  H   H459      1.0  0.06406  0.18392  0.74441  1.0000
  C   C454      1.0  0.59468  0.07716  0.71826  1.0000
  C   C455      1.0  0.86059  0.21422  0.79615  1.0000
  H   H460      1.0  0.61130  0.96567  0.82290  1.0000
  H   H461      1.0  0.89308  0.17052  0.65914  1.0000
  C   C456      1.0  0.03038  0.98355  0.79387  1.0000
  C   C457      1.0  0.76120  0.84063  0.81150  1.0000
  S   S151      1.0  0.85051  0.00283  0.72715  1.0000
  S   S152      1.0  0.80222  0.91062  0.64900  1.0000
  H   H462      1.0  0.65550  0.08648  0.65528  1.0000
  C   C458      1.0  0.81806  0.11596  0.62493  1.0000
  Fe  Fe76      1.0  0.86179  0.87925  0.68967  1.0000
  C   C459      1.0  0.65578  0.83001  0.67253  1.0000
  H   H463      1.0  0.80036  0.29577  0.72402  1.0000
  H   H464      1.0  0.05591  0.04492  0.84726  1.0000
  C   C460      1.0  0.80890  0.21212  0.78383  1.0000
  H   H465      1.0  0.71504  0.88779  0.78782  1.0000
  C   C461      1.0  0.81741  0.27310  0.74407  1.0000
  C   C462      1.0  0.04471  0.94407  0.74989  1.0000
  H   H466      1.0  0.66810  0.15605  0.65232  1.0000
  S   S153      1.0  0.90294  0.31941  0.74847  1.0000
  H   H467      1.0  0.97625  0.10608  0.83389  1.0000
  C   C463      1.0  0.78781  0.24114  0.75686  1.0000
  H   H468      1.0  0.06487  0.84764  0.77147  1.0000
  H   H469      1.0  0.77030  0.06281  0.62682  1.0000
  C   C464      1.0  0.61572  0.96713  0.77516  1.0000
  C   C465      1.0  0.61242  0.27173  0.64820  1.0000
  C   C466      1.0  0.66958  0.97378  0.68706  1.0000
  N   N39       1.0  0.04174  0.07782  0.69181  1.0000
  H   H470      1.0  0.74878  0.23863  0.74471  1.0000
  H   H471      1.0  0.81597  0.12952  0.67560  1.0000
  N   N40       1.0  0.05281  0.26997  0.62901  1.0000
  C   C467      1.0  0.64538  0.08280  0.70099  1.0000
  S   S154      1.0  0.04203  0.31884  0.79184  1.0000
  C   C468      1.0  0.01079  0.07412  0.74122  1.0000
  H   H472      1.0  0.70693  0.97748  0.66642  1.0000
  H   H473      1.0  0.99476  0.04359  0.74000  1.0000
  H   H474      1.0  0.01654  0.92001  0.73435  1.0000
  C   C469      1.0  0.99948  0.10954  0.79400  1.0000
  Fe  Fe77      1.0  0.79197  0.95809  0.74484  1.0000
  H   H475      1.0  0.64170  0.88472  0.64091  1.0000
  S   S155      1.0  0.64733  0.23850  0.77595  1.0000
  S   S156      1.0  0.62467  0.17495  0.85946  1.0000
  C   C470      1.0  0.66911  0.07719  0.80054  1.0000
  C   C471      1.0  0.89033  0.24660  0.78384  1.0000
  S   S157      1.0  0.59700  0.87650  0.84047  1.0000
  Fe  Fe78      1.0  0.69240  0.20810  0.83349  1.0000
  S   S158      1.0  0.96697  0.99621  0.82432  1.0000
  H   H476      1.0  0.69847  0.07722  0.83228  1.0000
  C   C472      1.0  0.73363  0.87938  0.82461  1.0000
  H   H477      1.0  0.87719  0.19179  0.81693  1.0000
  S   S159      1.0  0.76963  0.17510  0.80522  1.0000
  S   S160      1.0  0.71605  0.97927  0.79645  1.0000
  C   C473      1.0  0.65743  0.29400  0.66269  1.0000
  C   C474      1.0  0.04938  0.15301  0.74404  1.0000
  C   C475      1.0  0.62475  0.85920  0.65624  1.0000
  C   C476      1.0  0.62614  0.97311  0.65292  1.0000
  C   C477      1.0  0.05576  0.03964  0.63882  1.0000
  H   H478      1.0  0.90183  0.04270  0.65094  1.0000
  C   C478      1.0  0.99971  0.25698  0.63239  1.0000
  Fe  Fe79      1.0  0.86497  0.95337  0.63321  1.0000
  H   H479      1.0  0.95094  0.10775  0.65754  1.0000
  H   H480      1.0  0.97267  0.28215  0.62821  1.0000
  C   C479      1.0  0.06408  0.31247  0.64702  1.0000
  Fe  Fe80      1.0  0.63264  0.29319  0.86370  1.0000
  C   C480      1.0  0.58214  0.07160  0.77688  1.0000
