data_image0
_chemical_formula_structural       FeS2FeS2FeSFeS3NFeS2FeSHFeSFeHS2FeS2FeS2FeSFeS3FeHCFeS2FeSFeHS3FeS2NFeS2CHC5NH2C6H4C6H6CSH2C8H5C2SHC6H4C6H4C6H4C6H5NC6H8CH4C4H2C2NC2H4C2H4CH4C4HNH3CHNC2H3FeHC3NHCH5CH2SCHCHCH2C5HCH2C5NC2H3C3H3SH3C2H3CSH3FeSHNSNHSC3SCHC4H4CH2CHCHC3SHCHCH2C2H2CH2C2SCSFeCH2FeS2FeS2FeSFeS3CNCH3SH2CH2C3FeHSNHSCHC2HCHC3HSCH3C5HSFeHC2FeH2CH4C3NH3C9H2C3NHC6H2C3H4CH2C3HC2HC2H2C2H2CH2NH5CH2C2H2C2HNC2S2HS2CSFe2SFeS4H3CHCSCH3FeH2CHC7H3CHSHFeC2SCH2Fe2C2HC3FeC2H3NH3CH2CH3SH2FeHCNC2HC3HCHCNHSH5C2S3HCH2SH2CSC3H2CH3C2FeH2FeSHFeS2FeHFeS3FeS2FeSFe2S4HFeSFeHFeS2FeS2FeSFeS3FeS2FeCSCSFeHS2H4C6H4C6H4C2N2HC6H4C6H4C6H3C6H2C3HNH2SFeNC6H9C2HC3HNC4H6NH2SCHC2SC2HSFeHC3HCNC6H8C2SCH4CSC2H3CHSHC2H3CH2C2H4CHSC5HSCNH2CSC4HC2H2FeC2H2C2H3C3H5CHFeS2HCHCH3CH3C2HNCHC2H3C3H2C2H2FeSFeS3FeS2FeS2FeSFeS3FeSFeH2CS2FeS2FeHSFeCFeS3FeS2FeS2FeNFeS3CHCH2CHCFeHCSH2C2H2C2HNHC2H2C6H4C6H4C6H4C6H4C6H8CSH2C2SC2SHFeNC6H8NC6H6CH2CHCHNCSFeC2SC2H2SCNCSC2H2CH2C2H3SC2H3FeH4SNC2HC2NHCH2CHCH7CH4SCHC3H5C3NCH2C2HC3HCH2C4NC2HFeS2FeHSFeSHS2CH2SC2FeCH2C3SHCNCHC3SH3C2HCH3C3HCH2NH3SH2C6NH2C5HCHCHCHC4SHS2C2HC2HCHCHCHC2H3C2H2FeH3SH2SHSNHCSFeH2CSCHCFeSCFeSCFeSFeS3CHC3SCH5CHCHFeHCHC2H2NC2HSHSHC2HC3H3SHSC2SCNC4H6CHC5H2CH3SC2FeHC3H3C11H3CSCSFe2HC2HC2FeC2SCHCNH4FeCHCNHCH2CH6SC3HSHNFeS2FeS2FeSFeS3CH3NHFeS2FeHFeSFeSFeS2FeS2FeSFeS3FeS2CH2FeS2C6H5CHNC6H4SC6H6FeC6H4C6H4C6H4C6H5SC5H5CSH3SH4CH2CSCH2SC3H2C2HNH2C3HNC4H2CH3CHFeC5H4C3NCHCH4CH2C2H2C2H3C3FeNHC2H2CH2CHCSH2CSHCS2C2HCHC2HCH9NHCHNC4HSFeCHCSCFeS2HCH2SC2H2CFeNH3FeHC2SHNC2H3CHCH3
_chemical_formula_sum              "Fe116 S232 N58 H696 C696"
_cell_length_a       55.7438
_cell_length_b       55.6832
_cell_length_c       50.7729
_cell_angle_alpha    81.9011
_cell_angle_beta     82.7886
_cell_angle_gamma    81.5808

_space_group_name_H-M_alt    "P 1"
_space_group_IT_number       1

loop_
  _space_group_symop_operation_xyz
  'x, y, z'

loop_
  _atom_site_type_symbol
  _atom_site_label
  _atom_site_symmetry_multiplicity
  _atom_site_fract_x
  _atom_site_fract_y
  _atom_site_fract_z
  _atom_site_occupancy
  Fe  Fe1       1.0  0.10078  0.12880  0.13949  1.0000
  S   S1        1.0  0.08407  0.13716  0.18065  1.0000
  S   S2        1.0  0.07974  0.11810  0.10838  1.0000
  Fe  Fe2       1.0  0.14980  0.14446  0.14621  1.0000
  S   S3        1.0  0.13666  0.15338  0.18728  1.0000
  S   S4        1.0  0.18873  0.15163  0.13466  1.0000
  Fe  Fe3       1.0  0.12025  0.11869  0.19312  1.0000
  S   S5        1.0  0.12839  0.09638  0.23207  1.0000
  Fe  Fe4       1.0  0.10254  0.17110  0.17072  1.0000
  S   S6        1.0  0.09314  0.20939  0.18123  1.0000
  S   S7        1.0  0.13590  0.10790  0.15292  1.0000
  S   S8        1.0  0.11652  0.16450  0.12872  1.0000
  N   N1        1.0  0.07417  0.01862  0.06372  1.0000
  Fe  Fe5       1.0  0.23562  0.27055  0.14072  1.0000
  S   S9        1.0  0.24385  0.25245  0.18114  1.0000
  S   S10       1.0  0.20016  0.26371  0.12800  1.0000
  Fe  Fe6       1.0  0.28236  0.29434  0.13198  1.0000
  S   S11       1.0  0.29422  0.27770  0.17202  1.0000
  H   H1        1.0  0.37671  0.31944  0.13716  1.0000
  Fe  Fe7       1.0  0.28178  0.24380  0.16214  1.0000
  S   S12       1.0  0.29714  0.20475  0.17246  1.0000
  Fe  Fe8       1.0  0.25495  0.28811  0.18676  1.0000
  H   H2        1.0  0.08231  0.08675  0.04351  1.0000
  S   S13       1.0  0.27301  0.25930  0.12081  1.0000
  S   S14       1.0  0.11644  0.30837  0.31924  1.0000
  Fe  Fe9       1.0  0.26113  0.15501  0.31082  1.0000
  S   S15       1.0  0.27821  0.11837  0.29990  1.0000
  S   S16       1.0  0.28093  0.18759  0.29829  1.0000
  Fe  Fe10      1.0  0.21471  0.13612  0.33710  1.0000
  S   S17       1.0  0.22787  0.09762  0.32859  1.0000
  S   S18       1.0  0.17651  0.14650  0.35525  1.0000
  Fe  Fe11      1.0  0.26331  0.10441  0.34131  1.0000
  S   S19       1.0  0.28769  0.07633  0.36566  1.0000
  Fe  Fe12      1.0  0.24139  0.11559  0.28824  1.0000
  S   S20       1.0  0.23678  0.10512  0.24834  1.0000
  S   S21       1.0  0.24886  0.14150  0.35337  1.0000
  S   S22       1.0  0.22550  0.15356  0.29568  1.0000
  Fe  Fe13      1.0  0.07806  0.29985  0.33096  1.0000
  H   H3        1.0  0.32967  0.01531  0.46688  1.0000
  C   C1        1.0  0.20237  0.04683  0.21763  1.0000
  Fe  Fe14      1.0  0.08952  0.24862  0.31435  1.0000
  S   S23       1.0  0.12875  0.25279  0.30235  1.0000
  S   S24       1.0  0.07741  0.21402  0.30593  1.0000
  Fe  Fe15      1.0  0.12635  0.27039  0.33967  1.0000
  S   S25       1.0  0.15748  0.25920  0.36453  1.0000
  Fe  Fe16      1.0  0.11448  0.28981  0.28332  1.0000
  H   H4        1.0  0.27706  0.08887  0.43089  1.0000
  S   S26       1.0  0.08813  0.26291  0.35382  1.0000
  S   S27       1.0  0.07522  0.28475  0.29293  1.0000
  S   S28       1.0  0.48119  0.04991  0.43533  1.0000
  Fe  Fe17      1.0  0.44185  0.06291  0.44672  1.0000
  S   S29       1.0  0.42828  0.10227  0.45090  1.0000
  S   S30       1.0  0.12767  0.29954  0.24033  1.0000
  N   N2        1.0  0.21014  0.26954  0.30351  1.0000
  Fe  Fe18      1.0  0.39368  0.09361  0.43789  1.0000
  S   S31       1.0  0.37073  0.11994  0.41036  1.0000
  S   S32       1.0  0.40862  0.05521  0.43011  1.0000
  C   C2        1.0  0.15886  0.30168  0.23610  1.0000
  H   H5        1.0  0.32140  0.14566  0.30439  1.0000
  C   C3        1.0  0.33650  0.14635  0.31573  1.0000
  C   C4        1.0  0.23230  0.27136  0.28888  1.0000
  C   C5        1.0  0.20803  0.21344  0.06787  1.0000
  C   C6        1.0  0.37477  0.14877  0.34484  1.0000
  C   C7        1.0  0.06435  0.03123  0.04160  1.0000
  N   N3        1.0  0.22479  0.19315  0.07238  1.0000
  H   H6        1.0  0.38934  0.14928  0.35701  1.0000
  H   H7        1.0  0.20815  0.04992  0.19637  1.0000
  C   C8        1.0  0.17175  0.17708  0.36156  1.0000
  C   C9        1.0  0.14792  0.18853  0.36688  1.0000
  C   C10       1.0  0.14359  0.21369  0.36868  1.0000
  C   C11       1.0  0.16312  0.22723  0.36651  1.0000
  C   C12       1.0  0.18706  0.21552  0.36275  1.0000
  C   C13       1.0  0.19135  0.19056  0.35961  1.0000
  H   H8        1.0  0.13269  0.17818  0.36878  1.0000
  H   H9        1.0  0.12507  0.22258  0.37176  1.0000
  H   H10       1.0  0.20224  0.22592  0.36107  1.0000
  H   H11       1.0  0.20980  0.18185  0.35556  1.0000
  C   C14       1.0  0.31089  0.08849  0.37779  1.0000
  C   C15       1.0  0.31020  0.11376  0.37711  1.0000
  C   C16       1.0  0.32843  0.12321  0.38758  1.0000
  C   C17       1.0  0.34760  0.10747  0.39855  1.0000
  C   C18       1.0  0.34834  0.08217  0.39926  1.0000
  C   C19       1.0  0.33006  0.07271  0.38878  1.0000
  H   H12       1.0  0.29564  0.12611  0.36858  1.0000
  H   H13       1.0  0.32775  0.14281  0.38702  1.0000
  H   H14       1.0  0.36307  0.06988  0.40763  1.0000
  H   H15       1.0  0.33074  0.05312  0.38930  1.0000
  H   H16       1.0  0.20737  0.30575  0.31456  1.0000
  H   H17       1.0  0.14204  0.04606  0.21649  1.0000
  C   C20       1.0  0.18764  0.04057  0.27210  1.0000
  S   S33       1.0  0.02727  0.02265  0.12450  1.0000
  H   H18       1.0  0.44969  0.01426  0.43030  1.0000
  H   H19       1.0  0.17913  0.29317  0.31768  1.0000
  C   C21       1.0  0.31792  0.03135  0.45902  1.0000
  C   C22       1.0  0.19891  0.28862  0.32003  1.0000
  C   C23       1.0  0.29493  0.19902  0.20738  1.0000
  C   C24       1.0  0.28751  0.17706  0.22039  1.0000
  C   C25       1.0  0.28327  0.17346  0.24835  1.0000
  C   C26       1.0  0.28763  0.19126  0.26342  1.0000
  C   C27       1.0  0.29598  0.21281  0.25043  1.0000
  C   C28       1.0  0.29905  0.21695  0.22241  1.0000
  H   H20       1.0  0.28447  0.16310  0.20882  1.0000
  H   H21       1.0  0.27650  0.15693  0.25808  1.0000
  H   H22       1.0  0.29953  0.22656  0.26200  1.0000
  H   H23       1.0  0.30492  0.23388  0.21242  1.0000
  H   H24       1.0  0.19809  0.16851  0.07627  1.0000
  C   C29       1.0  0.06279  0.31477  0.43162  1.0000
  C   C30       1.0  0.46683  0.00468  0.43624  1.0000
  S   S34       1.0  0.24092  0.30330  0.22515  1.0000
  H   H25       1.0  0.09603  0.11426  0.28325  1.0000
  C   C31       1.0  0.08873  0.21021  0.21591  1.0000
  C   C32       1.0  0.09775  0.22846  0.22665  1.0000
  C   C33       1.0  0.09388  0.22986  0.25419  1.0000
  C   C34       1.0  0.08109  0.21295  0.27124  1.0000
  C   C35       1.0  0.07211  0.19461  0.26053  1.0000
  C   C36       1.0  0.07611  0.19311  0.23287  1.0000
  H   H26       1.0  0.10798  0.24141  0.21380  1.0000
  H   H27       1.0  0.10083  0.24411  0.26213  1.0000
  H   H28       1.0  0.06216  0.18151  0.27363  1.0000
  H   H29       1.0  0.06899  0.17904  0.22463  1.0000
  C   C37       1.0  0.15786  0.10120  0.23690  1.0000
  C   C38       1.0  0.17508  0.10517  0.21474  1.0000
  C   C39       1.0  0.19917  0.10707  0.21838  1.0000
  C   C40       1.0  0.20599  0.10569  0.24418  1.0000
  C   C41       1.0  0.18852  0.10296  0.26636  1.0000
  C   C42       1.0  0.16455  0.10026  0.26273  1.0000
  H   H30       1.0  0.17014  0.10582  0.19472  1.0000
  H   H31       1.0  0.21264  0.10905  0.20118  1.0000
  H   H32       1.0  0.19370  0.10188  0.28635  1.0000
  H   H33       1.0  0.15135  0.09713  0.27995  1.0000
  C   C43       1.0  0.19158  0.18265  0.13471  1.0000
  C   C44       1.0  0.21417  0.18960  0.13765  1.0000
  C   C45       1.0  0.21668  0.21445  0.13696  1.0000
  C   C46       1.0  0.19676  0.23243  0.13245  1.0000
  C   C47       1.0  0.17419  0.22539  0.12973  1.0000
  C   C48       1.0  0.17151  0.20058  0.13126  1.0000
  H   H34       1.0  0.22978  0.17580  0.14036  1.0000
  H   H35       1.0  0.23423  0.21970  0.13899  1.0000
  H   H36       1.0  0.15878  0.23910  0.12603  1.0000
  H   H37       1.0  0.15401  0.19542  0.12904  1.0000
  C   C49       1.0  0.06278  0.09309  0.11537  1.0000
  C   C50       1.0  0.04559  0.09080  0.09816  1.0000
  C   C51       1.0  0.03395  0.06961  0.10115  1.0000
  C   C52       1.0  0.03944  0.05060  0.12147  1.0000
  C   C53       1.0  0.05609  0.05321  0.13915  1.0000
  C   C54       1.0  0.06771  0.07438  0.13616  1.0000
  H   H38       1.0  0.04162  0.10526  0.08210  1.0000
  H   H39       1.0  0.02105  0.06785  0.08753  1.0000
  H   H40       1.0  0.06028  0.03863  0.15502  1.0000
  H   H41       1.0  0.08090  0.07597  0.14953  1.0000
  H   H42       1.0  0.32669  0.10054  0.31995  1.0000
  N   N4        1.0  0.20848  0.18701  0.20664  1.0000
  C   C55       1.0  0.18559  0.18532  0.20062  1.0000
  C   C56       1.0  0.21321  0.20756  0.21586  1.0000
  C   C57       1.0  0.16682  0.20485  0.20310  1.0000
  C   C58       1.0  0.19484  0.22735  0.21885  1.0000
  C   C59       1.0  0.17155  0.22600  0.21226  1.0000
  C   C60       1.0  0.22824  0.16684  0.20330  1.0000
  H   H43       1.0  0.18198  0.16906  0.19312  1.0000
  H   H44       1.0  0.23150  0.20888  0.22029  1.0000
  H   H45       1.0  0.14888  0.20377  0.19742  1.0000
  H   H46       1.0  0.19879  0.24390  0.22555  1.0000
  H   H47       1.0  0.15729  0.24144  0.21396  1.0000
  H   H48       1.0  0.23360  0.15805  0.22314  1.0000
  H   H49       1.0  0.22286  0.15251  0.19286  1.0000
  H   H50       1.0  0.24437  0.17377  0.19104  1.0000
  C   C61       1.0  0.24357  0.25261  0.27416  1.0000
  H   H51       1.0  0.27064  0.04830  0.42118  1.0000
  H   H52       1.0  0.09351  0.31959  0.46651  1.0000
  H   H53       1.0  0.30184  0.11412  0.44539  1.0000
  H   H54       1.0  0.18114  0.24802  0.31517  1.0000
  C   C62       1.0  0.23245  0.23161  0.27516  1.0000
  C   C63       1.0  0.01943  0.31701  0.43000  1.0000
  C   C64       1.0  0.20988  0.22989  0.29009  1.0000
  C   C65       1.0  0.19877  0.24933  0.30385  1.0000
  H   H55       1.0  0.09366  0.02026  0.09683  1.0000
  H   H56       1.0  0.07781  0.26049  0.17465  1.0000
  C   C66       1.0  0.10797  0.30697  0.18110  1.0000
  C   C67       1.0  0.20915  0.30403  0.22883  1.0000
  N   N5        1.0  0.35121  0.12542  0.32394  1.0000
  C   C68       1.0  0.37046  0.12647  0.33786  1.0000
  C   C69       1.0  0.34658  0.10188  0.31719  1.0000
  H   H57       1.0  0.38202  0.10992  0.34471  1.0000
  H   H58       1.0  0.35373  0.09989  0.29609  1.0000
  H   H59       1.0  0.35513  0.08627  0.33056  1.0000
  H   H60       1.0  0.24143  0.21661  0.26461  1.0000
  C   C70       1.0  0.34037  0.16897  0.32225  1.0000
  C   C71       1.0  0.35953  0.17011  0.33707  1.0000
  H   H61       1.0  0.16391  0.29008  0.19685  1.0000
  H   H62       1.0  0.10577  0.11788  0.32910  1.0000
  H   H63       1.0  0.09996  0.06360  0.08345  1.0000
  H   H64       1.0  0.12746  0.15180  0.33604  1.0000
  C   C72       1.0  0.06723  0.05587  0.03387  1.0000
  H   H65       1.0  0.22408  0.16270  0.05174  1.0000
  H   H66       1.0  0.32835  0.18544  0.31609  1.0000
  H   H67       1.0  0.36241  0.18744  0.34277  1.0000
  H   H68       1.0  0.20120  0.21349  0.29142  1.0000
  C   C73       1.0  0.12731  0.30370  0.16098  1.0000
  C   C74       1.0  0.11103  0.13103  0.31228  1.0000
  C   C75       1.0  0.10552  0.12904  0.28668  1.0000
  C   C76       1.0  0.12326  0.15027  0.31610  1.0000
  H   H69       1.0  0.06538  0.27623  0.21713  1.0000
  N   N6        1.0  0.30687  0.07500  0.45382  1.0000
  H   H70       1.0  0.05895  0.06597  0.01669  1.0000
  H   H71       1.0  0.29700  0.01107  0.43921  1.0000
  H   H72       1.0  0.16230  0.06090  0.19175  1.0000
  C   C77       1.0  0.04326  0.30844  0.42041  1.0000
  H   H73       1.0  0.22451  0.04496  0.27738  1.0000
  N   N7        1.0  0.12971  0.16709  0.29502  1.0000
  C   C78       1.0  0.11256  0.14603  0.26527  1.0000
  C   C79       1.0  0.12892  0.28429  0.14597  1.0000
  H   H74       1.0  0.16513  0.02771  0.19696  1.0000
  H   H75       1.0  0.22663  0.15527  0.08734  1.0000
  H   H76       1.0  0.24121  0.28756  0.28801  1.0000
  Fe  Fe19      1.0  0.00241  0.01366  0.09617  1.0000
  H   H77       1.0  0.10822  0.14470  0.24533  1.0000
  C   C80       1.0  0.11089  0.26876  0.15079  1.0000
  C   C81       1.0  0.12488  0.16494  0.26976  1.0000
  C   C82       1.0  0.21813  0.16874  0.07172  1.0000
  N   N8        1.0  0.09093  0.29107  0.18642  1.0000
  H   H78       1.0  0.12977  0.17830  0.25302  1.0000
  C   C83       1.0  0.14188  0.18740  0.29983  1.0000
  H   H79       1.0  0.14382  0.20106  0.28181  1.0000
  H   H80       1.0  0.23778  0.05047  0.22872  1.0000
  H   H81       1.0  0.13075  0.19715  0.31581  1.0000
  H   H82       1.0  0.20084  0.28199  0.34146  1.0000
  H   H83       1.0  0.18951  0.21159  0.06478  1.0000
  C   C84       1.0  0.21926  0.04695  0.23579  1.0000
  H   H84       1.0  0.16016  0.18031  0.30635  1.0000
  H   H85       1.0  0.18152  0.03877  0.29334  1.0000
  S   S35       1.0  0.99812  0.03083  0.05400  1.0000
  C   C85       1.0  0.07135  0.29414  0.20832  1.0000
  H   H86       1.0  0.15224  0.03898  0.26046  1.0000
  C   C86       1.0  0.24803  0.19551  0.07670  1.0000
  H   H87       1.0  0.26130  0.17944  0.08037  1.0000
  C   C87       1.0  0.21426  0.23685  0.06814  1.0000
  H   H88       1.0  0.20069  0.25287  0.06571  1.0000
  H   H89       1.0  0.14418  0.28132  0.13073  1.0000
  C   C88       1.0  0.17118  0.04068  0.25339  1.0000
  C   C89       1.0  0.25485  0.21864  0.07721  1.0000
  C   C90       1.0  0.23778  0.23940  0.07298  1.0000
  C   C91       1.0  0.09046  0.05443  0.07119  1.0000
  C   C92       1.0  0.28841  0.07278  0.43926  1.0000
  H   H90       1.0  0.26082  0.25449  0.26205  1.0000
  C   C93       1.0  0.21178  0.04390  0.26318  1.0000
  H   H91       1.0  0.27308  0.22044  0.08142  1.0000
  H   H92       1.0  0.41235  0.32244  0.10256  1.0000
  C   C94       1.0  0.16122  0.04454  0.20698  1.0000
  C   C95       1.0  0.09169  0.27272  0.17092  1.0000
  C   C96       1.0  0.29955  0.02898  0.44363  1.0000
  C   C97       1.0  0.17016  0.30913  0.25610  1.0000
  C   C98       1.0  0.17255  0.29585  0.21236  1.0000
  N   N9        1.0  0.17861  0.04401  0.22653  1.0000
  C   C99       1.0  0.19527  0.31076  0.25220  1.0000
  C   C100      1.0  0.08684  0.02996  0.07865  1.0000
  H   H93       1.0  0.24252  0.25743  0.07413  1.0000
  H   H94       1.0  0.05399  0.02235  0.02996  1.0000
  H   H95       1.0  0.11185  0.25346  0.13941  1.0000
  C   C101      1.0  0.08045  0.06747  0.04876  1.0000
  C   C102      1.0  0.19765  0.29693  0.20879  1.0000
  C   C103      1.0  0.48546  0.01785  0.43986  1.0000
  H   H96       1.0  0.10711  0.32185  0.19302  1.0000
  H   H97       1.0  0.20796  0.29236  0.19038  1.0000
  H   H98       1.0  0.00417  0.31261  0.42108  1.0000
  S   S36       1.0  0.24386  0.30737  0.14751  1.0000
  H   H99       1.0  0.07775  0.30176  0.22494  1.0000
  H   H100      1.0  0.04660  0.29763  0.40377  1.0000
  H   H101      1.0  0.33571  0.05623  0.47593  1.0000
  C   C104      1.0  0.28463  0.04979  0.43373  1.0000
  C   C105      1.0  0.31099  0.09921  0.45911  1.0000
  H   H102      1.0  0.05551  0.30657  0.20093  1.0000
  H   H103      1.0  0.08127  0.30864  0.42349  1.0000
  H   H104      1.0  0.14128  0.31582  0.15750  1.0000
  C   C106      1.0  0.32130  0.05462  0.46403  1.0000
  S   S37       1.0  0.30502  0.31899  0.10336  1.0000
  H   H105      1.0  0.15945  0.31419  0.27423  1.0000
  H   H106      1.0  0.20395  0.31730  0.26715  1.0000
  H   H107      1.0  0.33077  0.10105  0.45569  1.0000
  Fe  Fe20      1.0  0.39445  0.04546  0.47302  1.0000
  S   S38       1.0  0.04746  0.32647  0.34737  1.0000
  H   H108      1.0  0.36799  0.09244  0.58311  1.0000
  N   N10       1.0  0.46218  0.03032  0.55059  1.0000
  S   S39       1.0  0.41816  0.10105  0.53065  1.0000
  N   N11       1.0  0.38441  0.06558  0.64348  1.0000
  H   H109      1.0  0.46075  0.08905  0.49375  1.0000
  S   S40       1.0  0.37004  0.01023  0.61485  1.0000
  C   C107      1.0  0.37904  0.04529  0.66413  1.0000
  C   C108      1.0  0.39700  0.10170  0.60245  1.0000
  C   C109      1.0  0.46495  0.03587  0.65714  1.0000
  S   S41       1.0  0.37703  0.08328  0.47971  1.0000
  C   C110      1.0  0.37778  0.08876  0.60074  1.0000
  H   H110      1.0  0.44086  0.05170  0.57947  1.0000
  C   C111      1.0  0.40328  0.07825  0.64534  1.0000
  C   C112      1.0  0.45754  0.10477  0.55651  1.0000
  C   C113      1.0  0.44951  0.09981  0.53305  1.0000
  C   C114      1.0  0.46667  0.09319  0.51186  1.0000
  H   H111      1.0  0.43059  0.02296  0.57709  1.0000
  H   H112      1.0  0.44454  0.10991  0.57299  1.0000
  H   H113      1.0  0.35701  0.06033  0.61979  1.0000
  H   H114      1.0  0.43370  0.03724  0.63572  1.0000
  C   C115      1.0  0.37800  0.03214  0.53589  1.0000
  H   H115      1.0  0.42540  0.10584  0.62615  1.0000
  H   H116      1.0  0.40200  0.11558  0.58622  1.0000
  C   C116      1.0  0.37171  0.07062  0.62153  1.0000
  H   H117      1.0  0.38395  0.04780  0.52328  1.0000
  C   C117      1.0  0.37196  0.01253  0.52477  1.0000
  H   H118      1.0  0.41384  0.07385  0.66237  1.0000
  C   C118      1.0  0.43883  0.03872  0.56537  1.0000
  C   C119      1.0  0.40993  0.09640  0.62484  1.0000
  C   C120      1.0  0.46280  0.01426  0.53238  1.0000
  S   S42       1.0  0.46716  0.06709  0.64896  1.0000
  H   H119      1.0  0.48255  0.05186  0.56868  1.0000
  C   C121      1.0  0.37648  0.03163  0.56360  1.0000
  H   H120      1.0  0.38138  0.04682  0.57193  1.0000
  C   C122      1.0  0.44636  0.02589  0.64812  1.0000
  H   H121      1.0  0.42605  0.04859  0.55112  1.0000
  H   H122      1.0  0.44611  0.00806  0.52870  1.0000
  C   C123      1.0  0.36956  0.01120  0.58041  1.0000
  C   C124      1.0  0.44452  0.00092  0.65445  1.0000
  H   H123      1.0  0.35975  0.04190  0.66518  1.0000
  H   H124      1.0  0.39085  0.02821  0.65937  1.0000
  C   C125      1.0  0.48205  0.02074  0.67203  1.0000
  H   H125      1.0  0.48848  0.10700  0.57697  1.0000
  H   H126      1.0  0.38227  0.04905  0.68423  1.0000
  C   C126      1.0  0.48308  0.03878  0.55462  1.0000
  C   C127      1.0  0.48473  0.00633  0.51754  1.0000
  S   S43       1.0  0.37555  0.01290  0.48991  1.0000
  C   C128      1.0  0.48255  0.10315  0.55877  1.0000
  S   S44       1.0  0.42911  0.04917  0.48872  1.0000
  Fe  Fe21      1.0  0.41311  0.08782  0.49213  1.0000
  C   C129      1.0  0.48019  0.99568  0.67838  1.0000
  H   H127      1.0  0.00084  0.01644  0.96678  1.0000
  H   H128      1.0  0.30413  0.10194  0.48011  1.0000
  Fe  Fe22      1.0  0.40847  0.45783  0.12748  1.0000
  S   S45       1.0  0.43123  0.44807  0.09017  1.0000
  S   S46       1.0  0.41270  0.49396  0.13990  1.0000
  Fe  Fe23      1.0  0.38223  0.41273  0.13303  1.0000
  S   S47       1.0  0.40281  0.39964  0.09580  1.0000
  S   S48       1.0  0.35359  0.39230  0.15813  1.0000
  Fe  Fe24      1.0  0.43513  0.41004  0.11140  1.0000
  S   S49       1.0  0.47185  0.38784  0.10792  1.0000
  Fe  Fe25      1.0  0.39672  0.43899  0.07841  1.0000
  S   S50       1.0  0.38694  0.45182  0.03684  1.0000
  S   S51       1.0  0.41532  0.42029  0.15021  1.0000
  S   S52       1.0  0.37321  0.45138  0.11436  1.0000
  C   C130      1.0  0.31047  0.42647  0.11497  1.0000
  N   N12       1.0  0.31436  0.42222  0.08877  1.0000
  C   C131      1.0  0.47486  0.62032  0.05756  1.0000
  H   H129      1.0  0.33366  0.45302  0.07545  1.0000
  H   H130      1.0  0.35085  0.42345  0.07143  1.0000
  H   H131      1.0  0.46351  0.44354  0.03581  1.0000
  S   S53       1.0  0.36757  0.56717  0.02439  1.0000
  H   H132      1.0  0.02913  0.39097  0.40468  1.0000
  H   H133      1.0  0.10482  0.36279  0.39098  1.0000
  C   C132      1.0  0.39906  0.58038  0.07746  1.0000
  H   H134      1.0  0.29172  0.41686  0.15406  1.0000
  H   H135      1.0  0.46530  0.53811  0.05194  1.0000
  C   C133      1.0  0.04332  0.37830  0.39616  1.0000
  C   C134      1.0  0.44653  0.57271  0.09071  1.0000
  C   C135      1.0  0.40812  0.36293  0.19244  1.0000
  Fe  Fe26      1.0  0.04483  0.41201  0.45103  1.0000
  H   H136      1.0  0.05981  0.46149  0.39862  1.0000
  S   S54       1.0  0.07522  0.39854  0.42086  1.0000
  N   N13       1.0  0.40981  0.35128  0.16798  1.0000
  H   H137      1.0  0.47881  0.56614  0.04917  1.0000
  S   S55       1.0  0.03678  0.45091  0.46023  1.0000
  C   C136      1.0  0.45198  0.62412  0.04788  1.0000
  H   H138      1.0  0.99608  0.49437  0.47064  1.0000
  C   C137      1.0  0.45529  0.45775  0.02155  1.0000
  C   C138      1.0  0.03535  0.33745  0.46158  1.0000
  H   H139      1.0  0.38053  0.58312  0.07204  1.0000
  C   C139      1.0  0.48135  0.38926  0.07367  1.0000
  H   H140      1.0  0.01857  0.36244  0.37644  1.0000
  C   C140      1.0  0.33259  0.43443  0.07040  1.0000
  C   C141      1.0  0.28624  0.39244  0.09778  1.0000
  C   C142      1.0  0.31934  0.33834  0.11904  1.0000
  H   H141      1.0  0.34065  0.35092  0.08270  1.0000
  S   S56       1.0  0.47718  0.62072  0.09160  1.0000
  C   C143      1.0  0.02228  0.46020  0.39319  1.0000
  H   H142      1.0  0.05538  0.42320  0.31609  1.0000
  H   H143      1.0  0.43242  0.62380  0.01384  1.0000
  H   H144      1.0  0.43172  0.58646  0.12780  1.0000
  C   C144      1.0  0.01540  0.33158  0.45075  1.0000
  C   C145      1.0  0.41180  0.33027  0.12107  1.0000
  C   C146      1.0  0.47122  0.61530  0.00406  1.0000
  C   C147      1.0  0.46191  0.55831  0.04753  1.0000
  C   C148      1.0  0.47377  0.52541  0.13998  1.0000
  H   H145      1.0  0.27770  0.37833  0.09114  1.0000
  S   S57       1.0  0.00590  0.40780  0.44863  1.0000
  Fe  Fe27      1.0  0.38710  0.58085  0.98536  1.0000
  H   H146      1.0  0.43569  0.62868  0.06116  1.0000
  C   C149      1.0  0.44341  0.49828  0.13916  1.0000
  C   C150      1.0  0.46200  0.47856  0.13766  1.0000
  Fe  Fe28      1.0  0.99760  0.44518  0.46119  1.0000
  H   H147      1.0  0.40514  0.34936  0.21037  1.0000
  H   H148      1.0  0.32055  0.43902  0.12220  1.0000
  C   C151      1.0  0.44933  0.52167  0.14038  1.0000
  H   H149      1.0  0.45755  0.46040  0.13703  1.0000
  H   H150      1.0  0.06815  0.40054  0.34155  1.0000
  H   H151      1.0  0.43490  0.53678  0.14210  1.0000
  H   H152      1.0  0.45901  0.38826  0.01449  1.0000
  C   C152      1.0  0.46482  0.38713  0.05582  1.0000
  C   C153      1.0  0.47185  0.38997  0.02822  1.0000
  C   C154      1.0  0.40377  0.58582  0.10215  1.0000
  N   N14       1.0  0.44183  0.56798  0.06628  1.0000
  H   H153      1.0  0.03826  0.39933  0.33333  1.0000
  H   H154      1.0  0.44664  0.38316  0.06324  1.0000
  H   H155      1.0  0.99696  0.33843  0.45844  1.0000
  C   C155      1.0  0.03740  0.36241  0.37966  1.0000
  C   C156      1.0  0.38103  0.48387  0.03333  1.0000
  C   C157      1.0  0.37519  0.49698  0.00886  1.0000
  C   C158      1.0  0.37119  0.52266  0.00596  1.0000
  C   C159      1.0  0.37213  0.53516  0.02781  1.0000
  C   C160      1.0  0.37783  0.52205  0.05226  1.0000
  C   C161      1.0  0.38272  0.49649  0.05485  1.0000
  C   C162      1.0  0.00660  0.44997  0.37993  1.0000
  C   C163      1.0  0.28194  0.39688  0.12443  1.0000
  H   H156      1.0  0.37890  0.53162  0.06912  1.0000
  H   H157      1.0  0.38794  0.48672  0.07354  1.0000
  C   C164      1.0  0.06755  0.37846  0.40044  1.0000
  C   C165      1.0  0.43642  0.49908  0.00998  1.0000
  C   C166      1.0  0.42767  0.58209  0.10880  1.0000
  N   N15       1.0  0.04112  0.42830  0.35595  1.0000
  H   H158      1.0  0.35917  0.38030  0.10352  1.0000
  C   C167      1.0  0.34087  0.37139  0.14282  1.0000
  C   C168      1.0  0.34678  0.36908  0.11562  1.0000
  C   C169      1.0  0.31348  0.34055  0.14627  1.0000
  C   C170      1.0  0.32430  0.35698  0.15815  1.0000
  C   C171      1.0  0.08005  0.34656  0.37153  1.0000
  C   C172      1.0  0.07950  0.33574  0.46305  1.0000
  H   H159      1.0  0.31951  0.35876  0.17918  1.0000
  H   H160      1.0  0.30653  0.40112  0.05967  1.0000
  C   C173      1.0  0.05119  0.41215  0.33565  1.0000
  C   C174      1.0  0.08597  0.36270  0.38787  1.0000
  C   C175      1.0  0.44763  0.48130  0.02833  1.0000
  H   H161      1.0  0.26994  0.38638  0.13853  1.0000
  H   H162      1.0  0.45777  0.56362  0.02645  1.0000
  H   H163      1.0  0.41460  0.56741  0.04045  1.0000
  H   H164      1.0  0.09429  0.33413  0.36235  1.0000
  C   C176      1.0  0.05573  0.34648  0.36734  1.0000
  H   H165      1.0  0.44424  0.36274  0.15208  1.0000
  H   H166      1.0  0.32818  0.43680  0.04937  1.0000
  C   C177      1.0  0.30268  0.40528  0.08013  1.0000
  C   C178      1.0  0.01638  0.43406  0.36110  1.0000
  C   C179      1.0  0.45011  0.62121  0.02120  1.0000
  H   H167      1.0  0.00407  0.42616  0.35089  1.0000
  C   C180      1.0  0.05660  0.43825  0.36892  1.0000
  C   C181      1.0  0.41843  0.57140  0.05966  1.0000
  H   H168      1.0  0.07620  0.43329  0.36536  1.0000
  C   C182      1.0  0.33616  0.35249  0.10380  1.0000
  C   C183      1.0  0.04744  0.45423  0.38781  1.0000
  H   H169      1.0  0.38894  0.59290  0.11609  1.0000
  H   H170      1.0  0.46503  0.56987  0.09611  1.0000
  C   C184      1.0  0.29409  0.41402  0.13312  1.0000
  C   C185      1.0  0.43082  0.34248  0.12541  1.0000
  H   H171      1.0  0.03198  0.34883  0.47765  1.0000
  H   H172      1.0  0.44973  0.48562  0.04801  1.0000
  C   C186      1.0  0.42951  0.35297  0.14911  1.0000
  H   H173      1.0  0.42957  0.51717  0.01538  1.0000
  H   H174      1.0  0.36688  0.53277  0.98698  1.0000
  N   N16       1.0  0.05867  0.32894  0.45208  1.0000
  H   H175      1.0  0.08783  0.35007  0.44885  1.0000
  H   H176      1.0  0.39258  0.37796  0.19257  1.0000
  H   H177      1.0  0.30024  0.32998  0.15811  1.0000
  H   H178      1.0  0.47821  0.54345  0.14132  1.0000
  H   H179      1.0  0.37404  0.48733  0.99209  1.0000
  C   C187      1.0  0.43283  0.49299  0.98509  1.0000
  H   H180      1.0  0.01490  0.47253  0.40786  1.0000
  H   H181      1.0  0.42492  0.37101  0.19398  1.0000
  C   C188      1.0  0.39187  0.32847  0.14050  1.0000
  C   C189      1.0  0.39120  0.33915  0.16399  1.0000
  H   H182      1.0  0.37528  0.33837  0.17865  1.0000
  H   H183      1.0  0.44633  0.34427  0.11034  1.0000
  C   C190      1.0  0.48635  0.48214  0.13809  1.0000
  C   C191      1.0  0.45139  0.45230  0.99650  1.0000
  H   H184      1.0  0.45694  0.43386  0.99150  1.0000
  N   N17       1.0  0.44024  0.46980  0.97870  1.0000
  C   C192      1.0  0.28605  0.65066  0.92966  1.0000
  C   C193      1.0  0.04738  0.59787  0.72842  1.0000
  S   S58       1.0  0.99508  0.51834  0.66469  1.0000
  S   S59       1.0  0.39580  0.61931  0.97460  1.0000
  H   H185      1.0  0.33148  0.59089  0.90902  1.0000
  S   S60       1.0  0.04586  0.55193  0.62263  1.0000
  S   S61       1.0  0.37714  0.57638  0.94510  1.0000
  C   C194      1.0  0.10089  0.63635  0.74999  1.0000
  S   S62       1.0  0.02921  0.60722  0.59364  1.0000
  Fe  Fe29      1.0  0.38885  0.61372  0.93340  1.0000
  Fe  Fe30      1.0  0.03036  0.56886  0.58458  1.0000
  S   S63       1.0  0.04063  0.55933  0.54269  1.0000
  Fe  Fe31      1.0  0.04073  0.59032  0.63353  1.0000
  S   S64       1.0  0.06910  0.60669  0.65081  1.0000
  S   S65       1.0  0.99154  0.56616  0.60072  1.0000
  S   S66       1.0  0.99270  0.43174  0.50492  1.0000
  S   S67       1.0  0.42775  0.59948  0.92061  1.0000
  H   H186      1.0  0.42343  0.50675  0.97128  1.0000
  H   H187      1.0  0.00071  0.41400  0.62661  1.0000
  H   H188      1.0  0.10846  0.59925  0.72041  1.0000
  C   C195      1.0  0.07201  0.59127  0.72021  1.0000
  H   H189      1.0  0.99500  0.55146  0.52786  1.0000
  C   C196      1.0  0.47435  0.53772  0.93265  1.0000
  S   S68       1.0  0.25434  0.65134  0.93653  1.0000
  C   C197      1.0  0.28647  0.64887  0.84931  1.0000
  H   H190      1.0  0.02964  0.47112  0.65631  1.0000
  H   H191      1.0  0.29375  0.62165  0.96151  1.0000
  H   H192      1.0  0.03225  0.53225  0.50119  1.0000
  Fe  Fe32      1.0  0.99151  0.60320  0.61298  1.0000
  H   H193      1.0  0.42841  0.47923  0.93955  1.0000
  H   H194      1.0  0.46703  0.48773  0.90451  1.0000
  C   C198      1.0  0.05840  0.62928  0.75113  1.0000
  H   H195      1.0  0.45222  0.45396  0.94291  1.0000
  C   C199      1.0  0.02156  0.46446  0.64082  1.0000
  C   C200      1.0  0.04595  0.47734  0.53864  1.0000
  C   C201      1.0  0.05278  0.48579  0.56095  1.0000
  C   C202      1.0  0.05103  0.51097  0.56236  1.0000
  C   C203      1.0  0.04353  0.52777  0.54089  1.0000
  C   C204      1.0  0.03770  0.51931  0.51803  1.0000
  C   C205      1.0  0.03840  0.49412  0.51713  1.0000
  H   H196      1.0  0.05907  0.47282  0.57739  1.0000
  H   H197      1.0  0.05601  0.51737  0.57981  1.0000
  H   H198      1.0  0.10125  0.65374  0.73628  1.0000
  C   C206      1.0  0.29558  0.61337  0.88145  1.0000
  H   H199      1.0  0.09311  0.64102  0.67178  1.0000
  S   S69       1.0  0.43157  0.52896  0.91710  1.0000
  H   H200      1.0  0.05278  0.64465  0.76245  1.0000
  Fe  Fe33      1.0  0.00668  0.55200  0.63960  1.0000
  C   C207      1.0  0.33686  0.64751  0.91753  1.0000
  C   C208      1.0  0.04048  0.61701  0.74396  1.0000
  S   S70       1.0  0.04593  0.44582  0.53886  1.0000
  C   C209      1.0  0.46269  0.52178  0.92126  1.0000
  H   H201      1.0  0.11950  0.62594  0.74842  1.0000
  H   H202      1.0  0.03329  0.48773  0.49976  1.0000
  Fe  Fe34      1.0  0.03265  0.43419  0.50326  1.0000
  Fe  Fe35      1.0  0.41683  0.56266  0.93647  1.0000
  C   C210      1.0  0.00494  0.43264  0.62407  1.0000
  C   C211      1.0  0.01599  0.44052  0.64402  1.0000
  H   H203      1.0  0.02003  0.49890  0.61538  1.0000
  C   C212      1.0  0.08945  0.60395  0.72770  1.0000
  C   C213      1.0  0.05756  0.63167  0.66835  1.0000
  C   C214      1.0  0.07366  0.64545  0.67674  1.0000
  Fe  Fe36      1.0  0.43371  0.60163  0.96298  1.0000
  C   C215      1.0  0.30146  0.63380  0.94512  1.0000
  C   C216      1.0  0.47589  0.49999  0.91363  1.0000
  H   H204      1.0  0.01990  0.62737  0.66820  1.0000
  H   H205      1.0  0.00306  0.42758  0.56920  1.0000
  H   H206      1.0  0.46455  0.55476  0.93817  1.0000
  N   N18       1.0  0.08255  0.62251  0.74323  1.0000
  H   H207      1.0  0.00669  0.65612  0.60870  1.0000
  H   H208      1.0  0.07742  0.57718  0.70706  1.0000
  H   H209      1.0  0.28915  0.59985  0.89727  1.0000
  C   C217      1.0  0.00494  0.47171  0.59838  1.0000
  H   H210      1.0  0.48909  0.58850  0.87532  1.0000
  H   H211      1.0  0.25914  0.63070  0.87537  1.0000
  C   C218      1.0  0.27846  0.63082  0.86906  1.0000
  H   H212      1.0  0.35577  0.60139  0.88615  1.0000
  H   H213      1.0  0.34748  0.63203  0.84965  1.0000
  H   H214      1.0  0.33964  0.57814  0.87768  1.0000
  S   S71       1.0  0.00265  0.58884  0.65374  1.0000
  H   H215      1.0  0.01586  0.37524  0.54552  1.0000
  H   H216      1.0  0.05120  0.65751  0.60067  1.0000
  Fe  Fe37      1.0  0.00502  0.39471  0.49209  1.0000
  H   H217      1.0  0.07397  0.34310  0.48247  1.0000
  C   C219      1.0  0.33757  0.59509  0.88736  1.0000
  N   N19       1.0  0.32003  0.61390  0.87443  1.0000
  C   C220      1.0  0.43525  0.46300  0.95327  1.0000
  C   C221      1.0  0.01599  0.48017  0.61789  1.0000
  H   H218      1.0  0.33863  0.61895  0.95087  1.0000
  C   C222      1.0  0.99831  0.37221  0.55621  1.0000
  C   C223      1.0  0.99315  0.37648  0.58299  1.0000
  C   C224      1.0  0.32808  0.63133  0.85486  1.0000
  H   H219      1.0  0.00676  0.38273  0.59286  1.0000
  C   C225      1.0  0.32685  0.63227  0.93912  1.0000
  H   H220      1.0  0.00118  0.48397  0.58043  1.0000
  C   C226      1.0  0.03246  0.63760  0.67470  1.0000
  N   N20       1.0  0.99949  0.44824  0.60167  1.0000
  H   H221      1.0  0.01999  0.42822  0.66192  1.0000
  S   S72       1.0  0.36818  0.64333  0.90703  1.0000
  H   H222      1.0  0.09681  0.64076  0.77091  1.0000
  H   H223      1.0  0.42119  0.45035  0.95704  1.0000
  H   H224      1.0  0.99565  0.59383  0.53172  1.0000
  H   H225      1.0  0.02133  0.62290  0.74966  1.0000
  H   H226      1.0  0.03364  0.58875  0.72189  1.0000
  C   C227      1.0  0.31144  0.64913  0.84210  1.0000
  C   C228      1.0  0.02345  0.65693  0.68957  1.0000
  S   S73       1.0  0.46962  0.61108  0.97085  1.0000
  S   S74       1.0  0.42565  0.56371  0.97796  1.0000
  S   S75       1.0  0.04462  0.39572  0.49400  1.0000
  H   H227      1.0  0.48631  0.61141  0.91446  1.0000
  C   C229      1.0  0.02611  0.95895  0.99346  1.0000
  H   H228      1.0  0.04577  0.89614  0.02224  1.0000
  H   H229      1.0  0.44653  0.92966  0.46600  1.0000
  S   S76       1.0  0.01168  0.97542  0.08526  1.0000
  H   H230      1.0  0.06139  0.98553  0.05750  1.0000
  H   H231      1.0  0.41963  0.95152  0.46832  1.0000
  C   C230      1.0  0.47073  0.97899  0.43933  1.0000
  S   S77       1.0  0.03301  0.98212  0.01029  1.0000
  C   C231      1.0  0.02656  0.89468  0.02792  1.0000
  C   C232      1.0  0.01487  0.87958  0.01544  1.0000
  C   C233      1.0  0.01320  0.90855  0.04696  1.0000
  H   H232      1.0  0.02195  0.92078  0.05638  1.0000
  H   H233      1.0  0.27098  0.67270  0.98178  1.0000
  C   C234      1.0  0.99669  0.93564  0.98106  1.0000
  H   H234      1.0  0.02491  0.86936  0.99990  1.0000
  H   H235      1.0  0.45658  0.96888  0.43571  1.0000
  H   H236      1.0  0.08912  0.98152  0.07308  1.0000
  C   C235      1.0  0.07108  0.99285  0.07188  1.0000
  C   C236      1.0  0.00222  0.95349  0.99535  1.0000
  Fe  Fe38      1.0  0.00476  0.99229  0.04390  1.0000
  H   H237      1.0  0.06028  0.99083  0.09184  1.0000
  H   H238      1.0  0.22990  0.69702  0.98433  1.0000
  Fe  Fe39      1.0  0.03963  0.87928  0.92583  1.0000
  S   S78       1.0  0.07630  0.86746  0.94105  1.0000
  H   H239      1.0  0.21041  0.86545  0.81658  1.0000
  Fe  Fe40      1.0  0.05385  0.85544  0.87501  1.0000
  S   S79       1.0  0.09129  0.84130  0.88607  1.0000
  S   S80       1.0  0.04636  0.84841  0.83457  1.0000
  Fe  Fe41      1.0  0.07319  0.83167  0.92706  1.0000
  H   H240      1.0  0.21334  0.75429  0.77775  1.0000
  Fe  Fe42      1.0  0.09094  0.87835  0.89836  1.0000
  S   S81       1.0  0.12414  0.89687  0.88365  1.0000
  S   S82       1.0  0.03537  0.84242  0.91512  1.0000
  S   S83       1.0  0.05453  0.89346  0.88439  1.0000
  Fe  Fe43      1.0  0.06128  0.72849  0.78729  1.0000
  S   S84       1.0  0.09883  0.73721  0.77229  1.0000
  S   S85       1.0  0.04666  0.73576  0.82906  1.0000
  Fe  Fe44      1.0  0.05425  0.71152  0.73477  1.0000
  S   S86       1.0  0.09121  0.71933  0.71513  1.0000
  Fe  Fe45      1.0  0.10364  0.70215  0.75458  1.0000
  Fe  Fe46      1.0  0.08252  0.75365  0.73482  1.0000
  S   S87       1.0  0.09150  0.79093  0.71805  1.0000
  S   S88       1.0  0.06738  0.69162  0.77290  1.0000
  S   S89       1.0  0.04434  0.74760  0.75096  1.0000
  S   S90       1.0  0.19424  0.73072  0.86675  1.0000
  H   H241      1.0  0.07094  0.75345  0.92405  1.0000
  Fe  Fe47      1.0  0.23146  0.71083  0.85702  1.0000
  S   S91       1.0  0.25190  0.71904  0.81670  1.0000
  Fe  Fe48      1.0  0.18507  0.69403  0.88591  1.0000
  H   H242      1.0  0.45400  0.90763  0.62011  1.0000
  Fe  Fe49      1.0  0.18543  0.86818  0.74909  1.0000
  S   S92       1.0  0.21947  0.88397  0.75253  1.0000
  S   S93       1.0  0.14669  0.88276  0.76143  1.0000
  Fe  Fe50      1.0  0.21220  0.82466  0.72348  1.0000
  S   S94       1.0  0.24902  0.83620  0.72371  1.0000
  S   S95       1.0  0.20544  0.78981  0.71003  1.0000
  Fe  Fe51      1.0  0.23494  0.84511  0.76492  1.0000
  S   S96       1.0  0.25608  0.83256  0.79998  1.0000
  Fe  Fe52      1.0  0.23078  0.87399  0.71100  1.0000
  S   S97       1.0  0.24907  0.89905  0.67880  1.0000
  S   S98       1.0  0.19966  0.83024  0.76596  1.0000
  S   S99       1.0  0.19526  0.86159  0.70633  1.0000
  Fe  Fe53      1.0  0.40669  0.92189  0.62039  1.0000
  S   S100      1.0  0.42133  0.95742  0.61808  1.0000
  S   S101      1.0  0.41889  0.90003  0.58613  1.0000
  Fe  Fe54      1.0  0.37655  0.92859  0.67327  1.0000
  C   C237      1.0  0.24273  0.72956  0.96204  1.0000
  S   S102      1.0  0.35237  0.91149  0.70744  1.0000
  C   C238      1.0  0.16529  0.67914  0.80158  1.0000
  S   S103      1.0  0.14874  0.68379  0.88082  1.0000
  Fe  Fe55      1.0  0.42593  0.94657  0.66135  1.0000
  H   H243      1.0  0.16165  0.75618  0.79871  1.0000
  S   S104      1.0  0.36787  0.93773  0.63060  1.0000
  S   S105      1.0  0.41426  0.90950  0.66287  1.0000
  H   H244      1.0  0.05743  0.73497  0.90495  1.0000
  H   H245      1.0  0.30480  0.84659  0.73019  1.0000
  H   H246      1.0  0.07892  0.78709  0.89197  1.0000
  H   H247      1.0  0.10485  0.67380  0.80687  1.0000
  C   C239      1.0  0.27568  0.90645  0.68894  1.0000
  C   C240      1.0  0.29044  0.92111  0.67124  1.0000
  C   C241      1.0  0.31350  0.92411  0.67758  1.0000
  C   C242      1.0  0.32191  0.91226  0.70148  1.0000
  C   C243      1.0  0.30647  0.89895  0.71995  1.0000
  C   C244      1.0  0.28336  0.89601  0.71369  1.0000
  H   H248      1.0  0.28437  0.92951  0.65225  1.0000
  H   H249      1.0  0.32488  0.93517  0.66373  1.0000
  H   H250      1.0  0.31274  0.89015  0.73871  1.0000
  H   H251      1.0  0.27188  0.88496  0.72761  1.0000
  C   C245      1.0  0.25535  0.75020  0.81233  1.0000
  C   C246      1.0  0.25034  0.76365  0.83414  1.0000
  C   C247      1.0  0.25220  0.78872  0.83057  1.0000
  C   C248      1.0  0.25791  0.80066  0.80494  1.0000
  C   C249      1.0  0.26282  0.78730  0.78307  1.0000
  C   C250      1.0  0.26207  0.76199  0.78684  1.0000
  H   H252      1.0  0.24480  0.75489  0.85376  1.0000
  H   H253      1.0  0.24819  0.79902  0.84750  1.0000
  H   H254      1.0  0.26732  0.79646  0.76324  1.0000
  H   H255      1.0  0.26611  0.75174  0.76990  1.0000
  C   C251      1.0  0.12233  0.67575  0.81273  1.0000
  C   C252      1.0  0.21427  0.70812  0.74054  1.0000
  N   N21       1.0  0.00003  0.68490  0.63329  1.0000
  N   N22       1.0  0.26234  0.73982  0.94855  1.0000
  H   H256      1.0  0.18230  0.69777  0.72739  1.0000
  C   C253      1.0  0.12316  0.79038  0.71550  1.0000
  C   C254      1.0  0.13881  0.77131  0.70476  1.0000
  C   C255      1.0  0.16418  0.77139  0.70246  1.0000
  C   C256      1.0  0.17382  0.79024  0.71143  1.0000
  C   C257      1.0  0.15809  0.80899  0.72260  1.0000
  C   C258      1.0  0.13284  0.80901  0.72469  1.0000
  H   H257      1.0  0.13135  0.75680  0.69772  1.0000
  H   H258      1.0  0.17631  0.75687  0.69378  1.0000
  H   H259      1.0  0.16529  0.82341  0.72996  1.0000
  H   H260      1.0  0.12088  0.82312  0.73414  1.0000
  C   C259      1.0  0.13010  0.89486  0.84915  1.0000
  C   C260      1.0  0.15207  0.90090  0.83489  1.0000
  C   C261      1.0  0.15768  0.89675  0.80797  1.0000
  C   C262      1.0  0.14091  0.88734  0.79518  1.0000
  C   C263      1.0  0.11875  0.88206  0.80924  1.0000
  C   C264      1.0  0.11339  0.88578  0.83609  1.0000
  H   H261      1.0  0.16478  0.90853  0.84472  1.0000
  H   H262      1.0  0.17464  0.90135  0.79694  1.0000
  H   H263      1.0  0.10582  0.87456  0.79962  1.0000
  H   H264      1.0  0.09618  0.88164  0.84653  1.0000
  C   C265      1.0  0.11655  0.78686  0.94153  1.0000
  C   C266      1.0  0.12672  0.76357  0.93540  1.0000
  C   C267      1.0  0.15200  0.75809  0.92956  1.0000
  C   C268      1.0  0.16731  0.77552  0.93102  1.0000
  C   C269      1.0  0.15722  0.79861  0.93798  1.0000
  C   C270      1.0  0.13179  0.80448  0.94264  1.0000
  H   H265      1.0  0.04279  0.71593  0.64958  1.0000
  H   H266      1.0  0.15953  0.74030  0.92405  1.0000
  H   H267      1.0  0.02917  0.80985  0.87392  1.0000
  C   C271      1.0  0.04551  0.81722  0.83334  1.0000
  C   C272      1.0  0.05460  0.80718  0.80978  1.0000
  C   C273      1.0  0.05444  0.78231  0.80838  1.0000
  C   C274      1.0  0.04539  0.76719  0.83064  1.0000
  C   C275      1.0  0.03620  0.77716  0.85429  1.0000
  C   C276      1.0  0.03635  0.80218  0.85569  1.0000
  H   H268      1.0  0.06243  0.81838  0.79273  1.0000
  H   H269      1.0  0.06154  0.77488  0.79005  1.0000
  C   C277      1.0  0.29614  0.66650  0.90873  1.0000
  C   C278      1.0  0.99382  0.96116  0.90924  1.0000
  C   C279      1.0  0.45086  0.89440  0.58296  1.0000
  H   H270      1.0  0.48381  0.93371  0.54224  1.0000
  N   N23       1.0  0.43706  0.94285  0.50404  1.0000
  H   H271      1.0  0.45361  0.95829  0.57074  1.0000
  H   H272      1.0  0.17305  0.78016  0.77429  1.0000
  S   S106      1.0  0.02736  0.69581  0.71485  1.0000
  Fe  Fe56      1.0  0.20724  0.73312  0.90606  1.0000
  N   N24       1.0  0.09245  0.87246  0.72700  1.0000
  C   C280      1.0  0.07949  0.85471  0.72235  1.0000
  C   C281      1.0  0.08577  0.88454  0.74901  1.0000
  C   C282      1.0  0.05904  0.84891  0.73974  1.0000
  C   C283      1.0  0.06538  0.87925  0.76678  1.0000
  C   C284      1.0  0.05184  0.86148  0.76194  1.0000
  C   C285      1.0  0.11458  0.87731  0.70931  1.0000
  H   H273      1.0  0.08533  0.84437  0.70555  1.0000
  H   H274      1.0  0.09653  0.89801  0.75326  1.0000
  H   H275      1.0  0.04937  0.83421  0.73643  1.0000
  H   H276      1.0  0.06051  0.88827  0.78470  1.0000
  H   H277      1.0  0.03636  0.85681  0.77600  1.0000
  H   H278      1.0  0.11885  0.89612  0.70985  1.0000
  H   H279      1.0  0.13040  0.86428  0.71595  1.0000
  H   H280      1.0  0.11262  0.87534  0.68825  1.0000
  H   H281      1.0  0.32921  0.67690  0.88612  1.0000
  C   C286      1.0  0.22289  0.72397  0.75502  1.0000
  C   C287      1.0  0.43019  0.93574  0.47960  1.0000
  H   H282      1.0  0.28449  0.67932  0.89648  1.0000
  C   C288      1.0  0.44902  0.95455  0.55176  1.0000
  C   C289      1.0  0.18937  0.71022  0.73818  1.0000
  C   C290      1.0  0.17340  0.72816  0.75046  1.0000
  H   H283      1.0  0.24215  0.72232  0.75737  1.0000
  N   N25       1.0  0.32365  0.84837  0.69112  1.0000
  C   C291      1.0  0.34605  0.85638  0.68597  1.0000
  C   C292      1.0  0.31293  0.86843  0.64829  1.0000
  C   C293      1.0  0.35260  0.87022  0.66160  1.0000
  C   C294      1.0  0.33590  0.87627  0.64268  1.0000
  H   H284      1.0  0.35871  0.85293  0.70106  1.0000
  H   H285      1.0  0.29932  0.87399  0.63434  1.0000
  H   H286      1.0  0.37011  0.87710  0.65795  1.0000
  H   H287      1.0  0.34047  0.88773  0.62412  1.0000
  H   H288      1.0  0.33292  0.82618  0.72739  1.0000
  H   H289      1.0  0.15403  0.72936  0.74885  1.0000
  N   N26       1.0  0.18210  0.74402  0.76404  1.0000
  H   H290      1.0  0.09908  0.71482  0.87152  1.0000
  H   H291      1.0  0.01340  0.95468  0.91152  1.0000
  S   S107      1.0  0.00764  0.90020  0.94811  1.0000
  C   C295      1.0  0.03900  0.92844  0.96289  1.0000
  H   H292      1.0  0.18463  0.68379  0.83429  1.0000
  C   C296      1.0  0.16520  0.76261  0.77705  1.0000
  C   C297      1.0  0.20646  0.74195  0.76667  1.0000
  S   S108      1.0  0.08477  0.79396  0.94683  1.0000
  C   C298      1.0  0.09926  0.73438  0.86664  1.0000
  C   C299      1.0  0.16732  0.68123  0.82841  1.0000
  H   H293      1.0  0.11510  0.74981  0.93476  1.0000
  S   S109      1.0  0.13895  0.67806  0.75970  1.0000
  Fe  Fe57      1.0  0.23244  0.68072  0.91107  1.0000
  H   H294      1.0  0.14765  0.76652  0.76799  1.0000
  C   C300      1.0  0.45965  0.93455  0.51205  1.0000
  C   C301      1.0  0.46153  0.98573  0.66940  1.0000
  C   C302      1.0  0.01451  0.66956  0.61728  1.0000
  H   H295      1.0  0.05325  0.91886  0.95027  1.0000
  C   C303      1.0  0.06462  0.66504  0.69143  1.0000
  N   N27       1.0  0.19214  0.84581  0.85018  1.0000
  C   C304      1.0  0.17475  0.85165  0.87059  1.0000
  C   C305      1.0  0.19386  0.82376  0.84066  1.0000
  C   C306      1.0  0.15789  0.83567  0.88126  1.0000
  C   C307      1.0  0.17772  0.80699  0.85143  1.0000
  C   C308      1.0  0.15945  0.81315  0.87168  1.0000
  C   C309      1.0  0.20958  0.86278  0.83879  1.0000
  H   H296      1.0  0.17346  0.86896  0.87849  1.0000
  H   H297      1.0  0.20784  0.81906  0.82472  1.0000
  H   H298      1.0  0.14381  0.84080  0.89699  1.0000
  H   H299      1.0  0.17951  0.78931  0.84425  1.0000
  H   H300      1.0  0.14677  0.80040  0.88030  1.0000
  H   H301      1.0  0.20444  0.88108  0.84567  1.0000
  H   H302      1.0  0.22807  0.85527  0.84449  1.0000
  H   H303      1.0  0.16900  0.81215  0.93913  1.0000
  C   C310      1.0  0.30707  0.85445  0.67277  1.0000
  C   C311      1.0  0.07497  0.73999  0.90934  1.0000
  S   S110      1.0  0.38901  0.96462  0.67582  1.0000
  C   C312      1.0  0.31671  0.83440  0.71700  1.0000
  H   H304      1.0  0.99199  0.96537  0.88748  1.0000
  H   H305      1.0  0.09766  0.80407  0.84783  1.0000
  H   H306      1.0  0.99868  0.71335  0.65789  1.0000
  H   H307      1.0  0.06946  0.68773  0.62101  1.0000
  C   C313      1.0  0.03493  0.70328  0.63978  1.0000
  S   S111      1.0  0.19892  0.76882  0.92309  1.0000
  C   C314      1.0  0.03946  0.67077  0.69781  1.0000
  C   C315      1.0  0.14264  0.67694  0.79364  1.0000
  H   H308      1.0  0.24368  0.77629  0.94558  1.0000
  H   H309      1.0  0.45383  0.88022  0.54517  1.0000
  H   H310      1.0  0.40210  0.96278  0.51350  1.0000
  C   C316      1.0  0.10971  0.76866  0.83482  1.0000
  H   H311      1.0  0.27550  0.77392  0.93368  1.0000
  S   S112      1.0  0.24559  0.71652  0.89476  1.0000
  H   H312      1.0  0.11832  0.73090  0.82749  1.0000
  C   C317      1.0  0.03966  0.67044  0.61246  1.0000
  C   C318      1.0  0.46368  0.90066  0.60242  1.0000
  H   H313      1.0  0.30631  0.69128  0.95667  1.0000
  H   H314      1.0  0.28881  0.84934  0.67738  1.0000
  H   H315      1.0  0.30663  0.81928  0.71429  1.0000
  C   C319      1.0  0.28492  0.72629  0.94635  1.0000
  H   H316      1.0  0.08594  0.72348  0.91883  1.0000
  H   H317      1.0  0.35914  0.97725  0.53317  1.0000
  C   C320      1.0  0.11024  0.74344  0.84165  1.0000
  C   C321      1.0  0.32150  0.66504  0.90279  1.0000
  H   H318      1.0  0.02904  0.76555  0.87150  1.0000
  H   H319      1.0  0.07706  0.67583  0.69750  1.0000
  H   H320      1.0  0.35771  0.97577  0.58251  1.0000
  H   H321      1.0  0.11694  0.77607  0.81502  1.0000
  C   C322      1.0  0.46612  0.94077  0.53567  1.0000
  H   H322      1.0  0.22682  0.69413  0.73137  1.0000
  S   S113      1.0  0.46007  0.95424  0.67584  1.0000
  C   C323      1.0  0.42583  0.96255  0.54380  1.0000
  C   C324      1.0  0.08818  0.77468  0.87815  1.0000
  C   C325      1.0  0.09888  0.78441  0.85326  1.0000
  C   C326      1.0  0.42018  0.95665  0.51959  1.0000
  C   C327      1.0  0.00990  0.70171  0.64443  1.0000
  H   H323      1.0  0.10882  0.67557  0.85436  1.0000
  S   S114      1.0  0.19524  0.69779  0.92637  1.0000
  C   C328      1.0  0.46369  0.88514  0.56022  1.0000
  N   N28       1.0  0.08827  0.74995  0.88441  1.0000
  H   H324      1.0  0.12397  0.82249  0.94750  1.0000
  H   H325      1.0  0.25410  0.76466  0.91426  1.0000
  C   C329      1.0  0.14692  0.68010  0.84747  1.0000
  S   S115      1.0  0.22118  0.67361  0.87233  1.0000
  C   C330      1.0  0.25884  0.76489  0.93485  1.0000
  C   C331      1.0  0.26865  0.69169  0.97284  1.0000
  C   C332      1.0  0.28847  0.70213  0.95870  1.0000
  C   C333      1.0  0.04989  0.68739  0.62387  1.0000
  H   H326      1.0  0.22465  0.73995  0.96308  1.0000
  C   C334      1.0  0.24557  0.70535  0.97430  1.0000
  C   C335      1.0  0.12457  0.67683  0.83967  1.0000
  H   H327      1.0  0.30029  0.73404  0.93478  1.0000
  H   H328      1.0  0.06298  0.95083  0.97526  1.0000
  Fe  Fe58      1.0  0.38336  0.97230  0.63247  1.0000
  C   C336      1.0  0.48919  0.89796  0.59909  1.0000
  C   C337      1.0  0.01510  0.92294  0.96501  1.0000
  H   H329      1.0  0.41217  0.97271  0.55658  1.0000
  H   H330      1.0  0.01719  0.98182  0.94142  1.0000
  C   C338      1.0  0.99883  0.99083  0.93913  1.0000
  C   C339      1.0  0.48929  0.88322  0.55643  1.0000
  H   H331      1.0  0.18111  0.67988  0.78700  1.0000
  H   H332      1.0  0.47265  0.92253  0.50057  1.0000
  H   H333      1.0  0.41900  0.92046  0.48484  1.0000
  C   C340      1.0  0.36331  0.99153  0.56948  1.0000
  C   C341      1.0  0.36412  0.99238  0.54160  1.0000
  C   C342      1.0  0.04448  0.94651  0.97705  1.0000
  H   H334      1.0  0.48505  0.99405  0.50264  1.0000
  H   H335      1.0  0.42994  0.99348  0.64768  1.0000
  H   H336      1.0  0.31784  0.66337  0.82714  1.0000
  H   H337      1.0  0.27340  0.66291  0.83996  1.0000
  H   H338      1.0  0.00397  0.66134  0.69445  1.0000
  C   C343      1.0  0.91920  0.02768  0.00943  1.0000
  H   H339      1.0  0.85264  0.01911  0.06645  1.0000
  Fe  Fe59      1.0  0.95903  0.02353  0.06323  1.0000
  S   S116      1.0  0.92651  0.05051  0.05219  1.0000
  S   S117      1.0  0.96260  0.00982  0.10662  1.0000
  H   H340      1.0  0.52418  0.09322  0.44805  1.0000
  C   C344      1.0  0.53948  0.08010  0.45424  1.0000
  H   H341      1.0  0.53385  0.05401  0.42884  1.0000
  C   C345      1.0  0.91365  0.04852  0.02268  1.0000
  H   H342      1.0  0.68500  0.30323  0.01344  1.0000
  H   H343      1.0  0.56767  0.02306  0.44499  1.0000
  H   H344      1.0  0.93180  0.01249  0.01696  1.0000
  C   C346      1.0  0.56384  0.04073  0.45244  1.0000
  H   H345      1.0  0.87752  0.03476  0.07045  1.0000
  H   H346      1.0  0.52186  0.01528  0.45089  1.0000
  H   H347      1.0  0.89211  0.08393  0.02321  1.0000
  C   C347      1.0  0.54482  0.05797  0.44356  1.0000
  C   C348      1.0  0.89671  0.06784  0.01293  1.0000
  H   H348      1.0  0.60731  0.32240  0.98985  1.0000
  N   N29       1.0  0.87751  0.99947  0.09325  1.0000
  C   C349      1.0  0.89738  0.00114  0.10588  1.0000
  H   H349      1.0  0.65368  0.31176  0.00597  1.0000
  C   C350      1.0  0.57755  0.04613  0.47160  1.0000
  C   C351      1.0  0.50761  0.00533  0.44747  1.0000
  H   H350      1.0  0.67153  0.28631  0.99245  1.0000
  H   H351      1.0  0.90891  0.01530  0.09853  1.0000
  H   H352      1.0  0.79673  0.02606  0.99223  1.0000
  C   C352      1.0  0.88589  0.06664  0.98968  1.0000
  C   C353      1.0  0.55342  0.08481  0.47358  1.0000
  C   C354      1.0  0.67246  0.30485  0.99775  1.0000
  H   H353      1.0  0.88301  0.00922  0.05130  1.0000
  H   H354      1.0  0.54275  0.32594  0.00297  1.0000
  C   C355      1.0  0.90800  0.02626  0.98652  1.0000
  C   C356      1.0  0.87236  0.01641  0.06918  1.0000
  H   H355      1.0  0.87303  0.08177  0.98223  1.0000
  H   H356      1.0  0.77171  0.19326  0.98163  1.0000
  Fe  Fe60      1.0  0.85251  0.12477  0.89233  1.0000
  S   S118      1.0  0.87141  0.14952  0.86041  1.0000
  Fe  Fe61      1.0  0.80865  0.09755  0.90634  1.0000
  S   S119      1.0  0.77361  0.08950  0.89404  1.0000
  S   S120      1.0  0.81338  0.13670  0.90571  1.0000
  S   S121      1.0  0.84709  0.08616  0.88926  1.0000
  Fe  Fe62      1.0  0.69678  0.14882  0.72774  1.0000
  S   S122      1.0  0.71480  0.11170  0.71934  1.0000
  S   S123      1.0  0.69603  0.17919  0.69384  1.0000
  Fe  Fe63      1.0  0.67619  0.13002  0.78359  1.0000
  S   S124      1.0  0.69214  0.09116  0.77964  1.0000
  S   S125      1.0  0.65315  0.13939  0.82095  1.0000
  Fe  Fe64      1.0  0.72548  0.10794  0.76102  1.0000
  S   S126      1.0  0.76409  0.09643  0.77041  1.0000
  Fe  Fe65      1.0  0.67953  0.09911  0.73852  1.0000
  S   S127      1.0  0.66173  0.07302  0.71923  1.0000
  S   S128      1.0  0.71038  0.14630  0.76784  1.0000
  S   S129      1.0  0.66091  0.13667  0.74435  1.0000
  Fe  Fe66      1.0  0.68200  0.23889  0.88982  1.0000
  S   S130      1.0  0.68008  0.23924  0.84591  1.0000
  Fe  Fe67      1.0  0.68847  0.20823  0.94296  1.0000
  H   H357      1.0  0.55849  0.07759  0.75623  1.0000
  H   H358      1.0  0.78934  0.14256  0.76442  1.0000
  C   C357      1.0  0.72074  0.14257  0.89950  1.0000
  S   S131      1.0  0.65508  0.22552  0.92344  1.0000
  S   S132      1.0  0.71494  0.21876  0.90783  1.0000
  Fe  Fe68      1.0  0.79358  0.23201  0.76498  1.0000
  S   S133      1.0  0.76125  0.25557  0.78277  1.0000
  S   S134      1.0  0.79537  0.19170  0.77833  1.0000
  Fe  Fe69      1.0  0.81110  0.27413  0.72629  1.0000
  H   H359      1.0  0.81815  0.01707  0.87846  1.0000
  S   S135      1.0  0.83850  0.28609  0.69257  1.0000
  Fe  Fe70      1.0  0.78753  0.28277  0.78135  1.0000
  C   C358      1.0  0.57411  0.31743  0.92919  1.0000
  Fe  Fe71      1.0  0.75713  0.27135  0.74036  1.0000
  S   S136      1.0  0.72134  0.27823  0.72330  1.0000
  S   S137      1.0  0.82049  0.25777  0.76723  1.0000
  S   S138      1.0  0.78747  0.24584  0.72247  1.0000
  Fe  Fe72      1.0  0.55345  0.09129  0.63697  1.0000
  S   S139      1.0  0.53931  0.05740  0.65910  1.0000
  S   S140      1.0  0.57007  0.11691  0.65768  1.0000
  Fe  Fe73      1.0  0.53648  0.08466  0.58427  1.0000
  S   S141      1.0  0.52131  0.05050  0.60221  1.0000
  S   S142      1.0  0.53109  0.09373  0.54067  1.0000
  Fe  Fe74      1.0  0.50656  0.07059  0.63682  1.0000
  N   N30       1.0  0.78810  0.15524  0.72328  1.0000
  Fe  Fe75      1.0  0.55548  0.04080  0.62197  1.0000
  S   S143      1.0  0.80781  0.15107  0.97633  1.0000
  S   S144      1.0  0.51919  0.10587  0.61764  1.0000
  S   S145      1.0  0.57230  0.07365  0.60139  1.0000
  C   C359      1.0  0.70641  0.14160  0.87917  1.0000
  H   H360      1.0  0.50468  0.08651  0.49768  1.0000
  C   C360      1.0  0.83843  0.31781  0.69038  1.0000
  H   H361      1.0  0.58782  0.09299  0.50095  1.0000
  H   H362      1.0  0.82658  0.31965  0.73221  1.0000
  C   C361      1.0  0.72630  0.16359  0.96797  1.0000
  H   H363      1.0  0.75496  0.15096  0.90886  1.0000
  C   C362      1.0  0.89352  0.32016  0.70494  1.0000
  Fe  Fe76      1.0  0.85545  0.07909  0.93214  1.0000
  H   H364      1.0  0.49645  0.02840  0.67906  1.0000
  C   C363      1.0  0.50532  0.03129  0.54013  1.0000
  S   S146      1.0  0.86404  0.11703  0.93370  1.0000
  H   H365      1.0  0.56630  0.03497  0.57128  1.0000
  H   H366      1.0  0.58334  0.29995  0.92380  1.0000
  C   C364      1.0  0.96617  0.02243  0.95050  1.0000
  C   C365      1.0  0.84955  0.18720  0.92165  1.0000
  H   H367      1.0  0.74490  0.14812  0.68479  1.0000
  H   H368      1.0  0.86259  0.17540  0.90894  1.0000
  C   C366      1.0  0.57001  0.01651  0.56632  1.0000
  C   C367      1.0  0.77782  0.19227  0.69408  1.0000
  H   H369      1.0  0.78511  0.30002  0.91032  1.0000
  N   N31       1.0  0.57243  0.06807  0.48169  1.0000
  H   H370      1.0  0.76898  0.12541  0.72039  1.0000
  C   C368      1.0  0.76243  0.27854  0.84944  1.0000
  C   C369      1.0  0.75229  0.27107  0.87541  1.0000
  H   H371      1.0  0.75582  0.27277  0.83262  1.0000
  H   H372      1.0  0.73805  0.25946  0.87833  1.0000
  C   C370      1.0  0.65798  0.16832  0.82727  1.0000
  C   C371      1.0  0.65462  0.17391  0.85357  1.0000
  C   C372      1.0  0.66155  0.19562  0.85936  1.0000
  C   C373      1.0  0.67109  0.21217  0.83879  1.0000
  C   C374      1.0  0.67372  0.20693  0.81233  1.0000
  C   C375      1.0  0.66732  0.18493  0.80660  1.0000
  H   H373      1.0  0.64748  0.16108  0.86962  1.0000
  H   H374      1.0  0.65957  0.19941  0.87979  1.0000
  H   H375      1.0  0.68100  0.21970  0.79630  1.0000
  H   H376      1.0  0.66953  0.18092  0.78615  1.0000
  C   C376      1.0  0.70235  0.20656  0.70320  1.0000
  C   C377      1.0  0.71691  0.20631  0.72381  1.0000
  C   C378      1.0  0.72291  0.22832  0.73000  1.0000
  C   C379      1.0  0.71376  0.25063  0.71607  1.0000
  C   C380      1.0  0.69881  0.25088  0.69586  1.0000
  C   C381      1.0  0.69344  0.22885  0.68913  1.0000
  H   H377      1.0  0.72421  0.18918  0.73444  1.0000
  H   H378      1.0  0.73452  0.22804  0.74562  1.0000
  H   H379      1.0  0.69184  0.26811  0.68500  1.0000
  H   H380      1.0  0.68227  0.22913  0.67311  1.0000
  C   C382      1.0  0.63596  0.08502  0.70236  1.0000
  C   C383      1.0  0.62457  0.10884  0.70446  1.0000
  C   C384      1.0  0.60419  0.11826  0.69094  1.0000
  C   C385      1.0  0.59487  0.10386  0.67527  1.0000
  C   C386      1.0  0.60591  0.07985  0.67329  1.0000
  C   C387      1.0  0.62645  0.07044  0.68688  1.0000
  H   H381      1.0  0.63120  0.12011  0.71658  1.0000
  H   H382      1.0  0.59567  0.13683  0.69256  1.0000
  H   H383      1.0  0.59879  0.06861  0.66115  1.0000
  H   H384      1.0  0.63505  0.05189  0.68524  1.0000
  C   C388      1.0  0.81752  0.17956  0.79982  1.0000
  C   C389      1.0  0.83779  0.19143  0.80067  1.0000
  C   C390      1.0  0.85504  0.18155  0.81849  1.0000
  C   C391      1.0  0.85165  0.16016  0.83586  1.0000
  C   C392      1.0  0.83151  0.14820  0.83475  1.0000
  C   C393      1.0  0.81464  0.15770  0.81650  1.0000
  H   H385      1.0  0.84034  0.20805  0.78747  1.0000
  H   H386      1.0  0.87068  0.19078  0.81924  1.0000
  H   H387      1.0  0.82902  0.13152  0.84786  1.0000
  H   H388      1.0  0.79924  0.14822  0.81561  1.0000
  C   C394      1.0  0.77125  0.09282  0.85954  1.0000
  C   C395      1.0  0.79182  0.09437  0.84085  1.0000
  C   C396      1.0  0.78958  0.09550  0.81343  1.0000
  C   C397      1.0  0.76670  0.09560  0.80466  1.0000
  C   C398      1.0  0.74606  0.09482  0.82333  1.0000
  C   C399      1.0  0.74840  0.09304  0.85073  1.0000
  H   H389      1.0  0.80953  0.09419  0.84750  1.0000
  H   H390      1.0  0.80559  0.09626  0.79904  1.0000
  H   H391      1.0  0.72835  0.09494  0.81675  1.0000
  H   H392      1.0  0.73246  0.09174  0.86514  1.0000
  H   H393      1.0  0.56697  0.10321  0.73251  1.0000
  H   H394      1.0  0.71428  0.13677  0.92013  1.0000
  H   H395      1.0  0.83796  0.01899  0.96732  1.0000
  H   H396      1.0  0.85075  0.32187  0.64826  1.0000
  C   C400      1.0  0.69931  0.31180  0.95621  1.0000
  S   S147      1.0  0.87909  0.04437  0.94654  1.0000
  H   H397      1.0  0.75479  0.15107  0.80875  1.0000
  H   H398      1.0  0.72245  0.31932  0.91943  1.0000
  C   C401      1.0  0.76067  0.27856  0.89737  1.0000
  C   C402      1.0  0.69986  0.29917  0.82480  1.0000
  S   S148      1.0  0.79102  0.30607  0.81292  1.0000
  C   C403      1.0  0.76120  0.18102  0.68332  1.0000
  C   C404      1.0  0.76283  0.17848  0.97726  1.0000
  S   S149      1.0  0.74808  0.26913  0.92977  1.0000
  H   H399      1.0  0.76720  0.21432  0.92427  1.0000
  Fe  Fe77      1.0  0.65995  0.25910  0.94096  1.0000
  N   N32       1.0  0.65799  0.13598  0.65109  1.0000
  C   C405      1.0  0.64753  0.15906  0.65555  1.0000
  C   C406      1.0  0.64712  0.12247  0.63663  1.0000
  C   C407      1.0  0.62574  0.16933  0.64507  1.0000
  C   C408      1.0  0.62547  0.13227  0.62563  1.0000
  C   C409      1.0  0.61464  0.15577  0.63008  1.0000
  C   C410      1.0  0.68002  0.12514  0.66357  1.0000
  H   H400      1.0  0.65583  0.16951  0.66764  1.0000
  H   H401      1.0  0.65471  0.10372  0.63423  1.0000
  H   H402      1.0  0.61729  0.18748  0.64901  1.0000
  H   H403      1.0  0.61637  0.12124  0.61500  1.0000
  H   H404      1.0  0.59726  0.16306  0.62267  1.0000
  H   H405      1.0  0.69285  0.13886  0.66250  1.0000
  H   H406      1.0  0.67490  0.11851  0.68489  1.0000
  H   H407      1.0  0.68983  0.10939  0.65370  1.0000
  N   N33       1.0  0.59262  0.08840  0.76046  1.0000
  C   C411      1.0  0.59065  0.10918  0.77257  1.0000
  C   C412      1.0  0.61129  0.06992  0.76496  1.0000
  C   C413      1.0  0.60778  0.11191  0.78953  1.0000
  C   C414      1.0  0.62873  0.07208  0.78174  1.0000
  C   C415      1.0  0.62681  0.09313  0.79422  1.0000
  C   C416      1.0  0.57394  0.08542  0.74366  1.0000
  H   H408      1.0  0.57586  0.12383  0.76908  1.0000
  H   H409      1.0  0.61322  0.05363  0.75498  1.0000
  H   H410      1.0  0.60650  0.12848  0.79895  1.0000
  H   H411      1.0  0.64393  0.05770  0.78456  1.0000
  H   H412      1.0  0.64017  0.09502  0.80736  1.0000
  H   H413      1.0  0.58149  0.07309  0.72832  1.0000
  C   C417      1.0  0.74349  0.15077  0.89315  1.0000
  H   H414      1.0  0.80682  0.12237  0.74221  1.0000
  H   H415      1.0  0.68883  0.13498  0.88386  1.0000
  C   C418      1.0  0.80130  0.14187  0.74524  1.0000
  H   H416      1.0  0.81803  0.14992  0.74711  1.0000
  C   C419      1.0  0.75139  0.15836  0.86640  1.0000
  H   H417      1.0  0.76926  0.16435  0.86151  1.0000
  N   N34       1.0  0.73678  0.15817  0.84670  1.0000
  C   C420      1.0  0.71491  0.14925  0.85268  1.0000
  S   S150      1.0  0.81633  0.08681  0.94902  1.0000
  Fe  Fe78      1.0  0.82414  0.12533  0.94695  1.0000
  C   C421      1.0  0.95202  0.01437  0.93353  1.0000
  C   C422      1.0  0.78433  0.21030  0.91198  1.0000
  S   S151      1.0  0.68422  0.27399  0.90570  1.0000
  C   C423      1.0  0.80568  0.20150  0.92399  1.0000
  C   C424      1.0  0.78536  0.21420  0.88412  1.0000
  H   H418      1.0  0.80375  0.18811  0.72278  1.0000
  H   H419      1.0  0.95880  0.03776  0.96147  1.0000
  S   S152      1.0  0.69577  0.16921  0.96107  1.0000
  C   C425      1.0  0.73935  0.14023  0.96697  1.0000
  N   N35       1.0  0.82736  0.19643  0.90870  1.0000
  C   C426      1.0  0.73808  0.18269  0.97316  1.0000
  S   S153      1.0  0.78000  0.30110  0.74049  1.0000
  C   C427      1.0  0.79116  0.17907  0.71423  1.0000
  C   C428      1.0  0.82870  0.20109  0.88141  1.0000
  H   H420      1.0  0.76896  0.22098  0.87453  1.0000
  H   H421      1.0  0.84608  0.19800  0.86938  1.0000
  C   C429      1.0  0.80770  0.20978  0.86868  1.0000
  H   H422      1.0  0.57722  0.06741  0.52257  1.0000
  H   H423      1.0  0.77444  0.11839  0.96831  1.0000
  C   C430      1.0  0.77173  0.14413  0.71290  1.0000
  C   C431      1.0  0.78811  0.30238  0.86729  1.0000
  H   H424      1.0  0.80882  0.21322  0.84699  1.0000
  H   H425      1.0  0.64487  0.31035  0.91277  1.0000
  H   H426      1.0  0.56151  0.30247  0.96888  1.0000
  S   S154      1.0  0.57332  0.00229  0.61967  1.0000
  C   C432      1.0  0.75816  0.15679  0.69270  1.0000
  C   C433      1.0  0.78009  0.29448  0.84533  1.0000
  H   H427      1.0  0.77994  0.21126  0.68719  1.0000
  H   H428      1.0  0.56622  0.02753  0.52466  1.0000
  H   H429      1.0  0.75016  0.19130  0.66831  1.0000
  Fe  Fe79      1.0  0.71458  0.25245  0.92712  1.0000
  H   H430      1.0  0.70393  0.14801  0.83689  1.0000
  H   H431      1.0  0.52168  0.03861  0.54302  1.0000
  H   H432      1.0  0.90207  0.30831  0.64279  1.0000
  H   H433      1.0  0.72106  0.31041  0.75997  1.0000
  S   S155      1.0  0.69076  0.24050  0.96392  1.0000
  N   N36       1.0  0.80412  0.03114  0.91497  1.0000
  C   C434      1.0  0.57034  0.01236  0.53975  1.0000
  C   C435      1.0  0.79875  0.02717  0.97058  1.0000
  H   H434      1.0  0.85848  0.20274  0.92542  1.0000
  C   C436      1.0  0.71313  0.31397  0.83588  1.0000
  C   C437      1.0  0.74494  0.16666  0.81885  1.0000
  N   N37       1.0  0.70256  0.29817  0.79779  1.0000
  H   H435      1.0  0.75713  0.18094  0.81770  1.0000
  C   C438      1.0  0.77832  0.03322  0.95649  1.0000
  H   H436      1.0  0.72921  0.17524  0.80779  1.0000
  H   H437      1.0  0.67276  0.27740  0.79977  1.0000
  C   C439      1.0  0.71856  0.31144  0.78130  1.0000
  H   H438      1.0  0.88391  0.30476  0.71342  1.0000
  C   C440      1.0  0.77868  0.29410  0.89335  1.0000
  H   H439      1.0  0.71144  0.31417  0.85736  1.0000
  H   H440      1.0  0.81658  0.04990  0.87765  1.0000
  H   H441      1.0  0.76029  0.03696  0.96707  1.0000
  H   H442      1.0  0.68766  0.28823  0.83798  1.0000
  H   H443      1.0  0.76538  0.04024  0.91775  1.0000
  H   H444      1.0  0.84528  0.17571  0.94098  1.0000
  H   H445      1.0  0.93368  0.02356  0.93109  1.0000
  C   C441      1.0  0.58644  0.07312  0.50244  1.0000
  H   H446      1.0  0.80482  0.19869  0.94563  1.0000
  H   H447      1.0  0.91204  0.00990  0.97669  1.0000
  H   H448      1.0  0.92325  0.28908  0.66376  1.0000
  H   H449      1.0  0.70724  0.29277  0.95935  1.0000
  S   S156      1.0  0.62926  0.28192  0.96290  1.0000
  C   C442      1.0  0.68949  0.28162  0.78661  1.0000
  H   H450      1.0  0.78944  0.03656  0.87712  1.0000
  C   C443      1.0  0.62676  0.31340  0.95239  1.0000
  C   C444      1.0  0.80724  0.03368  0.88563  1.0000
  C   C445      1.0  0.78134  0.03501  0.92854  1.0000
  H   H451      1.0  0.70152  0.26411  0.78421  1.0000
  H   H452      1.0  0.68387  0.28980  0.76669  1.0000
  H   H453      1.0  0.84242  0.02315  0.91792  1.0000
  H   H454      1.0  0.54863  0.10175  0.48246  1.0000
  H   H455      1.0  0.89064  0.28962  0.67173  1.0000
  C   C446      1.0  0.82428  0.02549  0.92863  1.0000
  C   C447      1.0  0.98972  0.01057  0.95339  1.0000
  C   C448      1.0  0.56183  0.31903  0.95480  1.0000
  N   N38       1.0  0.90529  0.32106  0.67956  1.0000
  C   C449      1.0  0.90544  0.30096  0.66372  1.0000
  H   H456      1.0  0.80173  0.31479  0.86413  1.0000
  H   H457      1.0  0.60525  0.06319  0.50072  1.0000
  C   C450      1.0  0.57478  0.99691  0.58623  1.0000
  C   C451      1.0  0.76438  0.13631  0.96978  1.0000
  H   H458      1.0  0.73030  0.12530  0.96334  1.0000
  C   C452      1.0  0.49970  0.09689  0.53745  1.0000
  C   C453      1.0  0.77616  0.15544  0.97489  1.0000
  C   C454      1.0  0.63608  0.32265  0.92670  1.0000
  H   H459      1.0  0.52325  0.00915  0.50989  1.0000
  C   C455      1.0  0.82188  0.02316  0.95661  1.0000
  H   H460      1.0  0.49703  0.00305  0.61649  1.0000
  H   H461      1.0  0.72809  0.20068  0.97436  1.0000
  C   C456      1.0  0.89171  0.04595  0.97626  1.0000
  C   C457      1.0  0.72956  0.32745  0.81921  1.0000
  C   C458      1.0  0.73234  0.32618  0.79175  1.0000
  C   C459      1.0  0.50614  0.01493  0.52149  1.0000
  N   N39       1.0  0.68105  0.32094  0.97413  1.0000
  C   C460      1.0  0.70798  0.32677  0.93358  1.0000
  C   C461      1.0  0.49168  0.09193  0.51399  1.0000
  H   H462      1.0  0.59199  0.03238  0.47874  1.0000
  Fe  Fe80      1.0  0.55867  0.59056  0.12787  1.0000
  S   S157      1.0  0.54957  0.60935  0.08759  1.0000
  S   S158      1.0  0.58381  0.60420  0.15240  1.0000
  Fe  Fe81      1.0  0.53160  0.54733  0.12473  1.0000
  H   H463      1.0  0.51774  0.39576  0.07774  1.0000
  S   S159      1.0  0.52282  0.50950  0.14051  1.0000
  Fe  Fe82      1.0  0.55863  0.57192  0.07496  1.0000
  S   S160      1.0  0.57980  0.56476  0.03583  1.0000
  H   H464      1.0  0.57170  0.49082  0.99806  1.0000
  S   S161      1.0  0.57058  0.55368  0.11405  1.0000
  S   S162      1.0  0.52046  0.58243  0.14265  1.0000
  C   C462      1.0  0.55554  0.46245  0.10919  1.0000
  H   H465      1.0  0.91172  0.59030  0.38705  1.0000
  H   H466      1.0  0.57000  0.53556  0.99700  1.0000
  S   S163      1.0  0.58514  0.45062  0.03838  1.0000
  C   C463      1.0  0.96258  0.49837  0.45245  1.0000
  C   C464      1.0  0.49228  0.50556  0.13926  1.0000
  Fe  Fe83      1.0  0.51245  0.59820  0.10099  1.0000
  C   C465      1.0  0.57494  0.64932  0.19648  1.0000
  H   H467      1.0  0.62631  0.62074  0.16615  1.0000
  H   H468      1.0  0.51359  0.61160  0.04764  1.0000
  C   C466      1.0  0.59366  0.65162  0.21143  1.0000
  C   C467      1.0  0.51168  0.39790  0.03628  1.0000
  C   C468      1.0  0.62010  0.63292  0.14909  1.0000
  S   S164      1.0  0.53597  0.45736  0.98945  1.0000
  H   H469      1.0  0.91790  0.54683  0.45549  1.0000
  C   C469      1.0  0.93506  0.53562  0.45860  1.0000
  N   N40       1.0  0.90444  0.64441  0.42871  1.0000
  C   C470      1.0  0.63225  0.65317  0.13882  1.0000
  H   H470      1.0  0.59841  0.52450  0.07323  1.0000
  C   C471      1.0  0.53669  0.49521  0.07748  1.0000
  C   C472      1.0  0.77229  0.64971  0.32766  1.0000
  C   C473      1.0  0.91752  0.62261  0.43744  1.0000
  S   S165      1.0  0.96855  0.46994  0.44042  1.0000
  H   H471      1.0  0.92806  0.50769  0.43624  1.0000
  H   H472      1.0  0.60214  0.60686  0.04764  1.0000
  H   H473      1.0  0.64803  0.65620  0.14762  1.0000
  C   C474      1.0  0.83837  0.62658  0.42691  1.0000
  C   C475      1.0  0.83578  0.62531  0.40006  1.0000
  H   H474      1.0  0.66557  0.64712  0.07755  1.0000
  C   C476      1.0  0.92059  0.60293  0.42245  1.0000
  H   H475      1.0  0.53074  0.43541  0.08650  1.0000
  H   H476      1.0  0.84018  0.61002  0.44077  1.0000
  H   H477      1.0  0.83598  0.60770  0.39327  1.0000
  C   C477      1.0  0.83855  0.64923  0.43569  1.0000
  C   C478      1.0  0.95176  0.54339  0.47287  1.0000
  C   C479      1.0  0.91002  0.60561  0.39852  1.0000
  H   H478      1.0  0.98699  0.45426  0.38448  1.0000
  C   C480      1.0  0.59981  0.62853  0.13760  1.0000
  H   H479      1.0  0.78846  0.63621  0.32697  1.0000
  H   H480      1.0  0.50581  0.44852  0.04885  1.0000
  N   N41       1.0  0.53957  0.47109  0.08802  1.0000
  H   H481      1.0  0.56366  0.47767  0.11521  1.0000
  H   H482      1.0  0.56551  0.63323  0.20061  1.0000
  H   H483      1.0  0.54565  0.50833  0.08522  1.0000
  S   S166      1.0  0.52069  0.56246  0.08427  1.0000
  H   H484      1.0  0.50170  0.49208  0.02826  1.0000
  H   H485      1.0  0.59861  0.63754  0.22759  1.0000
  C   C481      1.0  0.58390  0.53302  0.03513  1.0000
  C   C482      1.0  0.57690  0.52341  0.01369  1.0000
  C   C483      1.0  0.57787  0.49802  0.01432  1.0000
  C   C484      1.0  0.58624  0.48218  0.03618  1.0000
  C   C485      1.0  0.59413  0.49179  0.05713  1.0000
  C   C486      1.0  0.59268  0.51720  0.05677  1.0000
  N   N42       1.0  0.62964  0.60383  0.07411  1.0000
  H   H486      1.0  0.61437  0.57050  0.07539  1.0000
  H   H487      1.0  0.60087  0.47961  0.07391  1.0000
  C   C487      1.0  0.52296  0.50316  0.05593  1.0000
  C   C488      1.0  0.63876  0.65003  0.04980  1.0000
  C   C489      1.0  0.97913  0.50589  0.46711  1.0000
  C   C490      1.0  0.62072  0.63872  0.04153  1.0000
  C   C491      1.0  0.53838  0.34284  0.98904  1.0000
  H   H488      1.0  0.65689  0.60617  0.09931  1.0000
  C   C492      1.0  0.65213  0.63805  0.07037  1.0000
  H   H489      1.0  0.64152  0.56765  0.09160  1.0000
  C   C493      1.0  0.52827  0.45454  0.07826  1.0000
  H   H490      1.0  0.57074  0.44888  0.10197  1.0000
  C   C494      1.0  0.51412  0.46189  0.05695  1.0000
  H   H491      1.0  0.52964  0.40252  0.02891  1.0000
  C   C495      1.0  0.64709  0.61495  0.08262  1.0000
  C   C496      1.0  0.49587  0.61440  0.04037  1.0000
  C   C497      1.0  0.49512  0.39582  0.01843  1.0000
  C   C498      1.0  0.61635  0.61547  0.05401  1.0000
  S   S167      1.0  0.83225  0.64450  0.34808  1.0000
  H   H492      1.0  0.61315  0.58218  0.10710  1.0000
  S   S168      1.0  0.57153  0.40488  0.99093  1.0000
  S   S169      1.0  0.87563  0.58157  0.47144  1.0000
  C   C499      1.0  0.83339  0.64669  0.38194  1.0000
  C   C500      1.0  0.94080  0.51346  0.44773  1.0000
  H   H493      1.0  0.93083  0.58564  0.42961  1.0000
  C   C501      1.0  0.59189  0.64436  0.11559  1.0000
  C   C502      1.0  0.51172  0.48632  0.04553  1.0000
  H   H494      1.0  0.57601  0.64149  0.10692  1.0000
  C   C503      1.0  0.75703  0.65330  0.30728  1.0000
  H   H495      1.0  0.50053  0.46669  0.13782  1.0000
  C   C504      1.0  0.62439  0.57987  0.08770  1.0000
  H   H496      1.0  0.51835  0.34622  0.98791  1.0000
  C   C505      1.0  0.89487  0.64749  0.40473  1.0000
  H   H497      1.0  0.51043  0.60762  0.00042  1.0000
  C   C506      1.0  0.97397  0.52869  0.47676  1.0000
  C   C507      1.0  0.50494  0.39415  0.06393  1.0000
  H   H498      1.0  0.54365  0.35829  0.99778  1.0000
  H   H499      1.0  0.92546  0.62021  0.45625  1.0000
  H   H500      1.0  0.54499  0.45407  0.12728  1.0000
  C   C508      1.0  0.89717  0.62806  0.38948  1.0000
  C   C509      1.0  0.49408  0.61217  0.01360  1.0000
  H   H501      1.0  0.89847  0.65822  0.46633  1.0000
  H   H502      1.0  0.88862  0.63036  0.37103  1.0000
  Fe  Fe84      1.0  0.57343  0.44261  0.00028  1.0000
  H   H503      1.0  0.52181  0.52207  0.04690  1.0000
  H   H504      1.0  0.60997  0.64800  0.02581  1.0000
  H   H505      1.0  0.76130  0.64271  0.29054  1.0000
  S   S170      1.0  0.84499  0.65098  0.46821  1.0000
  H   H506      1.0  0.88245  0.46213  0.46607  1.0000
  H   H507      1.0  0.65729  0.35253  0.98499  1.0000
  S   S171      1.0  0.50292  0.40157  0.98389  1.0000
  H   H508      1.0  0.89407  0.50025  0.47802  1.0000
  S   S172      1.0  0.55161  0.43202  0.93382  1.0000
  N   N43       1.0  0.55123  0.34120  0.96220  1.0000
  H   H509      1.0  0.74089  0.33810  0.82758  1.0000
  C   C510      1.0  0.98069  0.36435  0.54326  1.0000
  S   S173      1.0  0.61654  0.39556  0.92531  1.0000
  Fe  Fe85      1.0  0.85593  0.56105  0.50691  1.0000
  H   H510      1.0  0.96898  0.60403  0.51413  1.0000
  H   H511      1.0  0.93463  0.36380  0.59378  1.0000
  C   C511      1.0  0.92489  0.50253  0.63721  1.0000
  S   S174      1.0  0.86710  0.59529  0.58969  1.0000
  C   C512      1.0  0.91748  0.34044  0.66899  1.0000
  H   H512      1.0  0.84440  0.49684  0.62681  1.0000
  C   C513      1.0  0.89848  0.62979  0.57993  1.0000
  Fe  Fe86      1.0  0.89680  0.45676  0.62621  1.0000
  S   S175      1.0  0.86128  0.44416  0.62210  1.0000
  C   C514      1.0  0.93528  0.62626  0.60195  1.0000
  Fe  Fe87      1.0  0.92476  0.40623  0.62563  1.0000
  S   S176      1.0  0.89215  0.38909  0.62036  1.0000
  C   C515      1.0  0.93252  0.41314  0.52309  1.0000
  Fe  Fe88      1.0  0.88336  0.42261  0.59144  1.0000
  S   S177      1.0  0.86915  0.42292  0.55215  1.0000
  Fe  Fe89      1.0  0.87309  0.41205  0.65157  1.0000
  S   S178      1.0  0.84882  0.39792  0.68736  1.0000
  S   S179      1.0  0.91814  0.43746  0.59331  1.0000
  S   S180      1.0  0.90660  0.42692  0.65901  1.0000
  C   C516      1.0  0.94539  0.53188  0.56578  1.0000
  H   H513      1.0  0.57439  0.57841  0.93407  1.0000
  C   C517      1.0  0.61451  0.32948  0.96993  1.0000
  C   C518      1.0  0.85925  0.45307  0.53903  1.0000
  C   C519      1.0  0.86729  0.47286  0.54804  1.0000
  S   S181      1.0  0.83667  0.59474  0.52379  1.0000
  C   C520      1.0  0.92907  0.45813  0.51705  1.0000
  H   H514      1.0  0.56418  0.54875  0.94441  1.0000
  H   H515      1.0  0.87911  0.46972  0.56383  1.0000
  H   H516      1.0  0.86650  0.51196  0.54338  1.0000
  H   H517      1.0  0.85401  0.36599  0.64583  1.0000
  H   H518      1.0  0.91703  0.54143  0.62748  1.0000
  C   C521      1.0  0.83441  0.35470  0.71186  1.0000
  H   H519      1.0  0.52514  0.55741  0.86647  1.0000
  C   C522      1.0  0.84314  0.36766  0.68775  1.0000
  H   H520      1.0  0.90266  0.37559  0.71967  1.0000
  Fe  Fe90      1.0  0.58766  0.41840  0.94975  1.0000
  H   H521      1.0  0.88198  0.33950  0.73932  1.0000
  C   C523      1.0  0.86035  0.49683  0.53624  1.0000
  H   H522      1.0  0.50777  0.54420  0.94566  1.0000
  C   C524      1.0  0.62059  0.36403  0.93607  1.0000
  C   C525      1.0  0.83650  0.48129  0.50735  1.0000
  H   H523      1.0  0.60271  0.36686  0.97572  1.0000
  H   H524      1.0  0.93207  0.59350  0.56152  1.0000
  N   N44       1.0  0.53973  0.57506  0.92289  1.0000
  C   C526      1.0  0.57552  0.33868  0.91117  1.0000
  C   C527      1.0  0.89250  0.33968  0.71982  1.0000
  H   H525      1.0  0.70424  0.36308  0.91186  1.0000
  S   S182      1.0  0.83542  0.53076  0.50089  1.0000
  H   H526      1.0  0.94204  0.45716  0.53147  1.0000
  S   S183      1.0  0.96369  0.63558  0.60326  1.0000
  H   H527      1.0  0.55731  0.54914  0.89711  1.0000
  C   C528      1.0  0.96994  0.37417  0.59631  1.0000
  C   C529      1.0  0.90613  0.59747  0.61626  1.0000
  H   H528      1.0  0.80324  0.50814  0.55909  1.0000
  C   C530      1.0  0.89172  0.60892  0.59624  1.0000
  C   C531      1.0  0.82302  0.49967  0.59384  1.0000
  C   C532      1.0  0.84850  0.35588  0.66474  1.0000
  H   H529      1.0  0.83011  0.36375  0.72971  1.0000
  H   H530      1.0  0.95481  0.55028  0.64303  1.0000
  H   H531      1.0  0.91454  0.55595  0.58126  1.0000
  S   S184      1.0  0.96179  0.38474  0.62745  1.0000
  H   H532      1.0  0.96987  0.61134  0.54772  1.0000
  S   S185      1.0  0.89880  0.49679  0.62443  1.0000
  C   C533      1.0  0.63307  0.34796  0.91858  1.0000
  C   C534      1.0  0.49905  0.53198  0.93641  1.0000
  S   S186      1.0  0.94500  0.57143  0.48582  1.0000
  C   C535      1.0  0.93240  0.55467  0.56985  1.0000
  N   N45       1.0  0.83732  0.53370  0.60861  1.0000
  C   C536      1.0  0.82726  0.54915  0.58829  1.0000
  C   C537      1.0  0.83568  0.50918  0.61128  1.0000
  C   C538      1.0  0.81471  0.54023  0.57033  1.0000
  C   C539      1.0  0.85109  0.54332  0.62663  1.0000
  H   H533      1.0  0.82904  0.56849  0.58576  1.0000
  H   H534      1.0  0.80725  0.55237  0.55381  1.0000
  H   H535      1.0  0.85282  0.53092  0.64566  1.0000
  H   H536      1.0  0.86978  0.54529  0.61679  1.0000
  H   H537      1.0  0.84215  0.56154  0.63164  1.0000
  H   H538      1.0  0.82201  0.48018  0.59574  1.0000
  C   C540      1.0  0.81242  0.51536  0.57331  1.0000
  H   H539      1.0  0.58576  0.33784  0.89161  1.0000
  C   C541      1.0  0.84633  0.33096  0.66607  1.0000
  C   C542      1.0  0.69791  0.35129  0.92946  1.0000
  C   C543      1.0  0.51242  0.51057  0.92822  1.0000
  C   C544      1.0  0.52038  0.59271  0.92744  1.0000
  C   C545      1.0  0.97758  0.55236  0.53997  1.0000
  H   H540      1.0  0.93983  0.59625  0.63347  1.0000
  H   H541      1.0  0.92653  0.37552  0.67488  1.0000
  C   C546      1.0  0.84495  0.50107  0.51584  1.0000
  H   H542      1.0  0.83746  0.44209  0.51183  1.0000
  H   H543      1.0  0.55109  0.57401  0.96187  1.0000
  H   H544      1.0  0.91766  0.40212  0.53174  1.0000
  S   S187      1.0  0.59281  0.45496  0.96044  1.0000
  C   C547      1.0  0.90236  0.48254  0.48680  1.0000
  C   C548      1.0  0.96805  0.53068  0.55040  1.0000
  Fe  Fe91      1.0  0.86947  0.59168  0.54601  1.0000
  H   H545      1.0  0.88716  0.63893  0.56473  1.0000
  C   C549      1.0  0.95805  0.36045  0.55715  1.0000
  C   C550      1.0  0.92977  0.52662  0.63559  1.0000
  C   C551      1.0  0.96742  0.51246  0.65550  1.0000
  H   H546      1.0  0.93737  0.46472  0.64999  1.0000
  H   H547      1.0  0.67139  0.37958  0.94497  1.0000
  H   H548      1.0  0.90063  0.58169  0.62927  1.0000
  C   C552      1.0  0.94104  0.48337  0.64853  1.0000
  C   C553      1.0  0.92008  0.63871  0.58310  1.0000
  C   C554      1.0  0.92825  0.60574  0.61867  1.0000
  C   C555      1.0  0.91920  0.48110  0.50527  1.0000
  C   C556      1.0  0.95116  0.53159  0.64437  1.0000
  C   C557      1.0  0.90409  0.35991  0.70880  1.0000
  C   C558      1.0  0.67158  0.34514  0.97066  1.0000
  C   C559      1.0  0.67965  0.36061  0.94814  1.0000
  C   C560      1.0  0.55208  0.36202  0.94444  1.0000
  C   C561      1.0  0.95250  0.36586  0.58352  1.0000
  C   C562      1.0  0.50076  0.49430  0.91726  1.0000
  H   H549      1.0  0.82442  0.48449  0.49175  1.0000
  H   H550      1.0  0.94459  0.40318  0.50793  1.0000
  H   H551      1.0  0.92443  0.49772  0.51044  1.0000
  C   C563      1.0  0.91710  0.36009  0.68347  1.0000
  S   S188      1.0  0.54395  0.50535  0.93019  1.0000
  C   C564      1.0  0.90599  0.43848  0.49231  1.0000
  S   S189      1.0  0.88684  0.55611  0.53207  1.0000
  Fe  Fe92      1.0  0.90497  0.57953  0.49822  1.0000
  Fe  Fe93      1.0  0.55505  0.46718  0.94881  1.0000
  H   H552      1.0  0.97819  0.51323  0.54636  1.0000
  C   C565      1.0  0.55830  0.56887  0.94169  1.0000
  C   C566      1.0  0.54199  0.56317  0.90071  1.0000
  H   H553      1.0  0.93772  0.51533  0.57441  1.0000
  C   C567      1.0  0.96201  0.48840  0.65823  1.0000
  C   C568      1.0  0.50202  0.59794  0.91026  1.0000
  Fe  Fe94      1.0  0.53595  0.42101  0.97582  1.0000
  C   C569      1.0  0.84382  0.45733  0.51873  1.0000
  C   C570      1.0  0.89586  0.46113  0.48005  1.0000
  S   S190      1.0  0.89044  0.61475  0.51431  1.0000
  C   C571      1.0  0.61157  0.35472  0.96182  1.0000
  H   H554      1.0  0.98711  0.53476  0.48741  1.0000
  C   C572      1.0  0.94240  0.57591  0.55881  1.0000
  N   N46       1.0  0.96503  0.57456  0.54482  1.0000
  H   H555      1.0  0.51109  0.47774  0.91081  1.0000
  H   H556      1.0  0.94332  0.41449  0.53965  1.0000
  H   H557      1.0  0.64007  0.35506  0.89859  1.0000
  H   H558      1.0  0.94436  0.35450  0.54711  1.0000
  Fe  Fe95      1.0  0.85908  0.61497  0.49053  1.0000
  C   C573      1.0  0.56443  0.36115  0.91879  1.0000
  H   H559      1.0  0.54352  0.37952  0.95024  1.0000
  C   C574      1.0  0.50364  0.58517  0.88824  1.0000
  N   N47       1.0  0.92224  0.43721  0.51068  1.0000
  H   H560      1.0  0.51862  0.60237  0.94486  1.0000
  C   C575      1.0  0.52385  0.56780  0.88325  1.0000
  H   H561      1.0  0.92544  0.65467  0.57024  1.0000
  H   H562      1.0  0.56596  0.37789  0.90520  1.0000
  C   C576      1.0  0.97536  0.59711  0.53399  1.0000
  H   H563      1.0  0.97396  0.42829  0.58954  1.0000
  H   H564      1.0  0.98088  0.45449  0.56642  1.0000
  H   H565      1.0  0.74568  0.33598  0.77876  1.0000
  H   H566      1.0  0.90026  0.42190  0.48767  1.0000
  H   H567      1.0  0.97418  0.47361  0.66747  1.0000
  H   H568      1.0  0.92727  0.34103  0.64907  1.0000
  S   S191      1.0  0.98580  0.36268  0.50890  1.0000
  C   C577      1.0  0.83219  0.32977  0.71322  1.0000
  C   C578      1.0  0.98875  0.43927  0.58064  1.0000
  C   C579      1.0  0.61247  0.80312  0.42333  1.0000
  H   H569      1.0  0.94603  0.88902  0.06997  1.0000
  S   S192      1.0  0.95831  0.93891  0.11455  1.0000
  H   H570      1.0  0.78863  0.70799  0.23932  1.0000
  N   N48       1.0  0.87193  0.79070  0.25585  1.0000
  Fe  Fe96      1.0  0.84593  0.87524  0.11447  1.0000
  S   S193      1.0  0.85567  0.86369  0.15632  1.0000
  S   S194      1.0  0.86058  0.90723  0.08775  1.0000
  Fe  Fe97      1.0  0.81422  0.83442  0.11737  1.0000
  S   S195      1.0  0.82153  0.81961  0.15923  1.0000
  S   S196      1.0  0.79456  0.81130  0.09653  1.0000
  Fe  Fe98      1.0  0.81631  0.85882  0.16625  1.0000
  S   S197      1.0  0.79839  0.86755  0.20626  1.0000
  Fe  Fe99      1.0  0.86012  0.82552  0.14578  1.0000
  S   S198      1.0  0.89255  0.79862  0.15662  1.0000
  S   S199      1.0  0.80555  0.87365  0.12531  1.0000
  S   S200      1.0  0.85365  0.83716  0.10297  1.0000
  C   C580      1.0  0.88882  0.96593  0.13738  1.0000
  H   H571      1.0  0.73478  0.77828  0.16915  1.0000
  H   H572      1.0  0.61816  0.78185  0.35341  1.0000
  H   H573      1.0  0.61099  0.80962  0.44276  1.0000
  N   N49       1.0  0.73159  0.68516  0.32888  1.0000
  H   H574      1.0  0.56310  0.72140  0.15482  1.0000
  Fe  Fe100     1.0  0.67733  0.75807  0.13952  1.0000
  S   S201      1.0  0.68707  0.74300  0.18038  1.0000
  S   S202      1.0  0.68353  0.79749  0.12910  1.0000
  Fe  Fe101     1.0  0.65934  0.71073  0.13109  1.0000
  H   H575      1.0  0.52845  0.97037  0.45707  1.0000
  Fe  Fe102     1.0  0.65212  0.72703  0.18616  1.0000
  S   S203      1.0  0.62524  0.72578  0.22300  1.0000
  Fe  Fe103     1.0  0.70276  0.70923  0.16181  1.0000
  S   S204      1.0  0.64044  0.74514  0.14680  1.0000
  Fe  Fe104     1.0  0.67261  0.78699  0.31942  1.0000
  S   S205      1.0  0.64973  0.81499  0.29393  1.0000
  S   S206      1.0  0.66102  0.74970  0.32847  1.0000
  Fe  Fe105     1.0  0.70541  0.82335  0.32850  1.0000
  S   S207      1.0  0.68533  0.85417  0.30325  1.0000
  S   S208      1.0  0.73419  0.83388  0.35025  1.0000
  Fe  Fe106     1.0  0.65189  0.83966  0.32451  1.0000
  S   S209      1.0  0.61921  0.86497  0.33897  1.0000
  Fe  Fe107     1.0  0.68558  0.82633  0.27542  1.0000
  S   S210      1.0  0.69467  0.83240  0.23101  1.0000
  S   S211      1.0  0.67185  0.81048  0.35174  1.0000
  S   S212      1.0  0.70847  0.79647  0.29874  1.0000
  Fe  Fe108     1.0  0.84538  0.70712  0.26897  1.0000
  S   S213      1.0  0.81959  0.74122  0.27447  1.0000
  S   S214      1.0  0.87221  0.70253  0.23276  1.0000
  C   C581      1.0  0.81459  0.75394  0.13497  1.0000
  H   H576      1.0  0.70535  0.70400  0.21708  1.0000
  H   H577      1.0  0.59779  0.67683  0.08830  1.0000
  Fe  Fe109     1.0  0.83033  0.73541  0.31609  1.0000
  S   S215      1.0  0.83626  0.76855  0.33338  1.0000
  S   S216      1.0  0.85891  0.70347  0.30929  1.0000
  C   C582      1.0  0.76259  0.81589  0.34516  1.0000
  C   C583      1.0  0.76473  0.79468  0.33279  1.0000
  C   C584      1.0  0.78741  0.78036  0.32890  1.0000
  C   C585      1.0  0.80804  0.78698  0.33767  1.0000
  C   C586      1.0  0.80601  0.80830  0.34989  1.0000
  C   C587      1.0  0.78328  0.82272  0.35368  1.0000
  H   H578      1.0  0.74885  0.78892  0.32680  1.0000
  H   H579      1.0  0.78874  0.76401  0.31942  1.0000
  H   H580      1.0  0.82192  0.81350  0.35670  1.0000
  H   H581      1.0  0.78172  0.83910  0.36331  1.0000
  H   H582      1.0  0.65738  0.83904  0.15747  1.0000
  C   C588      1.0  0.76694  0.66388  0.34873  1.0000
  H   H583      1.0  0.63913  0.91796  0.43015  1.0000
  N   N50       1.0  0.83640  0.72044  0.16118  1.0000
  C   C589      1.0  0.63678  0.73136  0.25190  1.0000
  C   C590      1.0  0.62697  0.72103  0.27695  1.0000
  C   C591      1.0  0.63511  0.72602  0.30040  1.0000
  C   C592      1.0  0.65251  0.74199  0.29892  1.0000
  C   C593      1.0  0.66230  0.75245  0.27388  1.0000
  C   C594      1.0  0.65466  0.74689  0.25036  1.0000
  H   H584      1.0  0.61307  0.70911  0.27824  1.0000
  H   H585      1.0  0.62743  0.71798  0.31970  1.0000
  H   H586      1.0  0.67582  0.76478  0.27261  1.0000
  H   H587      1.0  0.66204  0.75526  0.23116  1.0000
  S   S217      1.0  0.96544  0.98640  0.04957  1.0000
  C   C595      1.0  0.61381  0.86895  0.42855  1.0000
  C   C596      1.0  0.63452  0.85652  0.41558  1.0000
  C   C597      1.0  0.63658  0.85626  0.38793  1.0000
  C   C598      1.0  0.61750  0.86736  0.37323  1.0000
  C   C599      1.0  0.59663  0.87971  0.38620  1.0000
  C   C600      1.0  0.59483  0.88064  0.41389  1.0000
  H   H588      1.0  0.64927  0.84757  0.42686  1.0000
  H   H589      1.0  0.65319  0.84789  0.37807  1.0000
  H   H590      1.0  0.58182  0.88850  0.37488  1.0000
  H   H591      1.0  0.57871  0.89020  0.42388  1.0000
  H   H592      1.0  0.89371  0.95237  0.15405  1.0000
  H   H593      1.0  0.87223  0.75224  0.26397  1.0000
  Fe  Fe110     1.0  0.79251  0.71572  0.29117  1.0000
  C   C601      1.0  0.88646  0.77251  0.17861  1.0000
  C   C602      1.0  0.86361  0.77106  0.19330  1.0000
  C   C603      1.0  0.85917  0.74974  0.21039  1.0000
  C   C604      1.0  0.87762  0.72988  0.21286  1.0000
  C   C605      1.0  0.90049  0.73141  0.19835  1.0000
  C   C606      1.0  0.90495  0.75275  0.18141  1.0000
  H   H594      1.0  0.84946  0.78639  0.19178  1.0000
  H   H595      1.0  0.84130  0.74846  0.22100  1.0000
  H   H596      1.0  0.91477  0.71603  0.20015  1.0000
  H   H597      1.0  0.92268  0.75382  0.17016  1.0000
  C   C607      1.0  0.76900  0.85919  0.21242  1.0000
  C   C608      1.0  0.75772  0.85694  0.23865  1.0000
  C   C609      1.0  0.73475  0.84896  0.24426  1.0000
  C   C610      1.0  0.72286  0.84351  0.22362  1.0000
  C   C611      1.0  0.73393  0.84618  0.19725  1.0000
  C   C612      1.0  0.75714  0.85382  0.19165  1.0000
  H   H598      1.0  0.76686  0.86107  0.25474  1.0000
  H   H599      1.0  0.72645  0.84681  0.26465  1.0000
  H   H600      1.0  0.72479  0.84194  0.18123  1.0000
  H   H601      1.0  0.76582  0.85557  0.17131  1.0000
  C   C613      1.0  0.76388  0.80761  0.10705  1.0000
  C   C614      1.0  0.74799  0.82517  0.12007  1.0000
  C   C615      1.0  0.72322  0.82213  0.12664  1.0000
  C   C616      1.0  0.71454  0.80116  0.12106  1.0000
  C   C617      1.0  0.73069  0.78324  0.10901  1.0000
  C   C618      1.0  0.75515  0.78668  0.10160  1.0000
  H   H602      1.0  0.75457  0.84146  0.12419  1.0000
  H   H603      1.0  0.71080  0.83611  0.13590  1.0000
  H   H604      1.0  0.72414  0.76715  0.10441  1.0000
  H   H605      1.0  0.76728  0.77316  0.09129  1.0000
  C   C619      1.0  0.93230  0.92918  0.10526  1.0000
  C   C620      1.0  0.92302  0.90888  0.12037  1.0000
  C   C621      1.0  0.90154  0.90141  0.11446  1.0000
  C   C622      1.0  0.88914  0.91424  0.09344  1.0000
  C   C623      1.0  0.89900  0.93392  0.07756  1.0000
  C   C624      1.0  0.92049  0.94146  0.08352  1.0000
  H   H606      1.0  0.93223  0.89913  0.13704  1.0000
  H   H607      1.0  0.89445  0.88592  0.12644  1.0000
  H   H608      1.0  0.88956  0.94381  0.06114  1.0000
  H   H609      1.0  0.92746  0.95712  0.07174  1.0000
  H   H610      1.0  0.87511  0.71947  0.15772  1.0000
  S   S218      1.0  0.69543  0.72533  0.12005  1.0000
  C   C625      1.0  0.83520  0.67071  0.41778  1.0000
  C   C626      1.0  0.74218  0.78046  0.18732  1.0000
  C   C627      1.0  0.63698  0.82070  0.22053  1.0000
  C   C628      1.0  0.62083  0.80573  0.23563  1.0000
  C   C629      1.0  0.61115  0.78907  0.22328  1.0000
  H   H611      1.0  0.64465  0.83340  0.23038  1.0000
  H   H612      1.0  0.61621  0.80669  0.25685  1.0000
  H   H613      1.0  0.59919  0.77681  0.23488  1.0000
  H   H614      1.0  0.67974  0.82311  0.17871  1.0000
  H   H615      1.0  0.83660  0.77942  0.11087  1.0000
  C   C630      1.0  0.88091  0.76697  0.27015  1.0000
  S   S219      1.0  0.63912  0.69451  0.10338  1.0000
  H   H616      1.0  0.78831  0.80364  0.20854  1.0000
  H   H617      1.0  0.79767  0.72592  0.16101  1.0000
  H   H618      1.0  0.75919  0.80592  0.26723  1.0000
  S   S220      1.0  0.66847  0.69165  0.17121  1.0000
  H   H619      1.0  0.64558  0.76080  0.38639  1.0000
  H   H620      1.0  0.61036  0.77445  0.18648  1.0000
  H   H621      1.0  0.79753  0.76352  0.12855  1.0000
  H   H622      1.0  0.70192  0.70749  0.31046  1.0000
  C   C631      1.0  0.95070  0.89127  0.04788  1.0000
  H   H623      1.0  0.66679  0.88852  0.34588  1.0000
  H   H624      1.0  0.59228  0.71297  0.13609  1.0000
  C   C632      1.0  0.67071  0.89177  0.43777  1.0000
  S   S221      1.0  0.61271  0.87020  0.46286  1.0000
  C   C633      1.0  0.75015  0.71425  0.25214  1.0000
  H   H625      1.0  0.58366  0.82992  0.40931  1.0000
  H   H626      1.0  0.83517  0.68829  0.42456  1.0000
  S   S222      1.0  0.56820  0.93240  0.45699  1.0000
  C   C634      1.0  0.77048  0.70709  0.23453  1.0000
  C   C635      1.0  0.72667  0.71328  0.24575  1.0000
  C   C636      1.0  0.76725  0.69923  0.21031  1.0000
  H   H627      1.0  0.91818  0.67429  0.44073  1.0000
  H   H628      1.0  0.56761  0.80907  0.35994  1.0000
  C   C637      1.0  0.59994  0.68964  0.18390  1.0000
  C   C638      1.0  0.73030  0.77273  0.21223  1.0000
  H   H629      1.0  0.87669  0.76701  0.29215  1.0000
  N   N51       1.0  0.59949  0.80727  0.37933  1.0000
  H   H630      1.0  0.59324  0.82097  0.33912  1.0000
  H   H631      1.0  0.87548  0.75740  0.12589  1.0000
  C   C639      1.0  0.90331  0.98443  0.12814  1.0000
  C   C640      1.0  0.68315  0.89344  0.35332  1.0000
  C   C641      1.0  0.73985  0.77586  0.23547  1.0000
  H   H632      1.0  0.64709  0.91893  0.38090  1.0000
  N   N52       1.0  0.67926  0.89300  0.38247  1.0000
  C   C642      1.0  0.65974  0.90756  0.39353  1.0000
  C   C643      1.0  0.69473  0.87795  0.39843  1.0000
  C   C644      1.0  0.65521  0.90722  0.42132  1.0000
  C   C645      1.0  0.69069  0.87712  0.42630  1.0000
  H   H633      1.0  0.57618  0.83852  0.36345  1.0000
  H   H634      1.0  0.71010  0.86619  0.38970  1.0000
  C   C646      1.0  0.51127  0.97975  0.45118  1.0000
  H   H635      1.0  0.68658  0.91195  0.34363  1.0000
  H   H636      1.0  0.69632  0.69898  0.34604  1.0000
  H   H637      1.0  0.88481  0.66487  0.39757  1.0000
  C   C647      1.0  0.72350  0.70530  0.22163  1.0000
  H   H638      1.0  0.69907  0.88018  0.34698  1.0000
  Fe  Fe111     1.0  0.82838  0.68093  0.32273  1.0000
  C   C648      1.0  0.88538  0.80038  0.23348  1.0000
  C   C649      1.0  0.84957  0.80253  0.26428  1.0000
  C   C650      1.0  0.87677  0.82272  0.21930  1.0000
  C   C651      1.0  0.84042  0.82494  0.25056  1.0000
  C   C652      1.0  0.85423  0.83510  0.22804  1.0000
  H   H639      1.0  0.90267  0.79063  0.22610  1.0000
  H   H640      1.0  0.88735  0.83014  0.20133  1.0000
  H   H641      1.0  0.82273  0.83444  0.25726  1.0000
  H   H642      1.0  0.84737  0.85250  0.21727  1.0000
  C   C653      1.0  0.61754  0.78765  0.19607  1.0000
  C   C654      1.0  0.59710  0.81464  0.40424  1.0000
  C   C655      1.0  0.61635  0.78789  0.37308  1.0000
  N   N53       1.0  0.64323  0.81914  0.19382  1.0000
  C   C656      1.0  0.63379  0.80282  0.18157  1.0000
  H   H643      1.0  0.83873  0.79474  0.28177  1.0000
  C   C657      1.0  0.58322  0.81945  0.35954  1.0000
  H   H644      1.0  0.78286  0.69380  0.19659  1.0000
  H   H645      1.0  0.56666  0.69860  0.13197  1.0000
  H   H646      1.0  0.90100  0.76251  0.26602  1.0000
  H   H647      1.0  0.77227  0.79819  0.16668  1.0000
  C   C658      1.0  0.66128  0.83386  0.17861  1.0000
  H   H648      1.0  0.66168  0.85096  0.18742  1.0000
  H   H649      1.0  0.97815  0.93153  0.98258  1.0000
  C   C659      1.0  0.83607  0.69859  0.18100  1.0000
  C   C660      1.0  0.81484  0.73265  0.15327  1.0000
  H   H650      1.0  0.63895  0.80131  0.16050  1.0000
  H   H651      1.0  0.78946  0.79283  0.25546  1.0000
  C   C661      1.0  0.85801  0.72895  0.15130  1.0000
  C   C662      1.0  0.83652  0.76283  0.12496  1.0000
  H   H652      1.0  0.71599  0.72193  0.33236  1.0000
  H   H653      1.0  0.73044  0.76975  0.25468  1.0000
  H   H654      1.0  0.76848  0.77354  0.27400  1.0000
  C   C663      1.0  0.85838  0.75032  0.13318  1.0000
  C   C664      1.0  0.57556  0.70598  0.14696  1.0000
  C   C665      1.0  0.77000  0.78986  0.25883  1.0000
  Fe  Fe112     1.0  0.97164  0.97307  0.09204  1.0000
  N   N54       1.0  0.76076  0.78631  0.23404  1.0000
  H   H655      1.0  0.71369  0.76449  0.21369  1.0000
  C   C666      1.0  0.76335  0.79139  0.18597  1.0000
  C   C667      1.0  0.77237  0.79434  0.20971  1.0000
  H   H656      1.0  0.74272  0.69310  0.36505  1.0000
  H   H657      1.0  0.64231  0.77477  0.43144  1.0000
  C   C668      1.0  0.86340  0.98114  0.10193  1.0000
  H   H658      1.0  0.84828  0.97906  0.09128  1.0000
  H   H659      1.0  0.88539  0.67824  0.44001  1.0000
  C   C669      1.0  0.60618  0.67197  0.20523  1.0000
  H   H660      1.0  0.82532  0.68543  0.17482  1.0000
  C   C670      1.0  0.74376  0.69881  0.20361  1.0000
  S   S223      1.0  0.81715  0.68185  0.28173  1.0000
  H   H661      1.0  0.72500  0.67405  0.29216  1.0000
  H   H662      1.0  0.94454  0.87569  0.04025  1.0000
  C   C671      1.0  0.63006  0.78367  0.41694  1.0000
  S   S224      1.0  0.80094  0.71256  0.33352  1.0000
  H   H663      1.0  0.71090  0.71871  0.25938  1.0000
  C   C672      1.0  0.73649  0.67105  0.30835  1.0000
  S   S225      1.0  0.75381  0.72454  0.28216  1.0000
  S   S226      1.0  0.73977  0.69160  0.17211  1.0000
  C   C673      1.0  0.86868  0.96426  0.12427  1.0000
  C   C674      1.0  0.63190  0.77583  0.39174  1.0000
  H   H664      1.0  0.85473  0.68895  0.18355  1.0000
  C   C675      1.0  0.62417  0.66913  0.11698  1.0000
  H   H665      1.0  0.83098  0.68603  0.37694  1.0000
  C   C676      1.0  0.71038  0.70416  0.32956  1.0000
  C   C677      1.0  0.74643  0.68171  0.34897  1.0000
  H   H666      1.0  0.60986  0.70532  0.17912  1.0000
  C   C678      1.0  0.98827  0.90700  0.05334  1.0000
  H   H667      1.0  0.98785  0.96335  0.00729  1.0000
  H   H668      1.0  0.94032  0.90854  0.03924  1.0000
  H   H669      1.0  0.85788  0.94931  0.13060  1.0000
  H   H670      1.0  0.70269  0.86481  0.43892  1.0000
  H   H671      1.0  0.82794  0.70386  0.20084  1.0000
  H   H672      1.0  0.64199  0.66833  0.04085  1.0000
  H   H673      1.0  0.62074  0.67409  0.21674  1.0000
  H   H674      1.0  0.91944  0.98535  0.13773  1.0000
  H   H675      1.0  0.97797  0.91798  0.06799  1.0000
  N   N55       1.0  0.97697  0.89205  0.04112  1.0000
  H   H676      1.0  0.66673  0.89063  0.45938  1.0000
  C   C679      1.0  0.98986  0.87870  0.02208  1.0000
  H   H677      1.0  0.98085  0.86751  0.01157  1.0000
  N   N56       1.0  0.58186  0.68704  0.16904  1.0000
  C   C680      1.0  0.83279  0.66944  0.39085  1.0000
  C   C681      1.0  0.60409  0.66456  0.10526  1.0000
  C   C682      1.0  0.90166  0.66485  0.44463  1.0000
  C   C683      1.0  0.56912  0.66740  0.17534  1.0000
  H   H678      1.0  0.55493  0.66511  0.16346  1.0000
  S   S227      1.0  0.49790  0.93444  0.45137  1.0000
  Fe  Fe113     1.0  0.53096  0.92308  0.47336  1.0000
  C   C684      1.0  0.49300  0.96651  0.44678  1.0000
  H   H679      1.0  0.77898  0.66141  0.36442  1.0000
  C   C685      1.0  0.57998  0.97308  0.57935  1.0000
  S   S228      1.0  0.58463  0.91079  0.51690  1.0000
  C   C686      1.0  0.57998  0.96891  0.55269  1.0000
  Fe  Fe114     1.0  0.54620  0.90285  0.52816  1.0000
  S   S229      1.0  0.53367  0.88969  0.57067  1.0000
  S   S230      1.0  0.52979  0.93984  0.51102  1.0000
  H   H680      1.0  0.54307  0.93960  0.66974  1.0000
  C   C687      1.0  0.53457  0.94018  0.60808  1.0000
  H   H681      1.0  0.58404  0.95050  0.54751  1.0000
  H   H682      1.0  0.58400  0.95785  0.59457  1.0000
  S   S231      1.0  0.54378  0.88503  0.49185  1.0000
  C   C688      1.0  0.50200  0.88976  0.57587  1.0000
  C   C689      1.0  0.50534  0.97364  0.59190  1.0000
  H   H683      1.0  0.49892  0.90279  0.61432  1.0000
  H   H684      1.0  0.52570  0.98380  0.64896  1.0000
  C   C690      1.0  0.55320  0.94082  0.64939  1.0000
  Fe  Fe115     1.0  0.58118  0.89587  0.47894  1.0000
  N   N57       1.0  0.53659  0.95186  0.62951  1.0000
  H   H685      1.0  0.56809  0.95228  0.64868  1.0000
  H   H686      1.0  0.56158  0.92205  0.64574  1.0000
  H   H687      1.0  0.54509  0.92249  0.60556  1.0000
  Fe  Fe116     1.0  0.56792  0.94639  0.49631  1.0000
  H   H688      1.0  0.51768  0.94158  0.57195  1.0000
  C   C691      1.0  0.51903  0.95095  0.58889  1.0000
  C   C692      1.0  0.50755  0.98542  0.61378  1.0000
  S   S232      1.0  0.57570  0.98422  0.49926  1.0000
  H   H689      1.0  0.49918  0.87673  0.53852  1.0000
  N   N58       1.0  0.98465  0.98269  0.92299  1.0000
  C   C693      1.0  0.52350  0.97427  0.63238  1.0000
  C   C694      1.0  0.57537  0.98863  0.53283  1.0000
  H   H690      1.0  0.95023  0.98770  0.90736  1.0000
  H   H691      1.0  0.98346  0.94573  0.91780  1.0000
  H   H692      1.0  0.96412  0.69606  0.65198  1.0000
  C   C695      1.0  0.96151  0.99417  0.92009  1.0000
  H   H693      1.0  0.96534  0.68497  0.62009  1.0000
  C   C696      1.0  0.97400  0.68248  0.63905  1.0000
  H   H694      1.0  0.97165  0.66385  0.64941  1.0000
  H   H695      1.0  0.49311  0.98206  0.57731  1.0000
  H   H696      1.0  0.49321  0.98400  0.69020  1.0000
