data_image0
_chemical_formula_structural       FeS2FeS2FeSFeS3NCHSH2FeS2FeS2FeSFeS3HSFeSNC4NHC6H4CNCH2C2H3C9H4C6H4C4H2C2H3CH2CNH2CH2C3SCH4CHCNC2HCH4C3HFeC2H2SCHC2H2CNCFeHCHC2H3CH2S2C2HCHFeH2CHSCHCHSH4SFeS2FeS2FeSFeS3CSH3SFeS2FeS2FeSFeS3C3H2C4HCH4C6H4C6H4C2H4C3HC6H4FeCH2CNC6H8NC6H3CH2CFeSC2HCHCH2C2HSH3SC2HC2HC2HCN2H6C2HSH2CH2CFeHFeC5HC2H3C3HS2FeSFeSFeS2FeS2FeSFeS3FeS2FeS2FeSFeS3FeSCHCSC8H5CHC6H4C6H4C3HC2NSH2C6H4CHNCH5CH3CH4CH3C2H2CNH2CHCHNH2NCH2CHNHCH3CH3C5H3C3HCFeSH3CH2C2FeS2HFeS2FeS2FeSFeS3FeS2FeS2FeSFeS3FeSFeCS2H2C9H4C2H2C2H2CHC6H4C2HCHC2HCHC6H4CH3CHC2H2SCH3CH2C2HC3H2NHCNCHCH2C4H2SCH2CH2CFeCSH9C3NH3C2H2C4H3CHCHNCHCHCNCH2CNHCHSHCSNFeS2FeS2FeSFeS3FeS2FeS2FeSFeS3HC2SCSFeC4H3C3HC7H4C6H4C2H3SC3HC6H4CHCH2NC6HCHC2HCH4CFeH3C2FeCHCHNH2SCNCH5SH3CNC6H9CNH2CHCH2CHCFeH4C5HCH2CHS2CFeS2FeS2FeSFeS3H3NFeSFeS2FeS2FeSFeS3FeSH2C3SH2C6H6CHC6H4C3H2C3H2C6H5NC3H7C2HCNHCHC2HCH2C2NC3H2CFeH2C2HCHCHCHC2HC3H4C2HCH3NHC3NHCHCH5C3H2SHNCH2C2S2H2FeSFeS2FeS2FeSFeS3FeSFeS3FeS2FeS2FeSFeS3HCH2CH2CHC7H5CHC2SC7H4C3HC3HNHC6H5CH5CHCNC3HC2H2C3HC2HNCH2CH3C2H4CH4C2NC4HNC2HCFeNC6H8C3SH2CH5C2H3C2HCHCH4CH2NC2HC2HFeS3FeHFeS2HFeS2FeS2FeSFeS3FeS2FeS2FeSFeS3H2CH2CHC2HC6H4C4H6C6H4C2HCS2C6H4C2H3NCFeH4C3HC3H2NHCNH2NHCH4CHCHC2H4SC5FeC2H2C3HCH2C2NC2HCH2CHCSHC2NH2CHCHCSHC3HC2H2NCH2CH4C2HCH3C2HFeS2FeS2FeSFeS3C2FeSH3SHCHSFeS2FeS2FeSFeS3C3H2C3HC7H4CH2CH2CHC6H4C6H4C2H2FeHC2H2NC6H8CH3C2NH3CHCH2CHC2H2CSH2CHC2HNHC2HCHCSH2CH3CHSHC4HCHCFeSH3CHNH3C2HSCSH2FeSH2FeS2FeS2FeSFeS3FeS2FeS2FeSFeS3HC2H3C2H2C6H4CHC2HC3H2C6H5NCHC7H4CHCHCNC6H8C2H2C2HC2H4CSCNHCH3CHC2NC7H3S2H2NH2CFeC3H6C3H2FeCSCHCHC2H2FeS2FeS2FeSFeS4CNCFeSFeS2FeS2FeSFeS3FeSFeS3H2C2HC6H4CHFeH3C2H2CNHCSHC7H4C6H5C2HC7HC2H3NH2CH2CNH2CSHC2H7C4HC4H2CHCH2CHCHCH3NC6H8NHC3NCH2CHCHSC4HCH2CH3C3HC2FeH2CH2NC2FeS2FeS2FeSFeS3FeSHCS2FeS2FeS2FeSFeS3FeSH2CSCHCFeC7H4CH2NH2C2H2CHFeCNC6H4C6H4C2H3CNSCHNC6H8CH2C2H2SC4HC4HC4HC3HC2H8C2H2CHSH2CFeHCH4CHNH4SC3H2C4H4CH2C2H2CFeSCHFeS2FeS2FeSFeS3FeS2FeS2FeSFeS3HSFeS2HC9H4CHCH3C2H2C6H4C4HC2H2C7H4NH4C2H3NC4HCH2CH5CH3C3HCHCNC6H9NSHCNHCH7C2H2C2H2C4FeHCHCHCHS2C3H3SNC2HSFeS2FeS2FeSFeS3HSCNFeSFeS2FeS2FeSFeS3CHCH2C2SFeC7H5C9H4CHCHC3H3C6H4C3SCHCH3C3H2C2NCHCHCNHCHC2HFeHCH3CH3C3HCHC2H6C2H4CHNCH2NHCH3CHCHCH2C3H3C2HCH2CH3C2H2SFeSHSFeS2FeS2FeSFeS5HCFeSFeS2FeS2FeSFeS3C2H3C2H2C7H4C2HC2HC7H4C4HCH3SC6H4CHC2HC4H3CHC2FeHC2NC6H3NCH5CH4C3SFeCNCH2C3H2CH2NH2SHNHCH2CH2CHNH3FeHC3HCH4NC2H2C2HCFeS2CFeSFeS3FeS2FeS2FeSFeS3FeS2FeS2FeSFeS3CH3C3H3C6H4C3NH2CH3C6H6CH2C7H7CHSHNH2C3HC3H3FeNHCH2CNHCH4NC3HSCH2C2HSH2C3H2CH2C2HCH2CFeC3HCHCNCSC
_chemical_formula_sum              "Fe192 S384 N96 C1152 H1152"
_cell_length_a       62.8769
_cell_length_b       63.1132
_cell_length_c       62.8281
_cell_angle_alpha    87.1134
_cell_angle_beta     87.2488
_cell_angle_gamma    87.6209

_space_group_name_H-M_alt    "P 1"
_space_group_IT_number       1

loop_
  _space_group_symop_operation_xyz
  'x, y, z'

loop_
  _atom_site_type_symbol
  _atom_site_label
  _atom_site_symmetry_multiplicity
  _atom_site_fract_x
  _atom_site_fract_y
  _atom_site_fract_z
  _atom_site_occupancy
  Fe  Fe1       1.0  0.39914  0.12478  0.28024  1.0000
  S   S1        1.0  0.40190  0.10356  0.25227  1.0000
  S   S2        1.0  0.36544  0.13301  0.29316  1.0000
  Fe  Fe2       1.0  0.44728  0.13189  0.27761  1.0000
  S   S3        1.0  0.45298  0.11160  0.24961  1.0000
  S   S4        1.0  0.47530  0.14746  0.29102  1.0000
  Fe  Fe3       1.0  0.42359  0.12825  0.23706  1.0000
  S   S5        1.0  0.42334  0.13928  0.20202  1.0000
  Fe  Fe4       1.0  0.43106  0.08907  0.26761  1.0000
  S   S6        1.0  0.44330  0.05539  0.27567  1.0000
  S   S7        1.0  0.41917  0.15024  0.26397  1.0000
  S   S8        1.0  0.42682  0.10870  0.29658  1.0000
  N   N1        1.0  0.47270  0.25575  0.17125  1.0000
  C   C1        1.0  0.50460  0.22989  0.15275  1.0000
  H   H1        1.0  0.26819  0.09466  0.35560  1.0000
  S   S9        1.0  0.40690  0.23596  0.17165  1.0000
  H   H2        1.0  0.21824  0.05948  0.43915  1.0000
  H   H3        1.0  0.10059  0.25117  0.50161  1.0000
  Fe  Fe5       1.0  0.29683  0.12663  0.40427  1.0000
  S   S10       1.0  0.26653  0.12979  0.38659  1.0000
  S   S11       1.0  0.33111  0.12619  0.39052  1.0000
  Fe  Fe6       1.0  0.27254  0.11540  0.44754  1.0000
  S   S12       1.0  0.24072  0.11788  0.43262  1.0000
  S   S13       1.0  0.27571  0.09945  0.48053  1.0000
  Fe  Fe7       1.0  0.25716  0.10014  0.40586  1.0000
  S   S14       1.0  0.24267  0.07156  0.39217  1.0000
  Fe  Fe8       1.0  0.25300  0.14725  0.41511  1.0000
  S   S15       1.0  0.23666  0.18023  0.41484  1.0000
  S   S16       1.0  0.28814  0.09622  0.42174  1.0000
  S   S17       1.0  0.28419  0.14578  0.43184  1.0000
  H   H4        1.0  0.30429  0.09848  0.36764  1.0000
  S   S18       1.0  0.11344  0.24100  0.44802  1.0000
  Fe  Fe9       1.0  0.12634  0.24264  0.41408  1.0000
  S   S19       1.0  0.14028  0.21148  0.40178  1.0000
  N   N2        1.0  0.26369  0.02346  0.46211  1.0000
  C   C2        1.0  0.36988  0.14381  0.21409  1.0000
  C   C3        1.0  0.23065  0.04929  0.44617  1.0000
  C   C4        1.0  0.03246  0.24730  0.41550  1.0000
  C   C5        1.0  0.46835  0.23557  0.16628  1.0000
  N   N3        1.0  0.06977  0.25899  0.51609  1.0000
  H   H5        1.0  0.37380  0.15350  0.18082  1.0000
  C   C6        1.0  0.21022  0.18868  0.40900  1.0000
  C   C7        1.0  0.20409  0.21018  0.41112  1.0000
  C   C8        1.0  0.18282  0.21742  0.40871  1.0000
  C   C9        1.0  0.16746  0.20325  0.40379  1.0000
  C   C10       1.0  0.17371  0.18186  0.40100  1.0000
  C   C11       1.0  0.19496  0.17453  0.40377  1.0000
  H   H6        1.0  0.21581  0.22128  0.41499  1.0000
  H   H7        1.0  0.17829  0.23394  0.41070  1.0000
  H   H8        1.0  0.16195  0.17082  0.39705  1.0000
  H   H9        1.0  0.19946  0.15796  0.40203  1.0000
  C   C12       1.0  0.25437  0.04597  0.39755  1.0000
  N   N4        1.0  0.48768  0.09221  0.32644  1.0000
  C   C13       1.0  0.27360  0.04352  0.40774  1.0000
  H   H10       1.0  0.46844  0.10562  0.35139  1.0000
  H   H11       1.0  0.28181  0.05710  0.41189  1.0000
  C   C14       1.0  0.27281  0.11382  0.50400  1.0000
  C   C15       1.0  0.26846  0.13575  0.50322  1.0000
  H   H12       1.0  0.33458  0.08084  0.38586  1.0000
  H   H13       1.0  0.26697  0.14429  0.48797  1.0000
  H   H14       1.0  0.49929  0.14782  0.23825  1.0000
  C   C16       1.0  0.42256  0.25057  0.03759  1.0000
  C   C17       1.0  0.36616  0.15075  0.23477  1.0000
  C   C18       1.0  0.28255  0.02331  0.41255  1.0000
  C   C19       1.0  0.35612  0.13048  0.32028  1.0000
  C   C20       1.0  0.36980  0.12470  0.33668  1.0000
  C   C21       1.0  0.36185  0.12348  0.35806  1.0000
  C   C22       1.0  0.34016  0.12787  0.36329  1.0000
  C   C23       1.0  0.32642  0.13340  0.34686  1.0000
  C   C24       1.0  0.33440  0.13475  0.32548  1.0000
  H   H15       1.0  0.38655  0.12143  0.33293  1.0000
  H   H16       1.0  0.37261  0.11925  0.37066  1.0000
  H   H17       1.0  0.30975  0.13707  0.35064  1.0000
  H   H18       1.0  0.32370  0.13932  0.31293  1.0000
  C   C25       1.0  0.42113  0.16650  0.19370  1.0000
  C   C26       1.0  0.41766  0.18230  0.20844  1.0000
  C   C27       1.0  0.41380  0.20355  0.20132  1.0000
  C   C28       1.0  0.41370  0.20930  0.17944  1.0000
  C   C29       1.0  0.41797  0.19367  0.16464  1.0000
  C   C30       1.0  0.42152  0.17233  0.17178  1.0000
  H   H19       1.0  0.41730  0.17809  0.22531  1.0000
  H   H20       1.0  0.41056  0.21555  0.21288  1.0000
  H   H21       1.0  0.41786  0.19789  0.14773  1.0000
  H   H22       1.0  0.42417  0.16020  0.16026  1.0000
  C   C31       1.0  0.43303  0.03234  0.26572  1.0000
  C   C32       1.0  0.23038  0.02731  0.44481  1.0000
  C   C33       1.0  0.41787  0.03339  0.25007  1.0000
  C   C34       1.0  0.51656  0.14718  0.23880  1.0000
  H   H23       1.0  0.41195  0.04869  0.24383  1.0000
  H   H24       1.0  0.20521  0.16637  0.45559  1.0000
  C   C35       1.0  0.50019  0.13363  0.28879  1.0000
  C   C36       1.0  0.50199  0.11368  0.28008  1.0000
  H   H25       1.0  0.48037  0.20670  0.15216  1.0000
  H   H26       1.0  0.48806  0.10638  0.27490  1.0000
  H   H27       1.0  0.46117  0.07857  0.31287  1.0000
  C   C37       1.0  0.36651  0.18015  0.20045  1.0000
  H   H28       1.0  0.23481  0.20882  0.45123  1.0000
  H   H29       1.0  0.04176  0.25990  0.49814  1.0000
  C   C38       1.0  0.38863  0.25340  0.02051  1.0000
  N   N5        1.0  0.36280  0.17188  0.23820  1.0000
  H   H30       1.0  0.48450  0.12439  0.33554  1.0000
  H   H31       1.0  0.37140  0.25422  0.02181  1.0000
  C   C39       1.0  0.49011  0.06017  0.30718  1.0000
  H   H32       1.0  0.48249  0.04872  0.29802  1.0000
  H   H33       1.0  0.46147  0.11471  0.32478  1.0000
  C   C40       1.0  0.26378  0.04498  0.46404  1.0000
  C   C41       1.0  0.47811  0.07722  0.31556  1.0000
  C   C42       1.0  0.40029  0.25176  0.03913  1.0000
  S   S20       1.0  0.44477  0.25469  0.12143  1.0000
  C   C43       1.0  0.27422  0.08040  0.34716  1.0000
  H   H34       1.0  0.22939  0.02944  0.38383  1.0000
  H   H35       1.0  0.07825  0.24158  0.48862  1.0000
  H   H36       1.0  0.16657  0.16605  0.45001  1.0000
  H   H37       1.0  0.29741  0.02178  0.42062  1.0000
  C   C44       1.0  0.37004  0.15863  0.19685  1.0000
  H   H38       1.0  0.14425  0.19925  0.45310  1.0000
  C   C45       1.0  0.36305  0.18656  0.22138  1.0000
  N   N6        1.0  0.20447  0.19905  0.46301  1.0000
  C   C46       1.0  0.29423  0.04792  0.35863  1.0000
  C   C47       1.0  0.17353  0.18037  0.45490  1.0000
  H   H39       1.0  0.04822  0.24331  0.40884  1.0000
  C   C48       1.0  0.19539  0.18067  0.45811  1.0000
  H   H40       1.0  0.26040  0.07002  0.34668  1.0000
  H   H41       1.0  0.24771  0.07526  0.45714  1.0000
  H   H42       1.0  0.23534  0.18341  0.46512  1.0000
  H   H43       1.0  0.16086  0.23234  0.46262  1.0000
  C   C49       1.0  0.31126  0.03745  0.36884  1.0000
  C   C50       1.0  0.32335  0.07138  0.37823  1.0000
  C   C51       1.0  0.24430  0.02775  0.39180  1.0000
  H   H44       1.0  0.39207  0.25110  0.05466  1.0000
  Fe  Fe10      1.0  0.08536  0.26052  0.43643  1.0000
  C   C52       1.0  0.17036  0.21763  0.46178  1.0000
  C   C53       1.0  0.30614  0.08132  0.36789  1.0000
  H   H45       1.0  0.35533  0.19584  0.26084  1.0000
  H   H46       1.0  0.36740  0.19186  0.18719  1.0000
  S   S21       1.0  0.09635  0.25934  0.40204  1.0000
  C   C54       1.0  0.08387  0.25505  0.49732  1.0000
  H   H47       1.0  0.28273  0.03859  0.35132  1.0000
  C   C55       1.0  0.03000  0.25483  0.43609  1.0000
  C   C56       1.0  0.50903  0.09031  0.32987  1.0000
  H   H48       1.0  0.37344  0.12714  0.21150  1.0000
  H   H49       1.0  0.45248  0.22968  0.16922  1.0000
  C   C57       1.0  0.24732  0.05819  0.45602  1.0000
  N   N7        1.0  0.29175  0.06958  0.35845  1.0000
  C   C58       1.0  0.22758  0.19959  0.46509  1.0000
  Fe  Fe11      1.0  0.41327  0.25418  0.13982  1.0000
  H   H50       1.0  0.19948  0.23210  0.46819  1.0000
  C   C59       1.0  0.35958  0.17864  0.26015  1.0000
  H   H51       1.0  0.21772  0.02025  0.43679  1.0000
  C   C60       1.0  0.47490  0.11002  0.33510  1.0000
  C   C61       1.0  0.19225  0.21738  0.46488  1.0000
  H   H52       1.0  0.27973  0.08532  0.33067  1.0000
  H   H53       1.0  0.23127  0.20692  0.48010  1.0000
  H   H54       1.0  0.34654  0.16973  0.26862  1.0000
  C   C62       1.0  0.48413  0.22243  0.15670  1.0000
  H   H55       1.0  0.36630  0.13916  0.24811  1.0000
  H   H56       1.0  0.37436  0.17521  0.26897  1.0000
  S   S22       1.0  0.43786  0.24890  0.06050  1.0000
  S   S23       1.0  0.05208  0.25854  0.45167  1.0000
  C   C63       1.0  0.16100  0.19902  0.45663  1.0000
  C   C64       1.0  0.49284  0.26301  0.16788  1.0000
  H   H57       1.0  0.36100  0.20338  0.22403  1.0000
  C   C65       1.0  0.32586  0.04930  0.37875  1.0000
  H   H58       1.0  0.31282  0.02023  0.36949  1.0000
  Fe  Fe12      1.0  0.42575  0.26161  0.09215  1.0000
  H   H59       1.0  0.33901  0.04141  0.38692  1.0000
  H   H60       1.0  0.29585  0.01863  0.47155  1.0000
  C   C66       1.0  0.50910  0.25017  0.15866  1.0000
  H   H61       1.0  0.43987  0.26477  0.17708  1.0000
  S   S24       1.0  0.39430  0.25767  0.11019  1.0000
  C   C67       1.0  0.51195  0.05832  0.31028  1.0000
  H   H62       1.0  0.27675  0.05220  0.47147  1.0000
  C   C68       1.0  0.04827  0.26129  0.51371  1.0000
  H   H63       1.0  0.51670  0.10230  0.33823  1.0000
  S   S25       1.0  0.41931  0.24333  0.92428  1.0000
  H   H64       1.0  0.32790  0.07591  0.64846  1.0000
  H   H65       1.0  0.37541  0.09182  0.71020  1.0000
  H   H66       1.0  0.15824  0.20344  0.58451  1.0000
  H   H67       1.0  0.45076  0.18310  0.73677  1.0000
  S   S26       1.0  0.38345  0.23703  0.87375  1.0000
  Fe  Fe13      1.0  0.26932  0.13455  0.59861  1.0000
  S   S27       1.0  0.24458  0.11285  0.61301  1.0000
  S   S28       1.0  0.26572  0.15019  0.56557  1.0000
  Fe  Fe14      1.0  0.29137  0.13673  0.64169  1.0000
  S   S29       1.0  0.26696  0.11644  0.65907  1.0000
  S   S30       1.0  0.32242  0.14722  0.65459  1.0000
  Fe  Fe15      1.0  0.27115  0.09598  0.63069  1.0000
  S   S31       1.0  0.28385  0.06170  0.63351  1.0000
  Fe  Fe16      1.0  0.24269  0.13566  0.63965  1.0000
  S   S32       1.0  0.20945  0.14823  0.65021  1.0000
  S   S33       1.0  0.29619  0.11593  0.61372  1.0000
  S   S34       1.0  0.26687  0.15764  0.62480  1.0000
  C   C69       1.0  0.48375  0.08129  0.76801  1.0000
  S   S35       1.0  0.11172  0.25208  0.59786  1.0000
  H   H68       1.0  0.23466  0.18491  0.57067  1.0000
  H   H69       1.0  0.47294  0.07275  0.80027  1.0000
  H   H70       1.0  0.23145  0.02716  0.58991  1.0000
  S   S36       1.0  0.17010  0.23869  0.61877  1.0000
  Fe  Fe17      1.0  0.41979  0.14445  0.79323  1.0000
  S   S37       1.0  0.41473  0.15463  0.75882  1.0000
  S   S38       1.0  0.43147  0.16651  0.81768  1.0000
  Fe  Fe18      1.0  0.42121  0.09666  0.78306  1.0000
  S   S39       1.0  0.41654  0.10375  0.74829  1.0000
  S   S40       1.0  0.42907  0.06344  0.79677  1.0000
  Fe  Fe19      1.0  0.43988  0.12933  0.75124  1.0000
  S   S41       1.0  0.46720  0.13313  0.72689  1.0000
  Fe  Fe20      1.0  0.39169  0.12802  0.75920  1.0000
  S   S42       1.0  0.35775  0.12817  0.74756  1.0000
  S   S43       1.0  0.44623  0.12065  0.78511  1.0000
  S   S44       1.0  0.39510  0.11940  0.79443  1.0000
  C   C70       1.0  0.49325  0.13875  0.73356  1.0000
  C   C71       1.0  0.48342  0.17964  0.80088  1.0000
  C   C72       1.0  0.42141  0.25287  0.99871  1.0000
  H   H71       1.0  0.48875  0.13329  0.76760  1.0000
  H   H72       1.0  0.50282  0.14541  0.70063  1.0000
  C   C73       1.0  0.03327  0.24875  0.62357  1.0000
  C   C74       1.0  0.41905  0.04132  0.78489  1.0000
  C   C75       1.0  0.40816  0.04373  0.76599  1.0000
  C   C76       1.0  0.48364  0.19166  0.73378  1.0000
  H   H73       1.0  0.40521  0.05939  0.75873  1.0000
  C   C77       1.0  0.26632  0.14667  0.52225  1.0000
  H   H74       1.0  0.45028  0.24972  0.01604  1.0000
  H   H75       1.0  0.26318  0.16366  0.52153  1.0000
  H   H76       1.0  0.31168  0.09885  0.65578  1.0000
  H   H77       1.0  0.33871  0.10224  0.64736  1.0000
  C   C78       1.0  0.19880  0.17381  0.64233  1.0000
  C   C79       1.0  0.21159  0.18933  0.63232  1.0000
  C   C80       1.0  0.20255  0.20922  0.62571  1.0000
  C   C81       1.0  0.18061  0.21386  0.62891  1.0000
  C   C82       1.0  0.16779  0.19852  0.63919  1.0000
  C   C83       1.0  0.17689  0.17860  0.64590  1.0000
  H   H78       1.0  0.22848  0.18602  0.62965  1.0000
  H   H79       1.0  0.21263  0.22096  0.61778  1.0000
  H   H80       1.0  0.15086  0.20182  0.64172  1.0000
  H   H81       1.0  0.16687  0.16674  0.65371  1.0000
  C   C84       1.0  0.33173  0.14254  0.68073  1.0000
  C   C85       1.0  0.31841  0.13539  0.69783  1.0000
  C   C86       1.0  0.32654  0.13173  0.71828  1.0000
  C   C87       1.0  0.34812  0.13477  0.72183  1.0000
  C   C88       1.0  0.36145  0.14191  0.70472  1.0000
  C   C89       1.0  0.35323  0.14592  0.68433  1.0000
  H   H82       1.0  0.30181  0.13290  0.69535  1.0000
  H   H83       1.0  0.31608  0.12628  0.73142  1.0000
  H   H84       1.0  0.37806  0.14436  0.70719  1.0000
  H   H85       1.0  0.36363  0.15158  0.67122  1.0000
  C   C90       1.0  0.24748  0.03782  0.63853  1.0000
  C   C91       1.0  0.26972  0.03797  0.63614  1.0000
  H   H86       1.0  0.22835  0.15566  0.59932  1.0000
  H   H87       1.0  0.23829  0.05265  0.63948  1.0000
  H   H88       1.0  0.46799  0.08080  0.76169  1.0000
  H   H89       1.0  0.49930  0.18132  0.80748  1.0000
  C   C92       1.0  0.26853  0.13578  0.54214  1.0000
  C   C93       1.0  0.27274  0.11384  0.54293  1.0000
  C   C94       1.0  0.24827  0.02457  0.58574  1.0000
  H   H90       1.0  0.27449  0.10534  0.55817  1.0000
  C   C95       1.0  0.39703  0.21768  0.85801  1.0000
  C   C96       1.0  0.38538  0.20580  0.84458  1.0000
  C   C97       1.0  0.39560  0.19007  0.83209  1.0000
  C   C98       1.0  0.41759  0.18603  0.83299  1.0000
  C   C99       1.0  0.42918  0.19785  0.84654  1.0000
  C   C100      1.0  0.41900  0.21363  0.85894  1.0000
  H   H91       1.0  0.36837  0.20880  0.84374  1.0000
  H   H92       1.0  0.38647  0.18109  0.82175  1.0000
  H   H93       1.0  0.44619  0.19482  0.84740  1.0000
  H   H94       1.0  0.42817  0.22266  0.86918  1.0000
  Fe  Fe21      1.0  0.13678  0.25432  0.62203  1.0000
  C   C101      1.0  0.18820  0.21433  0.57095  1.0000
  H   H95       1.0  0.25555  0.05721  0.59026  1.0000
  H   H96       1.0  0.34855  0.07935  0.73760  1.0000
  C   C102      1.0  0.50673  0.07774  0.79774  1.0000
  N   N8        1.0  0.39536  0.19184  0.91951  1.0000
  C   C103      1.0  0.37625  0.20048  0.91312  1.0000
  C   C104      1.0  0.40176  0.19459  0.93968  1.0000
  C   C105      1.0  0.36315  0.21254  0.92693  1.0000
  C   C106      1.0  0.38896  0.20643  0.95397  1.0000
  C   C107      1.0  0.36958  0.21551  0.94748  1.0000
  C   C108      1.0  0.40962  0.18034  0.90451  1.0000
  H   H97       1.0  0.37126  0.19860  0.89704  1.0000
  H   H98       1.0  0.41710  0.18813  0.94462  1.0000
  H   H99       1.0  0.34834  0.21990  0.92155  1.0000
  H   H100      1.0  0.39429  0.20921  0.96976  1.0000
  H   H101      1.0  0.35979  0.22518  0.95825  1.0000
  H   H102      1.0  0.42396  0.18970  0.90036  1.0000
  H   H103      1.0  0.41462  0.16456  0.91165  1.0000
  H   H104      1.0  0.40186  0.17767  0.88936  1.0000
  N   N9        1.0  0.33374  0.08766  0.67867  1.0000
  C   C109      1.0  0.31892  0.08030  0.69359  1.0000
  C   C110      1.0  0.35398  0.09128  0.68431  1.0000
  C   C111      1.0  0.32404  0.07697  0.71497  1.0000
  C   C112      1.0  0.35970  0.08793  0.70551  1.0000
  C   C113      1.0  0.34455  0.08093  0.72094  1.0000
  C   C114      1.0  0.32786  0.09121  0.65645  1.0000
  H   H105      1.0  0.30287  0.07747  0.68902  1.0000
  H   H106      1.0  0.36559  0.09754  0.67258  1.0000
  H   H107      1.0  0.50695  0.24400  0.88078  1.0000
  C   C115      1.0  0.50214  0.19418  0.74465  1.0000
  H   H108      1.0  0.47852  0.16306  0.80459  1.0000
  H   H109      1.0  0.18565  0.23656  0.67018  1.0000
  C   C116      1.0  0.20978  0.20910  0.56710  1.0000
  Fe  Fe22      1.0  0.08780  0.25503  0.62544  1.0000
  S   S45       1.0  0.11297  0.25383  0.64988  1.0000
  C   C117      1.0  0.42259  0.02084  0.79423  1.0000
  C   C118      1.0  0.21780  0.18887  0.57346  1.0000
  H   H110      1.0  0.21807  0.14396  0.57654  1.0000
  C   C119      1.0  0.18347  0.17924  0.58712  1.0000
  H   H111      1.0  0.47172  0.19050  0.80913  1.0000
  C   C120      1.0  0.07804  0.26094  0.53562  1.0000
  H   H112      1.0  0.20264  0.14471  0.60171  1.0000
  H   H113      1.0  0.39275  0.02787  0.74171  1.0000
  C   C121      1.0  0.46530  0.18215  0.76729  1.0000
  C   C122      1.0  0.49979  0.13787  0.75465  1.0000
  H   H114      1.0  0.43086  0.01887  0.80896  1.0000
  S   S46       1.0  0.47484  0.26010  0.91607  1.0000
  H   H115      1.0  0.22034  0.22073  0.55961  1.0000
  H   H116      1.0  0.18185  0.23018  0.56682  1.0000
  H   H117      1.0  0.45089  0.17724  0.77603  1.0000
  S   S47       1.0  0.05796  0.23601  0.62977  1.0000
  C   C123      1.0  0.46506  0.18569  0.74515  1.0000
  C   C124      1.0  0.50772  0.14471  0.71695  1.0000
  H   H118      1.0  0.48385  0.19366  0.71652  1.0000
  C   C125      1.0  0.17489  0.19926  0.58083  1.0000
  C   C126      1.0  0.39915  0.25421  0.00027  1.0000
  H   H119      1.0  0.16784  0.24535  0.69138  1.0000
  C   C127      1.0  0.28353  0.03830  0.58132  1.0000
  C   C128      1.0  0.40107  0.02583  0.75640  1.0000
  H   H120      1.0  0.17319  0.16790  0.59554  1.0000
  C   C129      1.0  0.48651  0.07682  0.78970  1.0000
  N   N10       1.0  0.48359  0.18433  0.77779  1.0000
  N   N11       1.0  0.20471  0.17438  0.58357  1.0000
  H   H121      1.0  0.51604  0.24691  0.92956  1.0000
  H   H122      1.0  0.42967  0.25336  0.98320  1.0000
  H   H123      1.0  0.03976  0.24800  0.69834  1.0000
  H   H124      1.0  0.29421  0.05130  0.58214  1.0000
  H   H125      1.0  0.03226  0.23818  0.67322  1.0000
  H   H126      1.0  0.21992  0.01830  0.64161  1.0000
  C   C130      1.0  0.21373  0.15359  0.59055  1.0000
  C   C131      1.0  0.50132  0.08678  0.75465  1.0000
  H   H127      1.0  0.31206  0.07191  0.72693  1.0000
  S   S48       1.0  0.38397  0.25719  0.97731  1.0000
  H   H128      1.0  0.15776  0.24059  0.66560  1.0000
  H   H129      1.0  0.49891  0.09063  0.73788  1.0000
  C   C132      1.0  0.26176  0.04165  0.58584  1.0000
  H   H130      1.0  0.27826  0.08596  0.52459  1.0000
  H   H131      1.0  0.19869  0.26117  0.64317  1.0000
  C   C133      1.0  0.43305  0.25081  0.01733  1.0000
  Fe  Fe23      1.0  0.39987  0.25636  0.89733  1.0000
  H   H132      1.0  0.05930  0.24374  0.67660  1.0000
  Fe  Fe24      1.0  0.40003  0.26547  0.94510  1.0000
  C   C134      1.0  0.17125  0.24681  0.67387  1.0000
  C   C135      1.0  0.50184  0.19043  0.76680  1.0000
  C   C136      1.0  0.29149  0.01809  0.57630  1.0000
  C   C137      1.0  0.23712  0.01835  0.63969  1.0000
  C   C138      1.0  0.04263  0.24923  0.68077  1.0000
  H   H133      1.0  0.50907  0.07421  0.81457  1.0000
  C   C139      1.0  0.27486  0.10291  0.52390  1.0000
  C   C140      1.0  0.03440  0.26548  0.53125  1.0000
  H   H134      1.0  0.09507  0.25928  0.53753  1.0000
  H   H135      1.0  0.15729  0.26353  0.52397  1.0000
  H   H136      1.0  0.29863  0.01856  0.63331  1.0000
  C   C141      1.0  0.28143  0.01860  0.63507  1.0000
  C   C142      1.0  0.51616  0.26388  0.92607  1.0000
  C   C143      1.0  0.06468  0.26536  0.55344  1.0000
  H   H137      1.0  0.51655  0.19163  0.77493  1.0000
  S   S49       1.0  0.42553  0.29701  0.09423  1.0000
  S   S50       1.0  0.41181  0.28937  0.14465  1.0000
  Fe  Fe25      1.0  0.39498  0.29304  0.11387  1.0000
  S   S51       1.0  0.36313  0.30969  0.10634  1.0000
  Fe  Fe26      1.0  0.44245  0.28986  0.12458  1.0000
  S   S52       1.0  0.47114  0.30685  0.13470  1.0000
  Fe  Fe27      1.0  0.08835  0.41763  0.27489  1.0000
  S   S53       1.0  0.10991  0.42284  0.30163  1.0000
  S   S54       1.0  0.05398  0.41424  0.28644  1.0000
  Fe  Fe28      1.0  0.12572  0.41402  0.24206  1.0000
  S   S55       1.0  0.14954  0.41837  0.26665  1.0000
  S   S56       1.0  0.13506  0.41209  0.20675  1.0000
  Fe  Fe29      1.0  0.12997  0.39613  0.28806  1.0000
  S   S57       1.0  0.14622  0.36938  0.30777  1.0000
  Fe  Fe30      1.0  0.12697  0.44456  0.27766  1.0000
  S   S58       1.0  0.14197  0.47561  0.28380  1.0000
  S   S59       1.0  0.10766  0.38971  0.26247  1.0000
  S   S60       1.0  0.10392  0.44144  0.25197  1.0000
  Fe  Fe31      1.0  0.29217  0.41402  0.11929  1.0000
  S   S61       1.0  0.26428  0.39291  0.12127  1.0000
  S   S62       1.0  0.32633  0.40271  0.12549  1.0000
  Fe  Fe32      1.0  0.26370  0.45405  0.10977  1.0000
  S   S63       1.0  0.23376  0.43557  0.11121  1.0000
  S   S64       1.0  0.26046  0.48883  0.09878  1.0000
  Fe  Fe33      1.0  0.24716  0.41845  0.14016  1.0000
  S   S65       1.0  0.23250  0.41180  0.17365  1.0000
  Fe  Fe34      1.0  0.25355  0.41200  0.09215  1.0000
  S   S66       1.0  0.24210  0.39584  0.06357  1.0000
  S   S67       1.0  0.27594  0.43863  0.13996  1.0000
  S   S68       1.0  0.28267  0.43144  0.08892  1.0000
  Fe  Fe35      1.0  0.11271  0.28961  0.40731  1.0000
  S   S69       1.0  0.10193  0.31907  0.38734  1.0000
  C   C144      1.0  0.04923  0.30428  0.41373  1.0000
  H   H138      1.0  0.39072  0.28926  0.06453  1.0000
  C   C145      1.0  0.49863  0.27953  0.11285  1.0000
  S   S70       1.0  0.10034  0.29134  0.44150  1.0000
  C   C146      1.0  0.45599  0.26942  0.18113  1.0000
  C   C147      1.0  0.10644  0.50077  0.27340  1.0000
  C   C148      1.0  0.13569  0.28160  0.50378  1.0000
  C   C149      1.0  0.11812  0.29592  0.50332  1.0000
  C   C150      1.0  0.41951  0.30297  0.03436  1.0000
  C   C151      1.0  0.24415  0.41040  0.03889  1.0000
  C   C152      1.0  0.25286  0.43045  0.03746  1.0000
  C   C153      1.0  0.30363  0.34644  0.16259  1.0000
  H   H139      1.0  0.25721  0.43774  0.05174  1.0000
  H   H140      1.0  0.31602  0.39465  0.17745  1.0000
  H   H141      1.0  0.45700  0.26834  0.19872  1.0000
  H   H142      1.0  0.23091  0.38604  0.02129  1.0000
  H   H143      1.0  0.04699  0.27957  0.34629  1.0000
  C   C154      1.0  0.15935  0.37458  0.36992  1.0000
  H   H144      1.0  0.27870  0.49228  0.14039  1.0000
  C   C155      1.0  0.13293  0.35418  0.32849  1.0000
  C   C156      1.0  0.14393  0.33695  0.33868  1.0000
  C   C157      1.0  0.13446  0.32549  0.35627  1.0000
  C   C158      1.0  0.11390  0.33130  0.36394  1.0000
  C   C159      1.0  0.10281  0.34835  0.35358  1.0000
  C   C160      1.0  0.11220  0.35967  0.33588  1.0000
  H   H145      1.0  0.15996  0.33254  0.33303  1.0000
  H   H146      1.0  0.14319  0.31240  0.36407  1.0000
  H   H147      1.0  0.08691  0.35301  0.35939  1.0000
  H   H148      1.0  0.10357  0.37290  0.32821  1.0000
  C   C161      1.0  0.16216  0.41077  0.19751  1.0000
  C   C162      1.0  0.16736  0.41317  0.17550  1.0000
  C   C163      1.0  0.18881  0.41337  0.16779  1.0000
  C   C164      1.0  0.20524  0.41091  0.18207  1.0000
  C   C165      1.0  0.20002  0.40801  0.20400  1.0000
  C   C166      1.0  0.17863  0.40800  0.21169  1.0000
  H   H149      1.0  0.15472  0.41514  0.16438  1.0000
  H   H150      1.0  0.19262  0.41545  0.15086  1.0000
  H   H151      1.0  0.21262  0.40583  0.21514  1.0000
  H   H152      1.0  0.17490  0.40567  0.22857  1.0000
  C   C167      1.0  0.03130  0.42185  0.27215  1.0000
  C   C168      1.0  0.03246  0.42907  0.25071  1.0000
  C   C169      1.0  0.17743  0.46276  0.18539  1.0000
  H   H153      1.0  0.04784  0.43148  0.24266  1.0000
  C   C170      1.0  0.04869  0.29179  0.37761  1.0000
  C   C171      1.0  0.12770  0.50007  0.27909  1.0000
  N   N12       1.0  0.31577  0.36262  0.16812  1.0000
  S   S71       1.0  0.14370  0.27283  0.41678  1.0000
  H   H154      1.0  0.09839  0.48616  0.27185  1.0000
  H   H155      1.0  0.11982  0.35770  0.40339  1.0000
  C   C172      1.0  0.35366  0.33598  0.11091  1.0000
  C   C173      1.0  0.36696  0.35157  0.11708  1.0000
  C   C174      1.0  0.35854  0.37221  0.12067  1.0000
  C   C175      1.0  0.33674  0.37737  0.11839  1.0000
  C   C176      1.0  0.32354  0.36184  0.11195  1.0000
  C   C177      1.0  0.33199  0.34129  0.10817  1.0000
  H   H156      1.0  0.38370  0.34773  0.11910  1.0000
  H   H157      1.0  0.36889  0.38415  0.12560  1.0000
  H   H158      1.0  0.30676  0.36559  0.11011  1.0000
  H   H159      1.0  0.32161  0.32936  0.10326  1.0000
  C   C178      1.0  0.49658  0.29654  0.12630  1.0000
  H   H160      1.0  0.27178  0.33631  0.15805  1.0000
  N   N13       1.0  0.17729  0.46074  0.22370  1.0000
  C   C179      1.0  0.28421  0.38468  0.17410  1.0000
  H   H161      1.0  0.34515  0.34683  0.15855  1.0000
  H   H162      1.0  0.38628  0.31770  0.06286  1.0000
  H   H163      1.0  0.03298  0.36552  0.28534  1.0000
  H   H164      1.0  0.14660  0.46649  0.17177  1.0000
  H   H165      1.0  0.45751  0.28622  0.17519  1.0000
  C   C180      1.0  0.12788  0.40478  0.35916  1.0000
  H   H166      1.0  0.20533  0.45694  0.20346  1.0000
  H   H167      1.0  0.11202  0.30164  0.48819  1.0000
  H   H168      1.0  0.06599  0.29204  0.37663  1.0000
  C   C181      1.0  0.38503  0.30292  0.05418  1.0000
  H   H169      1.0  0.03885  0.30558  0.42846  1.0000
  H   H170      1.0  0.14942  0.41468  0.33313  1.0000
  H   H171      1.0  0.04594  0.38868  0.23230  1.0000
  H   H172      1.0  0.14446  0.34437  0.39658  1.0000
  C   C182      1.0  0.14709  0.40405  0.34711  1.0000
  H   H173      1.0  0.05675  0.31969  0.40967  1.0000
  H   H174      1.0  0.17759  0.38771  0.34269  1.0000
  H   H175      1.0  0.10970  0.39067  0.38556  1.0000
  C   C183      1.0  0.51501  0.30456  0.13426  1.0000
  C   C184      1.0  0.18878  0.45677  0.24335  1.0000
  H   H176      1.0  0.17156  0.36250  0.37365  1.0000
  H   H177      1.0  0.34283  0.35419  0.18602  1.0000
  C   C185      1.0  0.16298  0.38893  0.35255  1.0000
  N   N14       1.0  0.39775  0.30415  0.03399  1.0000
  H   H178      1.0  0.06194  0.29215  0.41748  1.0000
  H   H179      1.0  0.11529  0.41620  0.35472  1.0000
  C   C186      1.0  0.28140  0.34902  0.16273  1.0000
  H   H180      1.0  0.27679  0.39985  0.17824  1.0000
  C   C187      1.0  0.12481  0.39023  0.37649  1.0000
  H   H181      1.0  0.14405  0.36628  0.41417  1.0000
  N   N15       1.0  0.14036  0.37523  0.38149  1.0000
  H   H182      1.0  0.34722  0.37401  0.16457  1.0000
  H   H183      1.0  0.18611  0.46158  0.17011  1.0000
  N   N16       1.0  0.03753  0.29779  0.39570  1.0000
  C   C188      1.0  0.13705  0.36026  0.39987  1.0000
  H   H184      1.0  0.29019  0.50646  0.06470  1.0000
  H   H185      1.0  0.05609  0.37963  0.25725  1.0000
  C   C189      1.0  0.04496  0.37569  0.24490  1.0000
  H   H186      1.0  0.12697  0.46729  0.20707  1.0000
  N   N17       1.0  0.02310  0.37405  0.25394  1.0000
  H   H187      1.0  0.05053  0.36047  0.23802  1.0000
  C   C190      1.0  0.26315  0.51032  0.11520  1.0000
  H   H188      1.0  0.49627  0.27905  0.17174  1.0000
  H   H189      1.0  0.17990  0.46385  0.25721  1.0000
  H   H190      1.0  0.42732  0.30029  0.04929  1.0000
  C   C191      1.0  0.33888  0.35920  0.16946  1.0000
  H   H191      1.0  0.31112  0.33151  0.15783  1.0000
  H   H192      1.0  0.14683  0.46346  0.24005  1.0000
  H   H193      1.0  0.25444  0.37052  0.16883  1.0000
  C   C192      1.0  0.18823  0.46017  0.20436  1.0000
  C   C193      1.0  0.27166  0.36820  0.16877  1.0000
  C   C194      1.0  0.15527  0.46548  0.18633  1.0000
  C   C195      1.0  0.30636  0.38162  0.17367  1.0000
  C   C196      1.0  0.03803  0.28486  0.36036  1.0000
  H   H194      1.0  0.19085  0.43937  0.24676  1.0000
  H   H195      1.0  0.36791  0.30056  0.05178  1.0000
  H   H196      1.0  0.20467  0.46387  0.24188  1.0000
  C   C197      1.0  0.15557  0.46352  0.22475  1.0000
  C   C198      1.0  0.01965  0.36808  0.27503  1.0000
  C   C199      1.0  0.14425  0.46593  0.20611  1.0000
  H   H197      1.0  0.27079  0.36048  0.02636  1.0000
  C   C200      1.0  0.27342  0.50793  0.13448  1.0000
  Fe  Fe36      1.0  0.12928  0.27180  0.45042  1.0000
  S   S72       1.0  0.14830  0.27252  0.48003  1.0000
  H   H198      1.0  0.48466  0.27339  0.10637  1.0000
  H   H199      1.0  0.51354  0.31777  0.14462  1.0000
  H   H200      1.0  0.08389  0.26939  0.48631  1.0000
  C   C201      1.0  0.23795  0.40142  0.02023  1.0000
  H   H201      1.0  0.28931  0.39422  0.02322  1.0000
  H   H202      1.0  0.31118  0.51533  0.09497  1.0000
  C   C202      1.0  0.30371  0.41476  0.98751  1.0000
  C   C203      1.0  0.27221  0.35639  0.99235  1.0000
  Fe  Fe37      1.0  0.40118  0.30191  0.91171  1.0000
  S   S73       1.0  0.38958  0.33618  0.90487  1.0000
  S   S74       1.0  0.42186  0.29256  0.93931  1.0000
  H   H203      1.0  0.16583  0.35204  0.85191  1.0000
  Fe  Fe38      1.0  0.27605  0.40056  0.91044  1.0000
  S   S75       1.0  0.24422  0.40204  0.92875  1.0000
  S   S76       1.0  0.29199  0.36738  0.91259  1.0000
  Fe  Fe39      1.0  0.27330  0.44839  0.89849  1.0000
  S   S77       1.0  0.24174  0.45242  0.91599  1.0000
  S   S78       1.0  0.29003  0.47781  0.88498  1.0000
  Fe  Fe40      1.0  0.25587  0.43162  0.94188  1.0000
  S   S79       1.0  0.25620  0.44565  0.97425  1.0000
  Fe  Fe41      1.0  0.23310  0.42274  0.90068  1.0000
  S   S80       1.0  0.19930  0.42342  0.88863  1.0000
  S   S81       1.0  0.28816  0.42899  0.92530  1.0000
  S   S82       1.0  0.26416  0.41955  0.88149  1.0000
  Fe  Fe42      1.0  0.13865  0.41632  0.78004  1.0000
  S   S83       1.0  0.13887  0.43659  0.74934  1.0000
  S   S84       1.0  0.16967  0.40645  0.79586  1.0000
  Fe  Fe43      1.0  0.09081  0.40988  0.77908  1.0000
  S   S85       1.0  0.08762  0.42961  0.74877  1.0000
  S   S86       1.0  0.06232  0.39337  0.79449  1.0000
  Fe  Fe44      1.0  0.11754  0.41213  0.73740  1.0000
  S   S87       1.0  0.11972  0.40047  0.70351  1.0000
  Fe  Fe45      1.0  0.10891  0.45205  0.76350  1.0000
  S   S88       1.0  0.09665  0.48636  0.76475  1.0000
  S   S89       1.0  0.11949  0.39087  0.76691  1.0000
  S   S90       1.0  0.11000  0.43327  0.79494  1.0000
  Fe  Fe46      1.0  0.11158  0.28957  0.64591  1.0000
  S   S91       1.0  0.10854  0.30486  0.67816  1.0000
  Fe  Fe47      1.0  0.11050  0.28760  0.59710  1.0000
  C   C204      1.0  0.01847  0.39711  0.79487  1.0000
  S   S92       1.0  0.08502  0.29046  0.62328  1.0000
  S   S93       1.0  0.13710  0.29015  0.61951  1.0000
  H   H204      1.0  0.11368  0.51048  0.70703  1.0000
  H   H205      1.0  0.14345  0.39244  0.87282  1.0000
  C   C205      1.0  0.11677  0.29633  0.54220  1.0000
  C   C206      1.0  0.25630  0.50421  0.89742  1.0000
  C   C207      1.0  0.27791  0.50262  0.89131  1.0000
  C   C208      1.0  0.11625  0.37387  0.69669  1.0000
  C   C209      1.0  0.11141  0.35785  0.71216  1.0000
  C   C210      1.0  0.10890  0.33691  0.70612  1.0000
  C   C211      1.0  0.11116  0.33170  0.68460  1.0000
  C   C212      1.0  0.11588  0.34771  0.66909  1.0000
  C   C213      1.0  0.11839  0.36867  0.67513  1.0000
  H   H206      1.0  0.10977  0.36157  0.72878  1.0000
  H   H207      1.0  0.10536  0.32464  0.71827  1.0000
  H   H208      1.0  0.11768  0.34398  0.65246  1.0000
  H   H209      1.0  0.12210  0.38096  0.66304  1.0000
  C   C214      1.0  0.03775  0.40749  0.79121  1.0000
  C   C215      1.0  0.03729  0.42889  0.78434  1.0000
  H   H210      1.0  0.01735  0.26722  0.52933  1.0000
  H   H211      1.0  0.05200  0.43714  0.78174  1.0000
  C   C216      1.0  0.18909  0.27372  0.65057  1.0000
  C   C217      1.0  0.03243  0.26899  0.61348  1.0000
  H   H212      1.0  0.51424  0.28176  0.87272  1.0000
  H   H213      1.0  0.10369  0.37705  0.80977  1.0000
  C   C218      1.0  0.04271  0.26754  0.55123  1.0000
  H   H214      1.0  0.13869  0.49507  0.74426  1.0000
  C   C219      1.0  0.19244  0.42153  0.86173  1.0000
  C   C220      1.0  0.17173  0.42796  0.85587  1.0000
  C   C221      1.0  0.16490  0.42473  0.83526  1.0000
  C   C222      1.0  0.17860  0.41457  0.82045  1.0000
  C   C223      1.0  0.19948  0.40868  0.82611  1.0000
  C   C224      1.0  0.20644  0.41227  0.84658  1.0000
  H   H215      1.0  0.16083  0.43521  0.86748  1.0000
  H   H216      1.0  0.14881  0.42935  0.83111  1.0000
  H   H217      1.0  0.21020  0.40081  0.81477  1.0000
  H   H218      1.0  0.22238  0.40719  0.85088  1.0000
  C   C225      1.0  0.34870  0.28648  0.86807  1.0000
  C   C226      1.0  0.25051  0.43192  0.99882  1.0000
  H   H219      1.0  0.15412  0.31846  0.67554  1.0000
  C   C227      1.0  0.49763  0.29691  0.91596  1.0000
  H   H220      1.0  0.23687  0.40491  0.98581  1.0000
  C   C228      1.0  0.28677  0.38596  0.00885  1.0000
  C   C229      1.0  0.17910  0.31097  0.65212  1.0000
  H   H221      1.0  0.05302  0.37687  0.72756  1.0000
  C   C230      1.0  0.25595  0.44118  0.01753  1.0000
  H   H222      1.0  0.24646  0.49082  0.89631  1.0000
  C   C231      1.0  0.36268  0.34508  0.90969  1.0000
  C   C232      1.0  0.34659  0.33081  0.91482  1.0000
  C   C233      1.0  0.32511  0.33807  0.91614  1.0000
  C   C234      1.0  0.31943  0.35967  0.91250  1.0000
  C   C235      1.0  0.33553  0.37411  0.90809  1.0000
  C   C236      1.0  0.35706  0.36682  0.90670  1.0000
  H   H223      1.0  0.35058  0.31409  0.91720  1.0000
  H   H224      1.0  0.31277  0.32679  0.91966  1.0000
  H   H225      1.0  0.33139  0.39080  0.90527  1.0000
  H   H226      1.0  0.36940  0.37802  0.90278  1.0000
  C   C237      1.0  0.01774  0.43987  0.78116  1.0000
  H   H227      1.0  0.37266  0.35722  0.86295  1.0000
  H   H228      1.0  0.14029  0.27614  0.55783  1.0000
  H   H229      1.0  0.01757  0.45648  0.77594  1.0000
  C   C238      1.0  0.33136  0.30096  0.86968  1.0000
  H   H230      1.0  0.27930  0.47284  0.94084  1.0000
  C   C239      1.0  0.13092  0.50985  0.74896  1.0000
  C   C240      1.0  0.27763  0.48923  0.94522  1.0000
  H   H231      1.0  0.14132  0.36439  0.81275  1.0000
  H   H232      1.0  0.22472  0.51461  0.97330  1.0000
  S   S94       1.0  0.10433  0.30563  0.56591  1.0000
  C   C241      1.0  0.24133  0.41206  0.00016  1.0000
  H   H233      1.0  0.14960  0.28105  0.68778  1.0000
  H   H234      1.0  0.06399  0.31731  0.66426  1.0000
  H   H235      1.0  0.24454  0.48711  0.95465  1.0000
  C   C242      1.0  0.13476  0.38898  0.85895  1.0000
  H   H236      1.0  0.01871  0.38055  0.80025  1.0000
  H   H237      1.0  0.30993  0.49633  0.93560  1.0000
  C   C243      1.0  0.14364  0.27453  0.52352  1.0000
  C   C244      1.0  0.36895  0.29382  0.86268  1.0000
  H   H238      1.0  0.26376  0.34171  0.99356  1.0000
  C   C245      1.0  0.27628  0.36679  0.01073  1.0000
  C   C246      1.0  0.49731  0.27496  0.92036  1.0000
  C   C247      1.0  0.11376  0.39698  0.85727  1.0000
  H   H239      1.0  0.34451  0.36234  0.86319  1.0000
  H   H240      1.0  0.05580  0.39658  0.74695  1.0000
  N   N18       1.0  0.29277  0.39465  0.98919  1.0000
  H   H241      1.0  0.02836  0.32892  0.65109  1.0000
  C   C248      1.0  0.29485  0.50243  0.94241  1.0000
  N   N19       1.0  0.35459  0.32971  0.86072  1.0000
  C   C249      1.0  0.33458  0.32265  0.86572  1.0000
  H   H242      1.0  0.10630  0.40651  0.86966  1.0000
  C   C250      1.0  0.25795  0.49746  0.95301  1.0000
  H   H243      1.0  0.26281  0.45666  0.01663  1.0000
  H   H244      1.0  0.29453  0.39083  0.95552  1.0000
  C   C251      1.0  0.35773  0.35239  0.85602  1.0000
  C   C252      1.0  0.42226  0.30700  0.99599  1.0000
  C   C253      1.0  0.10252  0.39267  0.83945  1.0000
  C   C254      1.0  0.37166  0.31562  0.85916  1.0000
  H   H245      1.0  0.17529  0.37815  0.85592  1.0000
  H   H246      1.0  0.27592  0.35718  0.95792  1.0000
  S   S95       1.0  0.42151  0.28307  0.88807  1.0000
  C   C255      1.0  0.01879  0.27763  0.66633  1.0000
  H   H247      1.0  0.34655  0.26958  0.87106  1.0000
  H   H248      1.0  0.38249  0.28265  0.86139  1.0000
  C   C256      1.0  0.27890  0.36509  0.97240  1.0000
  H   H249      1.0  0.18074  0.32735  0.64633  1.0000
  H   H250      1.0  0.32122  0.41166  0.98737  1.0000
  C   C257      1.0  0.16621  0.36864  0.84528  1.0000
  Fe  Fe48      1.0  0.44003  0.27127  0.91648  1.0000
  C   C258      1.0  0.28936  0.38427  0.97112  1.0000
  S   S96       1.0  0.37835  0.27601  0.91890  1.0000
  H   H251      1.0  0.08622  0.39875  0.83779  1.0000
  H   H252      1.0  0.04694  0.27651  0.60813  1.0000
  H   H253      1.0  0.17516  0.36900  0.82955  1.0000
  H   H254      1.0  0.48321  0.30560  0.91148  1.0000
  H   H255      1.0  0.39228  0.30954  0.98061  1.0000
  H   H256      1.0  0.35869  0.35580  0.83851  1.0000
  H   H257      1.0  0.38756  0.32124  0.85551  1.0000
  H   H258      1.0  0.07138  0.26729  0.56882  1.0000
  H   H259      1.0  0.02861  0.42125  0.73530  1.0000
  C   C259      1.0  0.13355  0.37323  0.82551  1.0000
  C   C260      1.0  0.13406  0.28167  0.54270  1.0000
  C   C261      1.0  0.09598  0.51197  0.70785  1.0000
  N   N20       1.0  0.14444  0.37747  0.84305  1.0000
  H   H260      1.0  0.07026  0.28027  0.67772  1.0000
  H   H261      1.0  0.31556  0.29546  0.87406  1.0000
  H   H262      1.0  0.20308  0.29836  0.62999  1.0000
  C   C262      1.0  0.11239  0.38056  0.82358  1.0000
  C   C263      1.0  0.05459  0.28530  0.67241  1.0000
  H   H263      1.0  0.09046  0.49946  0.71973  1.0000
  H   H264      1.0  0.32105  0.33384  0.86719  1.0000
  C   C264      1.0  0.16412  0.30600  0.66850  1.0000
  C   C265      1.0  0.11097  0.50966  0.75984  1.0000
  C   C266      1.0  0.03112  0.31284  0.65756  1.0000
  C   C267      1.0  0.40007  0.30818  0.99569  1.0000
  H   H265      1.0  0.04965  0.37038  0.75600  1.0000
  H   H266      1.0  0.43186  0.30769  0.98119  1.0000
  H   H267      1.0  0.08996  0.50879  0.69205  1.0000
  C   C268      1.0  0.43207  0.30436  0.01542  1.0000
  H   H268      1.0  0.37075  0.30731  0.01456  1.0000
  C   C269      1.0  0.05110  0.30632  0.66484  1.0000
  H   H269      1.0  0.29870  0.42486  0.00102  1.0000
  N   N21       1.0  0.02383  0.38827  0.74216  1.0000
  C   C270      1.0  0.38797  0.30679  0.01498  1.0000
  H   H270      1.0  0.29950  0.42414  0.97275  1.0000
  C   C271      1.0  0.04666  0.38270  0.74309  1.0000
  H   H271      1.0  0.03218  0.27088  0.56497  1.0000
  C   C272      1.0  0.19165  0.29475  0.64301  1.0000
  N   N22       1.0  0.03864  0.27117  0.67270  1.0000
  C   C273      1.0  0.16176  0.28478  0.67546  1.0000
  H   H272      1.0  0.44930  0.30278  0.01584  1.0000
  H   H273      1.0  0.09546  0.31476  0.52200  1.0000
  C   C274      1.0  0.10884  0.30342  0.52246  1.0000
  N   N23       1.0  0.17437  0.26899  0.66669  1.0000
  H   H274      1.0  0.15133  0.51537  0.78905  1.0000
  C   C275      1.0  0.01717  0.40882  0.73742  1.0000
  H   H275      1.0  0.24206  0.55313  0.18047  1.0000
  S   S97       1.0  0.47062  0.74192  0.14417  1.0000
  H   H276      1.0  0.31185  0.56863  0.11540  1.0000
  C   C276      1.0  0.51446  0.74283  0.14397  1.0000
  S   S98       1.0  0.42510  0.74821  0.10405  1.0000
  N   N24       1.0  0.50435  0.76212  0.08681  1.0000
  Fe  Fe49      1.0  0.11519  0.63519  0.29407  1.0000
  S   S99       1.0  0.12197  0.65532  0.26424  1.0000
  S   S100      1.0  0.11876  0.64568  0.32787  1.0000
  Fe  Fe50      1.0  0.10532  0.59623  0.26893  1.0000
  S   S101      1.0  0.11142  0.61374  0.23735  1.0000
  S   S102      1.0  0.09081  0.56391  0.26827  1.0000
  Fe  Fe51      1.0  0.13997  0.62651  0.25184  1.0000
  S   S103      1.0  0.17453  0.62554  0.23867  1.0000
  Fe  Fe52      1.0  0.09279  0.64065  0.25257  1.0000
  S   S104      1.0  0.06836  0.65960  0.23366  1.0000
  S   S105      1.0  0.13508  0.60702  0.28270  1.0000
  S   S106      1.0  0.08480  0.62252  0.28313  1.0000
  Fe  Fe53      1.0  0.29283  0.64612  0.13001  1.0000
  S   S107      1.0  0.26669  0.65853  0.10888  1.0000
  S   S108      1.0  0.32043  0.66321  0.14289  1.0000
  Fe  Fe54      1.0  0.27442  0.60134  0.13471  1.0000
  S   S109      1.0  0.24725  0.61052  0.11402  1.0000
  S   S110      1.0  0.27846  0.56879  0.15120  1.0000
  Fe  Fe55      1.0  0.27151  0.62740  0.09262  1.0000
  S   S111      1.0  0.27838  0.61814  0.05836  1.0000
  Fe  Fe56      1.0  0.24482  0.64030  0.13237  1.0000
  S   S112      1.0  0.21255  0.65261  0.14562  1.0000
  S   S113      1.0  0.29905  0.61619  0.11252  1.0000
  S   S114      1.0  0.27059  0.63003  0.15437  1.0000
  H   H277      1.0  0.31760  0.54115  0.12087  1.0000
  C   C277      1.0  0.05980  0.75314  0.45952  1.0000
  C   C278      1.0  0.31840  0.55394  0.10803  1.0000
  S   S115      1.0  0.12084  0.74194  0.35400  1.0000
  C   C279      1.0  0.29240  0.52298  0.06784  1.0000
  S   S116      1.0  0.11981  0.74173  0.46724  1.0000
  Fe  Fe57      1.0  0.39535  0.76324  0.11882  1.0000
  C   C280      1.0  0.27751  0.52596  0.14576  1.0000
  C   C281      1.0  0.04520  0.61151  0.21954  1.0000
  C   C282      1.0  0.26077  0.54870  0.11875  1.0000
  C   C283      1.0  0.27154  0.54639  0.13771  1.0000
  H   H278      1.0  0.24847  0.53265  0.09276  1.0000
  H   H279      1.0  0.25608  0.56431  0.11237  1.0000
  H   H280      1.0  0.31876  0.71698  0.16430  1.0000
  C   C284      1.0  0.25135  0.64459  0.03398  1.0000
  C   C285      1.0  0.26664  0.62783  0.03453  1.0000
  C   C286      1.0  0.11630  0.74521  0.51090  1.0000
  H   H281      1.0  0.24621  0.65208  0.04856  1.0000
  C   C287      1.0  0.25626  0.68338  0.16426  1.0000
  C   C288      1.0  0.18471  0.63399  0.21293  1.0000
  C   C289      1.0  0.20638  0.62970  0.20752  1.0000
  C   C290      1.0  0.21506  0.63520  0.18699  1.0000
  C   C291      1.0  0.20227  0.64552  0.17173  1.0000
  C   C292      1.0  0.18070  0.65021  0.17727  1.0000
  C   C293      1.0  0.17188  0.64431  0.19770  1.0000
  H   H282      1.0  0.21644  0.62176  0.21919  1.0000
  H   H283      1.0  0.23164  0.63144  0.18303  1.0000
  H   H284      1.0  0.17066  0.65825  0.16562  1.0000
  H   H285      1.0  0.15520  0.64777  0.20164  1.0000
  C   C294      1.0  0.11771  0.67252  0.33520  1.0000
  C   C295      1.0  0.12078  0.67703  0.35652  1.0000
  C   C296      1.0  0.12151  0.69817  0.36269  1.0000
  C   C297      1.0  0.11925  0.71501  0.34753  1.0000
  C   C298      1.0  0.11599  0.71049  0.32626  1.0000
  C   C299      1.0  0.11517  0.68938  0.32011  1.0000
  H   H286      1.0  0.12276  0.66410  0.36832  1.0000
  H   H287      1.0  0.12402  0.70141  0.37912  1.0000
  H   H288      1.0  0.11423  0.72340  0.31440  1.0000
  H   H289      1.0  0.11284  0.68615  0.30365  1.0000
  C   C300      1.0  0.40176  0.74186  0.04499  1.0000
  C   C301      1.0  0.04033  0.65990  0.23803  1.0000
  H   H290      1.0  0.24934  0.57803  0.19028  1.0000
  H   H291      1.0  0.03621  0.68098  0.21043  1.0000
  H   H292      1.0  0.03897  0.63905  0.26631  1.0000
  S   S117      1.0  0.36256  0.75064  0.11323  1.0000
  C   C302      1.0  0.10555  0.53960  0.27225  1.0000
  C   C303      1.0  0.12688  0.53893  0.27772  1.0000
  C   C304      1.0  0.25648  0.53072  0.10764  1.0000
  H   H293      1.0  0.13483  0.55357  0.27952  1.0000
  C   C305      1.0  0.35239  0.72523  0.12010  1.0000
  C   C306      1.0  0.33359  0.71946  0.11093  1.0000
  C   C307      1.0  0.32421  0.69997  0.11683  1.0000
  C   C308      1.0  0.33330  0.68624  0.13234  1.0000
  C   C309      1.0  0.35222  0.69190  0.14132  1.0000
  C   C310      1.0  0.36182  0.71119  0.13514  1.0000
  H   H294      1.0  0.32618  0.73019  0.09926  1.0000
  H   H295      1.0  0.30967  0.69583  0.10978  1.0000
  H   H296      1.0  0.35936  0.68141  0.15338  1.0000
  H   H297      1.0  0.37623  0.71542  0.14238  1.0000
  C   C311      1.0  0.24990  0.69572  0.14648  1.0000
  H   H298      1.0  0.19853  0.57527  0.21063  1.0000
  C   C312      1.0  0.12212  0.75520  0.49108  1.0000
  H   H299      1.0  0.25828  0.72108  0.12378  1.0000
  H   H300      1.0  0.29853  0.58135  0.08113  1.0000
  N   N25       1.0  0.21732  0.57708  0.18134  1.0000
  C   C313      1.0  0.21820  0.58419  0.16040  1.0000
  C   C314      1.0  0.19914  0.58029  0.19385  1.0000
  C   C315      1.0  0.20061  0.59495  0.15147  1.0000
  C   C316      1.0  0.03645  0.57900  0.27036  1.0000
  C   C317      1.0  0.18199  0.59819  0.16405  1.0000
  C   C318      1.0  0.23634  0.56658  0.19032  1.0000
  H   H301      1.0  0.11075  0.72918  0.51150  1.0000
  C   C319      1.0  0.29688  0.56488  0.07754  1.0000
  H   H302      1.0  0.20158  0.60123  0.13506  1.0000
  C   C320      1.0  0.02977  0.64824  0.25474  1.0000
  C   C321      1.0  0.30806  0.70706  0.17490  1.0000
  H   H303      1.0  0.05847  0.61835  0.21027  1.0000
  C   C322      1.0  0.28485  0.56031  0.06029  1.0000
  H   H304      1.0  0.06507  0.59603  0.24296  1.0000
  H   H305      1.0  0.23270  0.58178  0.15061  1.0000
  H   H306      1.0  0.41353  0.73187  0.05320  1.0000
  H   H307      1.0  0.16846  0.60706  0.15749  1.0000
  C   C323      1.0  0.13788  0.51923  0.28118  1.0000
  Fe  Fe58      1.0  0.12321  0.75688  0.38623  1.0000
  H   H308      1.0  0.23327  0.56022  0.20693  1.0000
  H   H309      1.0  0.16699  0.59380  0.19549  1.0000
  H   H310      1.0  0.29222  0.72748  0.14039  1.0000
  C   C324      1.0  0.28214  0.71510  0.14724  1.0000
  C   C325      1.0  0.26295  0.71162  0.13780  1.0000
  Fe  Fe59      1.0  0.44220  0.76071  0.13112  1.0000
  C   C326      1.0  0.30422  0.52811  0.08504  1.0000
  H   H311      1.0  0.23499  0.69274  0.13930  1.0000
  C   C327      1.0  0.28250  0.53920  0.05554  1.0000
  H   H312      1.0  0.27720  0.57312  0.05090  1.0000
  N   N26       1.0  0.28832  0.70282  0.16461  1.0000
  H   H313      1.0  0.47167  0.75526  0.09273  1.0000
  H   H314      1.0  0.27278  0.53538  0.04257  1.0000
  S   S118      1.0  0.14948  0.75648  0.40945  1.0000
  C   C328      1.0  0.27571  0.68706  0.17309  1.0000
  N   N27       1.0  0.03209  0.59163  0.25071  1.0000
  C   C329      1.0  0.48693  0.74735  0.08735  1.0000
  H   H315      1.0  0.28584  0.52406  0.16045  1.0000
  H   H316      1.0  0.30435  0.71534  0.18987  1.0000
  H   H317      1.0  0.51426  0.72567  0.14499  1.0000
  H   H318      1.0  0.03879  0.74107  0.33395  1.0000
  H   H319      1.0  0.07893  0.52081  0.26587  1.0000
  S   S119      1.0  0.09746  0.75684  0.41232  1.0000
  H   H320      1.0  0.24625  0.67088  0.17096  1.0000
  H   H321      1.0  0.15430  0.51883  0.28565  1.0000
  H   H322      1.0  0.33527  0.55619  0.10272  1.0000
  C   C330      1.0  0.02826  0.67187  0.22330  1.0000
  N   N28       1.0  0.17075  0.65034  0.31342  1.0000
  C   C331      1.0  0.17355  0.64891  0.29180  1.0000
  C   C332      1.0  0.16810  0.66976  0.32215  1.0000
  C   C333      1.0  0.17294  0.66719  0.27826  1.0000
  C   C334      1.0  0.16727  0.68837  0.30909  1.0000
  C   C335      1.0  0.16954  0.68701  0.28699  1.0000
  C   C336      1.0  0.17127  0.63094  0.32727  1.0000
  H   H323      1.0  0.17590  0.63354  0.28484  1.0000
  H   H324      1.0  0.16574  0.67093  0.33928  1.0000
  H   H325      1.0  0.17464  0.66587  0.26108  1.0000
  H   H326      1.0  0.16425  0.70365  0.31611  1.0000
  H   H327      1.0  0.16846  0.70127  0.27665  1.0000
  H   H328      1.0  0.18799  0.62556  0.32996  1.0000
  H   H329      1.0  0.16269  0.63353  0.34290  1.0000
  H   H330      1.0  0.16281  0.61816  0.32002  1.0000
  H   H331      1.0  0.48971  0.73370  0.09892  1.0000
  C   C337      1.0  0.09542  0.52045  0.27006  1.0000
  N   N29       1.0  0.30602  0.54884  0.08991  1.0000
  H   H332      1.0  0.31717  0.69192  0.17858  1.0000
  H   H333      1.0  0.28079  0.67710  0.18663  1.0000
  C   C338      1.0  0.18116  0.59073  0.18535  1.0000
  H   H334      1.0  0.07457  0.74504  0.46414  1.0000
  C   C339      1.0  0.04318  0.74113  0.45323  1.0000
  H   H335      1.0  0.48504  0.74153  0.07119  1.0000
  H   H336      1.0  0.07725  0.74413  0.34045  1.0000
  C   C340      1.0  0.04881  0.59917  0.23823  1.0000
  H   H337      1.0  0.04315  0.56303  0.26638  1.0000
  C   C341      1.0  0.49511  0.75482  0.14359  1.0000
  Fe  Fe60      1.0  0.12347  0.76000  0.43523  1.0000
  H   H338      1.0  0.38863  0.75528  0.07368  1.0000
  H   H339      1.0  0.04515  0.72399  0.45286  1.0000
  H   H340      1.0  0.02193  0.57719  0.28096  1.0000
  H   H341      1.0  0.04841  0.58679  0.27953  1.0000
  C   C342      1.0  0.02407  0.75138  0.44740  1.0000
  C   C343      1.0  0.38773  0.75527  0.05649  1.0000
  C   C344      1.0  0.04482  0.75622  0.33774  1.0000
  C   C345      1.0  0.06636  0.75791  0.34147  1.0000
  C   C346      1.0  0.40099  0.74202  0.02282  1.0000
  H   H342      1.0  0.02558  0.75432  0.38454  1.0000
  C   C347      1.0  0.02432  0.61597  0.21357  1.0000
  H   H343      1.0  0.02127  0.62629  0.19962  1.0000
  H   H344      1.0  0.50635  0.72841  0.94219  1.0000
  C   C348      1.0  0.15906  0.54824  0.79121  1.0000
  H   H345      1.0  0.34282  0.73729  0.87277  1.0000
  S   S120      1.0  0.35081  0.73781  0.92019  1.0000
  S   S121      1.0  0.46221  0.73789  0.93411  1.0000
  C   C349      1.0  0.14835  0.73231  0.72306  1.0000
  Fe  Fe61      1.0  0.28713  0.63530  0.90818  1.0000
  S   S122      1.0  0.25986  0.65910  0.91124  1.0000
  S   S123      1.0  0.32183  0.64450  0.90425  1.0000
  Fe  Fe62      1.0  0.25757  0.59758  0.91468  1.0000
  S   S124      1.0  0.22855  0.61924  0.91903  1.0000
  S   S125      1.0  0.24735  0.56356  0.91751  1.0000
  Fe  Fe63      1.0  0.24217  0.63791  0.89068  1.0000
  S   S126      1.0  0.22599  0.64741  0.85957  1.0000
  Fe  Fe64      1.0  0.24904  0.63774  0.93923  1.0000
  S   S127      1.0  0.23841  0.65166  0.97093  1.0000
  S   S128      1.0  0.27054  0.61549  0.88557  1.0000
  S   S129      1.0  0.27703  0.61471  0.93695  1.0000
  H   H346      1.0  0.27441  0.59158  0.82623  1.0000
  H   H347      1.0  0.23586  0.54001  0.97592  1.0000
  H   H348      1.0  0.17080  0.54771  0.77798  1.0000
  N   N30       1.0  0.25555  0.51828  0.95804  1.0000
  Fe  Fe65      1.0  0.12521  0.75107  0.62704  1.0000
  S   S130      1.0  0.13669  0.71838  0.63981  1.0000
  Fe  Fe66      1.0  0.12570  0.60280  0.75491  1.0000
  S   S131      1.0  0.10716  0.59881  0.78588  1.0000
  S   S132      1.0  0.14230  0.57302  0.74216  1.0000
  Fe  Fe67      1.0  0.11405  0.65046  0.75098  1.0000
  S   S133      1.0  0.09443  0.64892  0.78219  1.0000
  S   S134      1.0  0.11346  0.68355  0.73439  1.0000
  Fe  Fe68      1.0  0.12205  0.62866  0.79469  1.0000
  S   S135      1.0  0.13392  0.62668  0.82862  1.0000
  Fe  Fe69      1.0  0.08169  0.61915  0.77027  1.0000
  S   S136      1.0  0.04913  0.60482  0.76918  1.0000
  S   S137      1.0  0.14233  0.63174  0.76434  1.0000
  S   S138      1.0  0.09967  0.62177  0.73853  1.0000
  Fe  Fe70      1.0  0.38318  0.75302  0.92032  1.0000
  S   S139      1.0  0.41169  0.75214  0.89722  1.0000
  H   H349      1.0  0.15851  0.73651  0.73606  1.0000
  H   H350      1.0  0.03733  0.64444  0.78987  1.0000
  C   C350      1.0  0.14804  0.52993  0.79732  1.0000
  C   C351      1.0  0.11052  0.54825  0.76031  1.0000
  C   C352      1.0  0.13029  0.54865  0.74922  1.0000
  S   S140      1.0  0.40312  0.75298  0.94907  1.0000
  H   H351      1.0  0.10211  0.56286  0.76418  1.0000
  H   H352      1.0  0.15582  0.52949  0.73492  1.0000
  C   C353      1.0  0.12775  0.70747  0.66509  1.0000
  C   C354      1.0  0.11375  0.71890  0.67862  1.0000
  C   C355      1.0  0.10862  0.71072  0.69941  1.0000
  C   C356      1.0  0.11731  0.69101  0.70693  1.0000
  C   C357      1.0  0.13078  0.67924  0.69318  1.0000
  C   C358      1.0  0.13599  0.68748  0.67237  1.0000
  H   H353      1.0  0.10722  0.73425  0.67327  1.0000
  H   H354      1.0  0.09821  0.71995  0.70994  1.0000
  H   H355      1.0  0.13777  0.66417  0.69882  1.0000
  H   H356      1.0  0.14686  0.67853  0.66202  1.0000
  H   H357      1.0  0.22605  0.53352  0.95066  1.0000
  H   H358      1.0  0.31949  0.63707  0.95590  1.0000
  C   C359      1.0  0.35782  0.74366  0.86539  1.0000
  H   H359      1.0  0.16854  0.58721  0.77687  1.0000
  C   C360      1.0  0.20038  0.64115  0.85132  1.0000
  C   C361      1.0  0.18448  0.63350  0.86570  1.0000
  C   C362      1.0  0.16431  0.62907  0.85845  1.0000
  C   C363      1.0  0.15974  0.63224  0.83678  1.0000
  C   C364      1.0  0.17572  0.63962  0.82235  1.0000
  C   C365      1.0  0.19587  0.64411  0.82961  1.0000
  H   H360      1.0  0.18753  0.63147  0.88250  1.0000
  H   H361      1.0  0.15203  0.62352  0.86978  1.0000
  H   H362      1.0  0.17243  0.64230  0.80566  1.0000
  H   H363      1.0  0.20797  0.65019  0.81837  1.0000
  C   C366      1.0  0.25948  0.54112  0.90574  1.0000
  C   C367      1.0  0.28079  0.54022  0.89815  1.0000
  C   C368      1.0  0.14052  0.52935  0.74357  1.0000
  H   H364      1.0  0.29031  0.55407  0.89852  1.0000
  H   H365      1.0  0.26504  0.68792  0.98236  1.0000
  C   C369      1.0  0.24919  0.64203  0.99534  1.0000
  C   C370      1.0  0.04215  0.72998  0.64614  1.0000
  C   C371      1.0  0.26440  0.62524  0.99601  1.0000
  H   H366      1.0  0.05015  0.74379  0.60558  1.0000
  H   H367      1.0  0.26940  0.61749  0.98162  1.0000
  C   C372      1.0  0.34353  0.71201  0.91418  1.0000
  C   C373      1.0  0.35853  0.69542  0.91068  1.0000
  C   C374      1.0  0.35168  0.67492  0.90712  1.0000
  C   C375      1.0  0.32984  0.67083  0.90711  1.0000
  C   C376      1.0  0.31492  0.68757  0.91019  1.0000
  C   C377      1.0  0.32174  0.70804  0.91362  1.0000
  H   H368      1.0  0.37536  0.69826  0.91103  1.0000
  H   H369      1.0  0.36335  0.66208  0.90469  1.0000
  H   H370      1.0  0.29811  0.68475  0.91008  1.0000
  H   H371      1.0  0.31001  0.72079  0.91618  1.0000
  H   H372      1.0  0.28204  0.55250  0.83001  1.0000
  N   N31       1.0  0.15454  0.56677  0.80118  1.0000
  C   C378      1.0  0.02316  0.63805  0.78393  1.0000
  C   C379      1.0  0.33522  0.66629  0.95959  1.0000
  C   C380      1.0  0.29002  0.52090  0.89103  1.0000
  H   H373      1.0  0.13130  0.73445  0.72838  1.0000
  H   H374      1.0  0.08546  0.52891  0.77390  1.0000
  H   H375      1.0  0.22652  0.54667  0.87195  1.0000
  H   H376      1.0  0.03880  0.74151  0.65882  1.0000
  H   H377      1.0  0.27245  0.71144  0.96658  1.0000
  H   H378      1.0  0.30535  0.53428  0.94467  1.0000
  H   H379      1.0  0.12316  0.51676  0.81803  1.0000
  C   C381      1.0  0.24725  0.52316  0.90500  1.0000
  C   C382      1.0  0.27311  0.61826  0.01545  1.0000
  H   H380      1.0  0.26290  0.68911  0.95385  1.0000
  C   C383      1.0  0.03349  0.74074  0.60926  1.0000
  N   N32       1.0  0.15303  0.74560  0.70370  1.0000
  H   H381      1.0  0.15116  0.71511  0.72038  1.0000
  C   C384      1.0  0.06246  0.55592  0.73188  1.0000
  H   H382      1.0  0.28335  0.65349  0.96104  1.0000
  C   C385      1.0  0.16646  0.58566  0.79457  1.0000
  C   C386      1.0  0.23691  0.55653  0.86178  1.0000
  H   H383      1.0  0.30671  0.51991  0.88597  1.0000
  C   C387      1.0  0.27235  0.53142  0.95524  1.0000
  H   H384      1.0  0.06108  0.52196  0.73175  1.0000
  H   H385      1.0  0.35110  0.65931  0.95677  1.0000
  C   C388      1.0  0.12799  0.54959  0.82398  1.0000
  C   C389      1.0  0.16278  0.73689  0.68606  1.0000
  N   N33       1.0  0.02681  0.73377  0.62936  1.0000
  C   C390      1.0  0.33236  0.68795  0.96282  1.0000
  C   C391      1.0  0.09293  0.57090  0.71282  1.0000
  C   C392      1.0  0.26391  0.58154  0.83610  1.0000
  H   H386      1.0  0.16632  0.71993  0.68582  1.0000
  H   H387      1.0  0.30964  0.71381  0.96722  1.0000
  C   C393      1.0  0.21521  0.58777  0.87223  1.0000
  Fe  Fe71      1.0  0.43140  0.75547  0.92581  1.0000
  H   H388      1.0  0.21165  0.57862  0.88750  1.0000
  H   H389      1.0  0.27015  0.54819  0.95816  1.0000
  C   C394      1.0  0.24618  0.59050  0.84715  1.0000
  C   C395      1.0  0.31168  0.69686  0.96530  1.0000
  H   H390      1.0  0.21887  0.60400  0.87665  1.0000
  C   C396      1.0  0.38623  0.75551  0.01246  1.0000
  H   H391      1.0  0.15787  0.60042  0.79967  1.0000
  C   C397      1.0  0.29707  0.66322  0.96168  1.0000
  H   H392      1.0  0.20093  0.58887  0.86246  1.0000
  C   C398      1.0  0.13955  0.56750  0.81769  1.0000
  H   H393      1.0  0.38602  0.75642  0.99517  1.0000
  C   C399      1.0  0.29227  0.52367  0.94751  1.0000
  C   C400      1.0  0.10098  0.52890  0.76566  1.0000
  H   H394      1.0  0.11327  0.74798  0.54519  1.0000
  C   C401      1.0  0.02485  0.61975  0.77221  1.0000
  C   C402      1.0  0.09997  0.55048  0.70737  1.0000
  C   C403      1.0  0.48586  0.74832  0.92241  1.0000
  H   H395      1.0  0.37101  0.73880  0.87598  1.0000
  H   H396      1.0  0.13612  0.58212  0.82581  1.0000
  H   H397      1.0  0.18229  0.58472  0.80168  1.0000
  H   H398      1.0  0.34602  0.69794  0.96252  1.0000
  C   C404      1.0  0.07403  0.57359  0.72511  1.0000
  C   C405      1.0  0.50570  0.74093  0.92980  1.0000
  H   H399      1.0  0.05883  0.73233  0.63998  1.0000
  C   C406      1.0  0.24272  0.65169  0.01442  1.0000
  H   H400      1.0  0.28493  0.60531  0.01572  1.0000
  H   H401      1.0  0.17468  0.74247  0.65352  1.0000
  H   H402      1.0  0.10239  0.58448  0.70800  1.0000
  N   N34       1.0  0.29437  0.68450  0.96454  1.0000
  H   H403      1.0  0.11492  0.54853  0.69819  1.0000
  C   C407      1.0  0.27270  0.69383  0.96699  1.0000
  C   C408      1.0  0.31748  0.65380  0.95907  1.0000
  C   C409      1.0  0.25446  0.54701  0.85093  1.0000
  N   N35       1.0  0.23334  0.57806  0.86027  1.0000
  H   H404      1.0  0.23065  0.52383  0.91040  1.0000
  C   C410      1.0  0.48513  0.76431  0.90621  1.0000
  H   H405      1.0  0.23091  0.66465  0.01409  1.0000
  C   C411      1.0  0.06994  0.53570  0.72610  1.0000
  H   H406      1.0  0.24305  0.60755  0.84558  1.0000
  H   H407      1.0  0.02403  0.75157  0.57782  1.0000
  H   H408      1.0  0.06849  0.58931  0.72969  1.0000
  H   H409      1.0  0.04801  0.55795  0.74184  1.0000
  H   H410      1.0  0.41220  0.73218  0.01361  1.0000
  C   C412      1.0  0.16769  0.74960  0.66773  1.0000
  C   C413      1.0  0.26815  0.55966  0.83818  1.0000
  C   C414      1.0  0.11770  0.75582  0.53001  1.0000
  H   H411      1.0  0.11571  0.55044  0.83667  1.0000
  H   H412      1.0  0.36081  0.73616  0.84986  1.0000
  S   S141      1.0  0.09932  0.75549  0.60340  1.0000
  H   H413      1.0  0.04123  0.71354  0.65317  1.0000
  N   N36       1.0  0.08858  0.53319  0.71416  1.0000
  C   C415      1.0  0.23449  0.52700  0.96485  1.0000
  H   H414      1.0  0.25769  0.52998  0.85284  1.0000
  H   H415      1.0  0.02150  0.58790  0.81325  1.0000
  C   C416      1.0  0.13222  0.53072  0.81361  1.0000
  C   C417      1.0  0.01878  0.74520  0.59346  1.0000
  S   S142      1.0  0.44911  0.79154  0.11388  1.0000
  S   S143      1.0  0.39979  0.79488  0.10086  1.0000
  H   H416      1.0  0.07209  0.79071  0.48380  1.0000
  H   H417      1.0  0.28523  0.99669  0.45928  1.0000
  Fe  Fe72      1.0  0.41811  0.80331  0.12910  1.0000
  S   S144      1.0  0.42069  0.83624  0.14178  1.0000
  Fe  Fe73      1.0  0.41753  0.93898  0.25550  1.0000
  S   S145      1.0  0.43876  0.93285  0.28296  1.0000
  S   S146      1.0  0.40860  0.97122  0.24013  1.0000
  Fe  Fe74      1.0  0.41000  0.89146  0.25154  1.0000
  S   S147      1.0  0.43024  0.88196  0.27923  1.0000
  S   S148      1.0  0.39385  0.86560  0.23511  1.0000
  Fe  Fe75      1.0  0.41376  0.90984  0.29520  1.0000
  S   S149      1.0  0.40095  0.91100  0.32965  1.0000
  Fe  Fe76      1.0  0.45303  0.90569  0.26446  1.0000
  S   S150      1.0  0.48709  0.89848  0.25262  1.0000
  S   S151      1.0  0.39186  0.91755  0.26863  1.0000
  S   S152      1.0  0.43344  0.91357  0.23589  1.0000
  Fe  Fe77      1.0  0.09806  0.79219  0.40885  1.0000
  S   S153      1.0  0.41187  0.77280  0.14807  1.0000
  Fe  Fe78      1.0  0.14709  0.79234  0.40622  1.0000
  S   S154      1.0  0.17944  0.80777  0.40308  1.0000
  S   S155      1.0  0.12239  0.79259  0.38146  1.0000
  S   S156      1.0  0.12257  0.79559  0.43324  1.0000
  Fe  Fe79      1.0  0.27991  0.90594  0.43807  1.0000
  S   S157      1.0  0.25247  0.92960  0.43609  1.0000
  S   S158      1.0  0.29068  0.89087  0.46933  1.0000
  Fe  Fe80      1.0  0.28842  0.90681  0.38947  1.0000
  S   S159      1.0  0.26156  0.93079  0.38391  1.0000
  S   S160      1.0  0.30594  0.89138  0.36139  1.0000
  Fe  Fe81      1.0  0.27354  0.94708  0.41181  1.0000
  S   S161      1.0  0.28392  0.98050  0.41584  1.0000
  Fe  Fe82      1.0  0.24298  0.91087  0.40867  1.0000
  S   S162      1.0  0.20867  0.90293  0.40353  1.0000
  S   S163      1.0  0.30179  0.92430  0.41556  1.0000
  S   S164      1.0  0.26907  0.88590  0.41233  1.0000
  H   H418      1.0  0.45983  0.81984  0.16324  1.0000
  C   C418      1.0  0.28591  0.90627  0.49196  1.0000
  H   H419      1.0  0.32211  0.85292  0.39961  1.0000
  H   H420      1.0  0.28056  0.93580  0.47398  1.0000
  C   C419      1.0  0.37007  0.91372  0.21510  1.0000
  H   H421      1.0  0.43369  0.80956  0.21595  1.0000
  H   H422      1.0  0.48274  0.95443  0.29797  1.0000
  C   C420      1.0  0.46988  0.84311  0.19455  1.0000
  H   H423      1.0  0.24516  0.99329  0.39281  1.0000
  C   C421      1.0  0.28713  0.89659  0.51251  1.0000
  C   C422      1.0  0.18576  0.83444  0.40668  1.0000
  C   C423      1.0  0.20651  0.83858  0.41229  1.0000
  C   C424      1.0  0.21343  0.85951  0.41227  1.0000
  C   C425      1.0  0.19970  0.87660  0.40650  1.0000
  C   C426      1.0  0.17870  0.87254  0.40155  1.0000
  C   C427      1.0  0.17172  0.85156  0.40167  1.0000
  H   H424      1.0  0.21748  0.82544  0.41619  1.0000
  H   H425      1.0  0.22953  0.86234  0.41632  1.0000
  H   H426      1.0  0.16789  0.88566  0.39719  1.0000
  H   H427      1.0  0.15574  0.84860  0.39723  1.0000
  H   H428      1.0  0.08200  0.81280  0.36448  1.0000
  C   C428      1.0  0.04340  0.79967  0.40349  1.0000
  H   H429      1.0  0.13438  0.78360  0.47555  1.0000
  C   C429      1.0  0.45788  0.85358  0.22969  1.0000
  C   C430      1.0  0.04375  0.77886  0.39679  1.0000
  S   S165      1.0  0.06693  0.81159  0.41016  1.0000
  C   C431      1.0  0.03882  0.78495  0.45419  1.0000
  C   C432      1.0  0.37355  0.90797  0.33666  1.0000
  C   C433      1.0  0.36488  0.91625  0.35570  1.0000
  C   C434      1.0  0.34372  0.91239  0.36282  1.0000
  C   C435      1.0  0.33121  0.89971  0.35122  1.0000
  C   C436      1.0  0.33973  0.89175  0.33198  1.0000
  C   C437      1.0  0.36072  0.89603  0.32461  1.0000
  H   H430      1.0  0.37466  0.92557  0.36508  1.0000
  H   H431      1.0  0.33735  0.91866  0.37762  1.0000
  H   H432      1.0  0.33022  0.88185  0.32293  1.0000
  H   H433      1.0  0.36726  0.88941  0.31003  1.0000
  C   C438      1.0  0.43314  0.99359  0.26604  1.0000
  C   C439      1.0  0.41805  0.99458  0.25033  1.0000
  C   C440      1.0  0.45660  0.81155  0.17905  1.0000
  H   H434      1.0  0.43911  0.97838  0.27230  1.0000
  C   C441      1.0  0.41439  0.80157  0.03426  1.0000
  C   C442      1.0  0.07488  0.78719  0.46674  1.0000
  C   C443      1.0  0.03901  0.79333  0.34469  1.0000
  H   H435      1.0  0.48450  0.78891  0.07751  1.0000
  N   N37       1.0  0.05755  0.77480  0.45968  1.0000
  H   H436      1.0  0.49319  0.90135  0.29839  1.0000
  C   C444      1.0  0.41301  0.84399  0.16781  1.0000
  C   C445      1.0  0.39983  0.83173  0.18162  1.0000
  C   C446      1.0  0.39392  0.83867  0.20212  1.0000
  C   C447      1.0  0.40152  0.85763  0.20915  1.0000
  C   C448      1.0  0.41496  0.86973  0.19545  1.0000
  C   C449      1.0  0.42049  0.86302  0.17481  1.0000
  H   H437      1.0  0.39388  0.81711  0.17637  1.0000
  H   H438      1.0  0.38347  0.82924  0.21261  1.0000
  H   H439      1.0  0.42097  0.88431  0.20066  1.0000
  H   H440      1.0  0.43070  0.87258  0.16420  1.0000
  H   H441      1.0  0.40624  0.93992  0.20584  1.0000
  C   C450      1.0  0.43184  0.78720  0.03241  1.0000
  H   H442      1.0  0.48095  0.87045  0.20980  1.0000
  H   H443      1.0  0.38840  0.96076  0.19636  1.0000
  H   H444      1.0  0.07318  0.82444  0.33935  1.0000
  H   H445      1.0  0.35228  0.88834  0.23068  1.0000
  H   H446      1.0  0.33201  0.91225  0.25539  1.0000
  C   C451      1.0  0.44459  0.83638  0.23144  1.0000
  H   H447      1.0  0.47976  0.84592  0.18014  1.0000
  C   C452      1.0  0.34346  0.91870  0.24357  1.0000
  N   N38       1.0  0.35085  0.86981  0.39593  1.0000
  C   C453      1.0  0.50994  0.89847  0.26791  1.0000
  C   C454      1.0  0.35992  0.78354  0.05841  1.0000
  C   C455      1.0  0.28135  0.92814  0.48972  1.0000
  H   H448      1.0  0.38995  0.93590  0.18348  1.0000
  C   C456      1.0  0.32587  0.87260  0.42593  1.0000
  C   C457      1.0  0.35787  0.85960  0.37620  1.0000
  H   H449      1.0  0.35557  0.77664  0.07461  1.0000
  H   H450      1.0  0.40967  0.80769  0.04963  1.0000
  C   C458      1.0  0.27817  0.94022  0.50790  1.0000
  C   C459      1.0  0.36345  0.88414  0.40436  1.0000
  C   C460      1.0  0.33855  0.88728  0.43461  1.0000
  H   H451      1.0  0.36906  0.86960  0.36625  1.0000
  C   C461      1.0  0.35478  0.90529  0.22971  1.0000
  C   C462      1.0  0.49555  0.77696  0.14262  1.0000
  H   H452      1.0  0.34407  0.85723  0.36627  1.0000
  N   N39       1.0  0.37375  0.93497  0.21411  1.0000
  C   C463      1.0  0.34749  0.94031  0.24265  1.0000
  H   H453      1.0  0.37814  0.88884  0.39597  1.0000
  H   H454      1.0  0.36719  0.90488  0.43020  1.0000
  C   C464      1.0  0.03103  0.77405  0.33925  1.0000
  H   H455      1.0  0.37924  0.90303  0.20483  1.0000
  H   H456      1.0  0.09059  0.77855  0.34974  1.0000
  H   H457      1.0  0.33354  0.89423  0.44961  1.0000
  C   C465      1.0  0.50045  0.78312  0.08131  1.0000
  C   C466      1.0  0.44429  0.82274  0.21457  1.0000
  H   H458      1.0  0.13643  0.80242  0.50886  1.0000
  H   H459      1.0  0.43417  0.83395  0.24557  1.0000
  H   H460      1.0  0.36626  0.96495  0.22755  1.0000
  H   H461      1.0  0.45823  0.86434  0.24260  1.0000
  C   C467      1.0  0.24708  0.01453  0.45301  1.0000
  H   H462      1.0  0.36597  0.84401  0.38003  1.0000
  H   H463      1.0  0.31108  0.86808  0.43425  1.0000
  H   H464      1.0  0.44072  0.80456  0.17823  1.0000
  H   H465      1.0  0.46880  0.79852  0.18150  1.0000
  C   C468      1.0  0.41049  0.01456  0.24235  1.0000
  C   C469      1.0  0.47064  0.85701  0.21118  1.0000
  N   N40       1.0  0.06011  0.79475  0.34865  1.0000
  C   C470      1.0  0.13073  0.78645  0.50955  1.0000
  C   C471      1.0  0.51505  0.78706  0.14161  1.0000
  C   C472      1.0  0.49753  0.95380  0.28833  1.0000
  C   C473      1.0  0.27232  0.00513  0.40739  1.0000
  H   H466      1.0  0.51514  0.80422  0.14075  1.0000
  N   N41       1.0  0.45668  0.82634  0.19634  1.0000
  C   C474      1.0  0.39035  0.94326  0.19914  1.0000
  C   C475      1.0  0.06820  0.81516  0.35408  1.0000
  H   H467      1.0  0.45232  0.01142  0.28574  1.0000
  C   C476      1.0  0.33224  0.86406  0.40641  1.0000
  Fe  Fe83      1.0  0.43036  0.78004  0.08780  1.0000
  N   N42       1.0  0.22357  0.87700  0.35666  1.0000
  C   C477      1.0  0.21244  0.85875  0.35817  1.0000
  C   C478      1.0  0.24501  0.87628  0.35972  1.0000
  C   C479      1.0  0.22265  0.83921  0.36342  1.0000
  C   C480      1.0  0.25571  0.85703  0.36508  1.0000
  C   C481      1.0  0.24439  0.83841  0.36708  1.0000
  C   C482      1.0  0.21258  0.89727  0.35090  1.0000
  H   H468      1.0  0.19539  0.85932  0.35612  1.0000
  H   H469      1.0  0.25394  0.89068  0.35836  1.0000
  H   H470      1.0  0.21351  0.82494  0.36558  1.0000
  H   H471      1.0  0.27262  0.85670  0.36790  1.0000
  H   H472      1.0  0.25232  0.82343  0.37177  1.0000
  H   H473      1.0  0.19616  0.89792  0.35835  1.0000
  H   H474      1.0  0.22076  0.91081  0.35715  1.0000
  H   H475      1.0  0.21188  0.89942  0.33332  1.0000
  C   C483      1.0  0.36282  0.94822  0.22776  1.0000
  C   C484      1.0  0.35740  0.89323  0.42372  1.0000
  C   C485      1.0  0.44063  0.01237  0.27362  1.0000
  S   S166      1.0  0.44604  0.77814  0.05482  1.0000
  H   H476      1.0  0.33926  0.95080  0.25376  1.0000
  H   H477      1.0  0.36867  0.79825  0.06014  1.0000
  C   C486      1.0  0.07381  0.77744  0.34681  1.0000
  H   H478      1.0  0.09048  0.77842  0.46496  1.0000
  H   H479      1.0  0.27483  0.95714  0.50602  1.0000
  H   H480      1.0  0.05591  0.82452  0.36334  1.0000
  H   H481      1.0  0.48086  0.78636  0.14306  1.0000
  H   H482      1.0  0.27635  0.00257  0.48623  1.0000
  C   C487      1.0  0.25319  0.00729  0.39682  1.0000
  C   C488      1.0  0.37259  0.76887  0.02444  1.0000
  H   H483      1.0  0.02804  0.80692  0.34648  1.0000
  H   H484      1.0  0.24712  0.99749  0.45131  1.0000
  H   H485      1.0  0.05852  0.76963  0.39581  1.0000
  C   C489      1.0  0.28113  0.00970  0.47029  1.0000
  C   C490      1.0  0.50862  0.90032  0.29003  1.0000
  H   H486      1.0  0.29067  0.87970  0.51435  1.0000
  C   C491      1.0  0.12940  0.77585  0.49055  1.0000
  H   H487      1.0  0.48202  0.95013  0.25893  1.0000
  C   C492      1.0  0.49710  0.95149  0.26640  1.0000
  H   H488      1.0  0.07624  0.80230  0.45694  1.0000
  H   H489      1.0  0.51366  0.81418  0.07677  1.0000
  H   H490      1.0  0.02356  0.82758  0.40961  1.0000
  H   H491      1.0  0.34482  0.78771  0.05044  1.0000
  C   C493      1.0  0.02399  0.81147  0.40442  1.0000
  H   H492      1.0  0.39887  0.01551  0.23016  1.0000
  H   H493      1.0  0.03714  0.80214  0.45411  1.0000
  N   N43       1.0  0.37336  0.76851  0.04620  1.0000
  C   C494      1.0  0.02181  0.77342  0.44796  1.0000
  C   C495      1.0  0.02500  0.77017  0.39040  1.0000
  H   H494      1.0  0.51597  0.94790  0.23722  1.0000
  C   C496      1.0  0.51619  0.95026  0.25419  1.0000
  C   C497      1.0  0.35902  0.96178  0.68882  1.0000
  H   H495      1.0  0.37525  0.80712  0.83063  1.0000
  Fe  Fe84      1.0  0.40917  0.78796  0.89632  1.0000
  S   S167      1.0  0.41400  0.80321  0.86287  1.0000
  S   S168      1.0  0.37940  0.78871  0.91750  1.0000
  S   S169      1.0  0.43078  0.79103  0.92347  1.0000
  Fe  Fe85      1.0  0.08684  0.78159  0.62425  1.0000
  H   H496      1.0  0.33538  0.84835  0.61598  1.0000
  Fe  Fe86      1.0  0.13165  0.79893  0.62878  1.0000
  S   S170      1.0  0.14865  0.82500  0.64438  1.0000
  S   S171      1.0  0.10535  0.80704  0.60645  1.0000
  H   H497      1.0  0.16012  0.82160  0.53708  1.0000
  Fe  Fe87      1.0  0.29307  0.91740  0.62620  1.0000
  S   S172      1.0  0.26162  0.91431  0.64450  1.0000
  S   S173      1.0  0.32651  0.91249  0.63846  1.0000
  Fe  Fe88      1.0  0.27179  0.93106  0.58407  1.0000
  S   S174      1.0  0.23896  0.92901  0.59942  1.0000
  S   S175      1.0  0.27552  0.94643  0.55082  1.0000
  Fe  Fe89      1.0  0.25265  0.94522  0.62654  1.0000
  S   S176      1.0  0.23546  0.97477  0.63902  1.0000
  Fe  Fe90      1.0  0.25085  0.89845  0.61550  1.0000
  S   S177      1.0  0.23640  0.86609  0.61218  1.0000
  S   S178      1.0  0.28466  0.94897  0.61018  1.0000
  S   S179      1.0  0.28324  0.89965  0.59828  1.0000
  Fe  Fe91      1.0  0.42959  0.90979  0.75704  1.0000
  S   S180      1.0  0.42527  0.93162  0.78410  1.0000
  S   S181      1.0  0.46247  0.89747  0.74595  1.0000
  Fe  Fe92      1.0  0.38138  0.90875  0.75051  1.0000
  S   S182      1.0  0.37421  0.92989  0.77785  1.0000
  S   S183      1.0  0.35081  0.90014  0.73553  1.0000
  Fe  Fe93      1.0  0.40109  0.94910  0.76386  1.0000
  S   S184      1.0  0.39614  0.98344  0.75237  1.0000
  Fe  Fe94      1.0  0.39891  0.90989  0.79523  1.0000
  S   S185      1.0  0.39453  0.89886  0.83014  1.0000
  S   S186      1.0  0.40728  0.92874  0.73574  1.0000
  S   S187      1.0  0.40430  0.88726  0.76899  1.0000
  H   H498      1.0  0.45537  0.84472  0.85775  1.0000
  H   H499      1.0  0.22906  0.98830  0.59365  1.0000
  C   C498      1.0  0.31651  0.86098  0.65355  1.0000
  H   H500      1.0  0.41816  0.98720  0.79199  1.0000
  H   H501      1.0  0.31278  0.85617  0.60046  1.0000
  C   C499      1.0  0.48577  0.90852  0.75467  1.0000
  H   H502      1.0  0.46809  0.83229  0.82255  1.0000
  C   C500      1.0  0.48465  0.92396  0.76990  1.0000
  C   C501      1.0  0.43814  0.77969  0.01234  1.0000
  H   H503      1.0  0.46950  0.92907  0.77699  1.0000
  C   C502      1.0  0.33285  0.91026  0.66562  1.0000
  C   C503      1.0  0.35437  0.90968  0.67083  1.0000
  C   C504      1.0  0.36014  0.90726  0.69223  1.0000
  C   C505      1.0  0.34440  0.90487  0.70856  1.0000
  C   C506      1.0  0.32288  0.90542  0.70334  1.0000
  C   C507      1.0  0.31709  0.90840  0.68199  1.0000
  H   H504      1.0  0.36667  0.91103  0.65824  1.0000
  H   H505      1.0  0.37676  0.90665  0.69604  1.0000
  H   H506      1.0  0.31063  0.90350  0.71591  1.0000
  H   H507      1.0  0.30047  0.90884  0.67818  1.0000
  C   C508      1.0  0.24887  0.99898  0.63823  1.0000
  C   C509      1.0  0.45617  0.85583  0.84398  1.0000
  C   C510      1.0  0.27109  0.99924  0.63607  1.0000
  C   C511      1.0  0.32078  0.96009  0.68846  1.0000
  H   H508      1.0  0.28039  0.98453  0.63556  1.0000
  H   H509      1.0  0.48357  0.86515  0.77839  1.0000
  H   H510      1.0  0.13258  0.85287  0.60228  1.0000
  H   H511      1.0  0.14000  0.77379  0.71748  1.0000
  H   H512      1.0  0.18844  0.82115  0.54045  1.0000
  H   H513      1.0  0.28454  0.90102  0.54647  1.0000
  C   C512      1.0  0.17318  0.83611  0.63538  1.0000
  C   C513      1.0  0.17881  0.85549  0.64328  1.0000
  C   C514      1.0  0.19797  0.86506  0.63626  1.0000
  C   C515      1.0  0.21194  0.85506  0.62158  1.0000
  C   C516      1.0  0.20648  0.83549  0.61396  1.0000
  C   C517      1.0  0.18712  0.82616  0.62062  1.0000
  H   H514      1.0  0.16815  0.86329  0.65474  1.0000
  H   H515      1.0  0.20196  0.88007  0.64232  1.0000
  H   H516      1.0  0.21719  0.82759  0.60264  1.0000
  H   H517      1.0  0.18305  0.81124  0.61443  1.0000
  C   C518      1.0  0.40467  0.00537  0.76565  1.0000
  C   C519      1.0  0.30387  0.85996  0.67250  1.0000
  H   H518      1.0  0.50211  0.94578  0.78699  1.0000
  C   C520      1.0  0.03004  0.78893  0.62383  1.0000
  S   S188      1.0  0.39353  0.80712  0.97408  1.0000
  S   S189      1.0  0.05297  0.78250  0.63838  1.0000
  C   C521      1.0  0.40756  0.82973  0.85429  1.0000
  C   C522      1.0  0.40022  0.84509  0.86845  1.0000
  C   C523      1.0  0.39582  0.86613  0.86078  1.0000
  C   C524      1.0  0.39860  0.87193  0.83894  1.0000
  C   C525      1.0  0.40558  0.85642  0.82479  1.0000
  C   C526      1.0  0.41008  0.83547  0.83245  1.0000
  H   H519      1.0  0.39819  0.84086  0.88531  1.0000
  H   H520      1.0  0.39046  0.87804  0.87185  1.0000
  H   H521      1.0  0.40787  0.86062  0.80800  1.0000
  H   H522      1.0  0.41573  0.82367  0.82138  1.0000
  C   C527      1.0  0.40911  0.80022  0.99614  1.0000
  C   C528      1.0  0.48594  0.80532  0.93958  1.0000
  H   H523      1.0  0.47440  0.94260  0.71948  1.0000
  H   H524      1.0  0.30448  0.95796  0.71926  1.0000
  H   H525      1.0  0.45207  0.94447  0.73802  1.0000
  N   N44       1.0  0.47326  0.96954  0.73919  1.0000
  C   C529      1.0  0.44927  0.87697  0.84594  1.0000
  Fe  Fe95      1.0  0.11998  0.78046  0.58721  1.0000
  H   H526      1.0  0.45700  0.85699  0.77435  1.0000
  H   H527      1.0  0.33619  0.94206  0.75093  1.0000
  H   H528      1.0  0.44375  0.98460  0.74931  1.0000
  H   H529      1.0  0.45635  0.89409  0.79416  1.0000
  C   C530      1.0  0.34053  0.96119  0.67745  1.0000
  C   C531      1.0  0.47043  0.99885  0.76228  1.0000
  C   C532      1.0  0.24176  0.98720  0.58075  1.0000
  H   H530      1.0  0.32219  0.96767  0.75149  1.0000
  C   C533      1.0  0.35746  0.96128  0.71114  1.0000
  C   C534      1.0  0.48548  0.78909  0.95549  1.0000
  C   C535      1.0  0.47042  0.85533  0.78531  1.0000
  H   H531      1.0  0.25035  0.97167  0.58350  1.0000
  H   H532      1.0  0.47042  0.78247  0.96106  1.0000
  N   N45       1.0  0.33800  0.96034  0.72180  1.0000
  H   H533      1.0  0.50479  0.95715  0.73186  1.0000
  C   C536      1.0  0.49255  0.99818  0.76361  1.0000
  N   N46       1.0  0.46337  0.86263  0.80638  1.0000
  H   H534      1.0  0.30638  0.95908  0.67974  1.0000
  H   H535      1.0  0.47629  0.83848  0.78598  1.0000
  N   N47       1.0  0.25626  0.00474  0.58116  1.0000
  H   H536      1.0  0.04675  0.79851  0.59443  1.0000
  C   C537      1.0  0.46318  0.84886  0.82394  1.0000
  H   H537      1.0  0.31081  0.86246  0.68763  1.0000
  H   H538      1.0  0.23449  0.98723  0.56500  1.0000
  H   H539      1.0  0.28377  0.98575  0.57210  1.0000
  H   H540      1.0  0.43128  0.77967  0.97897  1.0000
  C   C538      1.0  0.33667  0.95899  0.74518  1.0000
  H   H541      1.0  0.19211  0.88020  0.58175  1.0000
  C   C539      1.0  0.17263  0.82036  0.54907  1.0000
  H   H542      1.0  0.27962  0.85238  0.61829  1.0000
  C   C540      1.0  0.18366  0.85244  0.56569  1.0000
  C   C541      1.0  0.16160  0.86880  0.59328  1.0000
  H   H543      1.0  0.44336  0.90711  0.82919  1.0000
  H   H544      1.0  0.25658  0.85091  0.65118  1.0000
  H   H545      1.0  0.50007  0.00903  0.77352  1.0000
  H   H546      1.0  0.33320  0.86454  0.65420  1.0000
  S   S190      1.0  0.11173  0.77583  0.64865  1.0000
  C   C542      1.0  0.32147  0.85970  0.61479  1.0000
  C   C543      1.0  0.14677  0.85317  0.59172  1.0000
  C   C544      1.0  0.03134  0.79602  0.60236  1.0000
  C   C545      1.0  0.28663  0.85443  0.63347  1.0000
  C   C546      1.0  0.49499  0.96908  0.74002  1.0000
  Fe  Fe96      1.0  0.40123  0.78836  0.94483  1.0000
  C   C547      1.0  0.44945  0.89085  0.82794  1.0000
  C   C548      1.0  0.36726  0.77700  0.84616  1.0000
  H   H547      1.0  0.50683  0.89013  0.73396  1.0000
  H   H548      1.0  0.34151  0.96093  0.66015  1.0000
  C   C549      1.0  0.34467  0.77838  0.87747  1.0000
  C   C550      1.0  0.31982  0.95946  0.71079  1.0000
  C   C551      1.0  0.40322  0.80828  0.01609  1.0000
  H   H549      1.0  0.32732  0.87608  0.61229  1.0000
  C   C552      1.0  0.46278  0.95400  0.72711  1.0000
  H   H550      1.0  0.14853  0.79699  0.68534  1.0000
  H   H551      1.0  0.19829  0.85218  0.55583  1.0000
  C   C553      1.0  0.18017  0.86849  0.58019  1.0000
  C   C554      1.0  0.27751  0.00142  0.57610  1.0000
  N   N48       1.0  0.16900  0.83717  0.56426  1.0000
  C   C555      1.0  0.50323  0.93341  0.77562  1.0000
  C   C556      1.0  0.15072  0.83744  0.57697  1.0000
  H   H552      1.0  0.45324  0.96219  0.71450  1.0000
  C   C557      1.0  0.50578  0.90213  0.74573  1.0000
  H   H553      1.0  0.15900  0.88074  0.60507  1.0000
  H   H554      1.0  0.13918  0.82530  0.57589  1.0000
  C   C558      1.0  0.46099  0.98425  0.74999  1.0000
  H   H555      1.0  0.27210  0.85596  0.68620  1.0000
  C   C559      1.0  0.28219  0.85636  0.67169  1.0000
  S   S191      1.0  0.14726  0.77371  0.60886  1.0000
  H   H556      1.0  0.36198  0.78009  0.01610  1.0000
  C   C560      1.0  0.27348  0.85352  0.65208  1.0000
  C   C561      1.0  0.42666  0.78597  0.99428  1.0000
  N   N49       1.0  0.30784  0.85821  0.63437  1.0000
  H   H557      1.0  0.35064  0.96615  0.75189  1.0000
  H   H558      1.0  0.37449  0.96215  0.68044  1.0000
  C   C562      1.0  0.34370  0.80060  0.87566  1.0000
  H   H559      1.0  0.37723  0.76800  0.83500  1.0000
  C   C563      1.0  0.12494  0.77653  0.52936  1.0000
  H   H560      1.0  0.37190  0.96146  0.71991  1.0000
  C   C564      1.0  0.50407  0.77301  0.89764  1.0000
  S   S192      1.0  0.12724  0.79087  0.55258  1.0000
  H   H561      1.0  0.35446  0.82825  0.85723  1.0000
  C   C565      1.0  0.15280  0.78011  0.68559  1.0000
  C   C566      1.0  0.41542  0.00289  0.78466  1.0000
  C   C567      1.0  0.36624  0.79915  0.84361  1.0000
  H   H562      1.0  0.50609  0.82499  0.91885  1.0000
  C   C568      1.0  0.27924  0.93053  0.52845  1.0000
  C   C569      1.0  0.35458  0.81102  0.85860  1.0000
  H   H563      1.0  0.50336  0.78540  0.88512  1.0000
  H   H564      1.0  0.44302  0.88243  0.86120  1.0000
  N   N50       1.0  0.35624  0.76688  0.86273  1.0000
  C   C570      1.0  0.45657  0.88335  0.80817  1.0000
  H   H565      1.0  0.33494  0.80966  0.88768  1.0000
  H   H566      1.0  0.47124  0.81157  0.93292  1.0000
  C   C571      1.0  0.50464  0.78081  0.96351  1.0000
  H   H567      1.0  0.33644  0.77041  0.89098  1.0000
  H   H568      1.0  0.38975  0.81943  0.01755  1.0000
  H   H569      1.0  0.50412  0.76779  0.97542  1.0000
  H   H570      1.0  0.46062  0.01042  0.77092  1.0000
  C   C572      1.0  0.28363  0.90864  0.53072  1.0000
  C   C573      1.0  0.50546  0.81294  0.93176  1.0000
  H   H571      1.0  0.46997  0.76992  0.90020  1.0000
  C   C574      1.0  0.50494  0.98326  0.75237  1.0000
  H   H572      1.0  0.16636  0.78140  0.65344  1.0000
  H   H573      1.0  0.45166  0.76861  0.01081  1.0000
  H   H574      1.0  0.17171  0.80450  0.55756  1.0000
  C   C575      1.0  0.16281  0.77136  0.66760  1.0000
  C   C576      1.0  0.14796  0.76691  0.70361  1.0000
  H   H575      1.0  0.30840  0.01529  0.57278  1.0000
  Fe  Fe97      1.0  0.63599  0.12678  0.30307  1.0000
  S   S193      1.0  0.65411  0.12937  0.27133  1.0000
  S   S194      1.0  0.64782  0.13186  0.33619  1.0000
  Fe  Fe98      1.0  0.59610  0.11055  0.28303  1.0000
  S   S195      1.0  0.61172  0.11133  0.25022  1.0000
  S   S196      1.0  0.56383  0.09587  0.28611  1.0000
  Fe  Fe99      1.0  0.64055  0.09737  0.26632  1.0000
  S   S197      1.0  0.65971  0.06764  0.25735  1.0000
  Fe  Fe100     1.0  0.62325  0.14323  0.25814  1.0000
  S   S198      1.0  0.61276  0.17305  0.23837  1.0000
  S   S199      1.0  0.62411  0.09433  0.29855  1.0000
  S   S200      1.0  0.60601  0.14285  0.29057  1.0000
  C   C577      1.0  0.88972  0.23046  0.48959  1.0000
  C   C578      1.0  0.67193  0.08086  0.34420  1.0000
  Fe  Fe101     1.0  0.63538  0.25098  0.13622  1.0000
  S   S201      1.0  0.65107  0.22315  0.15507  1.0000
  H   H576      1.0  0.56688  0.18995  0.24526  1.0000
  H   H577      1.0  0.66578  0.08234  0.37819  1.0000
  H   H578      1.0  0.54855  0.18949  0.26849  1.0000
  S   S202      1.0  0.92612  0.24502  0.44221  1.0000
  H   H579      1.0  0.64844  0.25281  0.18842  1.0000
  C   C579      1.0  0.75361  0.15212  0.51801  1.0000
  H   H580      1.0  0.89194  0.22928  0.47245  1.0000
  S   S203      1.0  0.86394  0.23529  0.43631  1.0000
  Fe  Fe102     1.0  0.75640  0.12688  0.39943  1.0000
  S   S204      1.0  0.78713  0.10713  0.39991  1.0000
  S   S205      1.0  0.74354  0.13086  0.36596  1.0000
  Fe  Fe103     1.0  0.75951  0.13675  0.44643  1.0000
  S   S206      1.0  0.79013  0.11779  0.44981  1.0000
  S   S207      1.0  0.74820  0.15546  0.47485  1.0000
  Fe  Fe104     1.0  0.79986  0.13334  0.41819  1.0000
  S   S208      1.0  0.83299  0.14548  0.40987  1.0000
  Fe  Fe105     1.0  0.77442  0.09353  0.43146  1.0000
  S   S209      1.0  0.77521  0.05939  0.44496  1.0000
  S   S210      1.0  0.77014  0.15392  0.41571  1.0000
  S   S211      1.0  0.74282  0.11159  0.43008  1.0000
  C   C580      1.0  0.77470  0.03815  0.42767  1.0000
  C   C581      1.0  0.78168  0.04042  0.40622  1.0000
  C   C582      1.0  0.99385  0.24974  0.41208  1.0000
  H   H581      1.0  0.78622  0.05580  0.39954  1.0000
  H   H582      1.0  0.57256  0.17325  0.26848  1.0000
  C   C583      1.0  0.74306  0.12035  0.50197  1.0000
  C   C584      1.0  0.74853  0.14160  0.49985  1.0000
  C   C585      1.0  0.61163  0.02640  0.26392  1.0000
  H   H583      1.0  0.73898  0.11218  0.48807  1.0000
  C   C586      1.0  0.82271  0.01679  0.43839  1.0000
  C   C587      1.0  0.85587  0.21022  0.42863  1.0000
  C   C588      1.0  0.83558  0.20341  0.43568  1.0000
  C   C589      1.0  0.82845  0.18358  0.43024  1.0000
  C   C590      1.0  0.84158  0.17028  0.41769  1.0000
  C   C591      1.0  0.86186  0.17709  0.41058  1.0000
  C   C592      1.0  0.86899  0.19696  0.41598  1.0000
  H   H584      1.0  0.82532  0.21351  0.44550  1.0000
  H   H585      1.0  0.81285  0.17854  0.43592  1.0000
  H   H586      1.0  0.87217  0.16690  0.40090  1.0000
  H   H587      1.0  0.88466  0.20194  0.41050  1.0000
  C   C593      1.0  0.86937  0.22912  0.49927  1.0000
  H   H588      1.0  0.61634  0.01992  0.19374  1.0000
  H   H589      1.0  0.67459  0.09736  0.30126  1.0000
  C   C594      1.0  0.52702  0.16359  0.24758  1.0000
  H   H590      1.0  0.66725  0.06998  0.30406  1.0000
  H   H591      1.0  0.59442  0.02744  0.26567  1.0000
  C   C595      1.0  0.77556  0.06105  0.50867  1.0000
  H   H592      1.0  0.62782  0.24354  0.05416  1.0000
  C   C596      1.0  0.62373  0.18634  0.21496  1.0000
  C   C597      1.0  0.61220  0.20386  0.20585  1.0000
  C   C598      1.0  0.62017  0.21508  0.18738  1.0000
  C   C599      1.0  0.63988  0.20897  0.17783  1.0000
  C   C600      1.0  0.65147  0.19154  0.18698  1.0000
  C   C601      1.0  0.64342  0.18021  0.20539  1.0000
  H   H593      1.0  0.59697  0.20877  0.21312  1.0000
  H   H594      1.0  0.61106  0.22843  0.18055  1.0000
  H   H595      1.0  0.66673  0.18667  0.17973  1.0000
  H   H596      1.0  0.65249  0.16681  0.21219  1.0000
  C   C602      1.0  0.67452  0.13311  0.34398  1.0000
  C   C603      1.0  0.67843  0.13347  0.36583  1.0000
  C   C604      1.0  0.69942  0.13306  0.37288  1.0000
  C   C605      1.0  0.71674  0.13254  0.35807  1.0000
  C   C606      1.0  0.71282  0.13273  0.33619  1.0000
  C   C607      1.0  0.69184  0.13291  0.32916  1.0000
  H   H597      1.0  0.66513  0.13377  0.37741  1.0000
  H   H598      1.0  0.70218  0.13307  0.38974  1.0000
  H   H599      1.0  0.72610  0.13251  0.32459  1.0000
  H   H600      1.0  0.68908  0.13292  0.31230  1.0000
  C   C608      1.0  0.54002  0.11151  0.28595  1.0000
  C   C609      1.0  0.53840  0.13160  0.29447  1.0000
  H   H601      1.0  0.97575  0.26117  0.43942  1.0000
  H   H602      1.0  0.55235  0.13837  0.30043  1.0000
  Fe  Fe106     1.0  0.89440  0.25310  0.42788  1.0000
  H   H603      1.0  0.92291  0.23489  0.49456  1.0000
  C   C610      1.0  0.64527  0.04411  0.25994  1.0000
  C   C611      1.0  0.62308  0.04510  0.26288  1.0000
  H   H604      1.0  0.80850  0.02281  0.46929  1.0000
  H   H605      1.0  0.61464  0.06033  0.26394  1.0000
  N   N51       1.0  0.80198  0.18126  0.37176  1.0000
  C   C612      1.0  0.82362  0.17928  0.36850  1.0000
  C   C613      1.0  0.78916  0.16622  0.36489  1.0000
  C   C614      1.0  0.83299  0.16185  0.35820  1.0000
  C   C615      1.0  0.79800  0.14856  0.35458  1.0000
  C   C616      1.0  0.82006  0.14634  0.35135  1.0000
  C   C617      1.0  0.79273  0.19878  0.38408  1.0000
  H   H606      1.0  0.83385  0.19072  0.37472  1.0000
  H   H607      1.0  0.77200  0.16748  0.36777  1.0000
  H   H608      1.0  0.85020  0.15990  0.35654  1.0000
  H   H609      1.0  0.78775  0.13644  0.34967  1.0000
  H   H610      1.0  0.82716  0.13239  0.34400  1.0000
  H   H611      1.0  0.80123  0.21365  0.38002  1.0000
  H   H612      1.0  0.77562  0.20194  0.38089  1.0000
  H   H613      1.0  0.79410  0.19472  0.40139  1.0000
  C   C618      1.0  0.52149  0.07337  0.32182  1.0000
  H   H614      1.0  0.75787  0.16858  0.51640  1.0000
  H   H615      1.0  0.70664  0.24888  0.18279  1.0000
  H   H616      1.0  0.57763  0.14462  0.24287  1.0000
  C   C619      1.0  0.01440  0.24456  0.40362  1.0000
  C   C620      1.0  0.56045  0.14538  0.24182  1.0000
  N   N52       1.0  0.54867  0.16240  0.24923  1.0000
  H   H617      1.0  0.53860  0.07249  0.32368  1.0000
  H   H618      1.0  0.70427  0.08148  0.38601  1.0000
  H   H619      1.0  0.51758  0.17696  0.25361  1.0000
  C   C621      1.0  0.56972  0.25455  0.02862  1.0000
  H   H620      1.0  0.58306  0.25538  0.06734  1.0000
  C   C622      1.0  0.90707  0.23337  0.50203  1.0000
  H   H621      1.0  0.56393  0.24179  0.03929  1.0000
  H   H622      1.0  0.79125  0.12160  0.49754  1.0000
  C   C623      1.0  0.78368  0.02255  0.39360  1.0000
  H   H623      1.0  0.52012  0.25672  0.09789  1.0000
  C   C624      1.0  0.68999  0.24852  0.17773  1.0000
  C   C625      1.0  0.76901  0.01805  0.43614  1.0000
  H   H624      1.0  0.69009  0.24617  0.16030  1.0000
  H   H625      1.0  0.67313  0.02331  0.25622  1.0000
  C   C626      1.0  0.55957  0.17970  0.25830  1.0000
  S   S212      1.0  0.97151  0.24797  0.39629  1.0000
  H   H626      1.0  0.69348  0.07631  0.29430  1.0000
  H   H627      1.0  0.52494  0.25616  0.15553  1.0000
  C   C627      1.0  0.63059  0.25114  0.03850  1.0000
  H   H628      1.0  0.76948  0.05138  0.49667  1.0000
  C   C628      1.0  0.67786  0.08096  0.36538  1.0000
  C   C629      1.0  0.68036  0.08098  0.30582  1.0000
  H   H629      1.0  0.52295  0.08716  0.27205  1.0000
  N   N53       1.0  0.68709  0.08009  0.32786  1.0000
  H   H630      1.0  0.72028  0.08025  0.31900  1.0000
  C   C630      1.0  0.69943  0.08054  0.36974  1.0000
  C   C631      1.0  0.70828  0.07988  0.33197  1.0000
  H   H631      1.0  0.73154  0.08072  0.35618  1.0000
  C   C632      1.0  0.71477  0.08004  0.35297  1.0000
  H   H632      1.0  0.65513  0.08228  0.34082  1.0000
  C   C633      1.0  0.65596  0.02417  0.25852  1.0000
  S   S213      1.0  0.61839  0.24735  0.10597  1.0000
  H   H633      1.0  0.78960  0.02433  0.37718  1.0000
  H   H634      1.0  0.78464  0.08587  0.48591  1.0000
  C   C634      1.0  0.55052  0.12861  0.23312  1.0000
  H   H635      1.0  0.55991  0.11483  0.22797  1.0000
  H   H636      1.0  0.68264  0.23448  0.18611  1.0000
  H   H637      1.0  0.85586  0.22691  0.48956  1.0000
  C   C635      1.0  0.62353  0.24181  0.02034  1.0000
  H   H638      1.0  0.00738  0.26539  0.46058  1.0000
  S   S214      1.0  0.56163  0.26377  0.11131  1.0000
  H   H639      1.0  0.61520  0.22711  0.02213  1.0000
  C   C636      1.0  0.79999  0.11396  0.51106  1.0000
  C   C637      1.0  0.78414  0.08068  0.50265  1.0000
  C   C638      1.0  0.52181  0.10273  0.27859  1.0000
  C   C639      1.0  0.52841  0.12954  0.23164  1.0000
  H   H640      1.0  0.82521  0.03344  0.43427  1.0000
  C   C640      1.0  0.99147  0.25728  0.43265  1.0000
  H   H641      1.0  0.63105  0.02299  0.21737  1.0000
  C   C641      1.0  0.00945  0.25967  0.44463  1.0000
  Fe  Fe107     1.0  0.94036  0.25986  0.41180  1.0000
  S   S215      1.0  0.90872  0.26543  0.39612  1.0000
  H   H642      1.0  0.52042  0.11644  0.22536  1.0000
  H   H643      1.0  0.81710  0.11187  0.50609  1.0000
  H   H644      1.0  0.52157  0.04552  0.30336  1.0000
  C   C642      1.0  0.51846  0.14259  0.29599  1.0000
  H   H645      1.0  0.76351  0.01616  0.45268  1.0000
  N   N54       1.0  0.79122  0.09335  0.51768  1.0000
  H   H646      1.0  0.51695  0.22010  0.14496  1.0000
  H   H647      1.0  0.01637  0.23863  0.38776  1.0000
  H   H648      1.0  0.51716  0.15800  0.30288  1.0000
  C   C643      1.0  0.77457  0.05427  0.53020  1.0000
  C   C644      1.0  0.69660  0.16449  0.57866  1.0000
  H   H649      1.0  0.89378  0.24298  0.56363  1.0000
  S   S216      1.0  0.61736  0.23968  0.97753  1.0000
  C   C645      1.0  0.62865  0.02234  0.79352  1.0000
  S   S217      1.0  0.61847  0.24137  0.86436  1.0000
  H   H650      1.0  0.69750  0.18162  0.57708  1.0000
  H   H651      1.0  0.57089  0.02132  0.77491  1.0000
  Fe  Fe108     1.0  0.89845  0.24667  0.63227  1.0000
  S   S218      1.0  0.88748  0.21331  0.64131  1.0000
  H   H652      1.0  0.79608  0.09671  0.55076  1.0000
  H   H653      1.0  0.62565  0.05719  0.74276  1.0000
  Fe  Fe109     1.0  0.77469  0.10391  0.63652  1.0000
  S   S219      1.0  0.74158  0.10326  0.62517  1.0000
  S   S220      1.0  0.78799  0.07294  0.65113  1.0000
  Fe  Fe110     1.0  0.78017  0.15019  0.62162  1.0000
  S   S221      1.0  0.74715  0.15235  0.60868  1.0000
  S   S222      1.0  0.79746  0.18138  0.61563  1.0000
  Fe  Fe111     1.0  0.73641  0.13502  0.63932  1.0000
  S   S223      1.0  0.70363  0.14476  0.65371  1.0000
  Fe  Fe112     1.0  0.75506  0.12042  0.59578  1.0000
  S   S224      1.0  0.74603  0.10622  0.56523  1.0000
  S   S225      1.0  0.76879  0.13477  0.65319  1.0000
  S   S226      1.0  0.78871  0.11918  0.60621  1.0000
  Fe  Fe113     1.0  0.60794  0.13530  0.80371  1.0000
  S   S227      1.0  0.61498  0.15477  0.77352  1.0000
  S   S228      1.0  0.61236  0.14574  0.83740  1.0000
  Fe  Fe114     1.0  0.59530  0.09686  0.77923  1.0000
  S   S229      1.0  0.60117  0.11371  0.74732  1.0000
  S   S230      1.0  0.58043  0.06484  0.77867  1.0000
  Fe  Fe115     1.0  0.63094  0.12494  0.76088  1.0000
  S   S231      1.0  0.66505  0.12048  0.74730  1.0000
  Fe  Fe116     1.0  0.58457  0.14159  0.76282  1.0000
  S   S232      1.0  0.55882  0.16197  0.74720  1.0000
  S   S233      1.0  0.62600  0.10614  0.79210  1.0000
  S   S234      1.0  0.57657  0.12407  0.79374  1.0000
  H   H654      1.0  0.87915  0.26429  0.68478  1.0000
  C   C646      1.0  0.59576  0.04121  0.78374  1.0000
  C   C647      1.0  0.61655  0.04149  0.79071  1.0000
  H   H655      1.0  0.54887  0.07875  0.74454  1.0000
  H   H656      1.0  0.62336  0.05642  0.79379  1.0000
  H   H657      1.0  0.76770  0.03922  0.53523  1.0000
  C   C648      1.0  0.53473  0.15024  0.74225  1.0000
  C   C649      1.0  0.56110  0.24062  0.87718  1.0000
  H   H658      1.0  0.71608  0.17404  0.54012  1.0000
  H   H659      1.0  0.53881  0.15637  0.70834  1.0000
  C   C650      1.0  0.69308  0.13737  0.67965  1.0000
  C   C651      1.0  0.70539  0.12619  0.69476  1.0000
  C   C652      1.0  0.69650  0.12107  0.71533  1.0000
  C   C653      1.0  0.67519  0.12688  0.72097  1.0000
  C   C654      1.0  0.66281  0.13786  0.70578  1.0000
  C   C655      1.0  0.67176  0.14313  0.68527  1.0000
  H   H660      1.0  0.72183  0.12174  0.69071  1.0000
  H   H661      1.0  0.70624  0.11264  0.72697  1.0000
  H   H662      1.0  0.64642  0.14248  0.70989  1.0000
  H   H663      1.0  0.66211  0.15181  0.67371  1.0000
  C   C656      1.0  0.74745  0.12024  0.54032  1.0000
  H   H664      1.0  0.68801  0.17232  0.53535  1.0000
  C   C657      1.0  0.73178  0.01882  0.64361  1.0000
  C   C658      1.0  0.69506  0.12067  0.58330  1.0000
  H   H665      1.0  0.75737  0.14953  0.55214  1.0000
  C   C659      1.0  0.77567  0.05283  0.61606  1.0000
  C   C660      1.0  0.78493  0.05057  0.63589  1.0000
  C   C661      1.0  0.56474  0.26214  0.87271  1.0000
  H   H666      1.0  0.77138  0.06847  0.60942  1.0000
  H   H667      1.0  0.70069  0.12126  0.54937  1.0000
  C   C662      1.0  0.86323  0.20389  0.63260  1.0000
  C   C663      1.0  0.85695  0.18336  0.63930  1.0000
  C   C664      1.0  0.83708  0.17596  0.63394  1.0000
  C   C665      1.0  0.82326  0.18908  0.62184  1.0000
  C   C666      1.0  0.82971  0.20947  0.61489  1.0000
  C   C667      1.0  0.84956  0.21683  0.62017  1.0000
  H   H668      1.0  0.86741  0.17319  0.64888  1.0000
  H   H669      1.0  0.83238  0.16023  0.63937  1.0000
  H   H670      1.0  0.81915  0.21974  0.60552  1.0000
  H   H671      1.0  0.85411  0.23264  0.61490  1.0000
  H   H672      1.0  0.60137  0.03120  0.72968  1.0000
  N   N55       1.0  0.88371  0.23375  0.53348  1.0000
  C   C668      1.0  0.61764  0.02631  0.73311  1.0000
  H   H673      1.0  0.55908  0.24055  0.00045  1.0000
  C   C669      1.0  0.79069  0.08664  0.53875  1.0000
  C   C670      1.0  0.61564  0.21468  0.85762  1.0000
  C   C671      1.0  0.61281  0.21047  0.83617  1.0000
  C   C672      1.0  0.61105  0.18953  0.82985  1.0000
  C   C673      1.0  0.61233  0.17250  0.84491  1.0000
  C   C674      1.0  0.61496  0.17670  0.86639  1.0000
  C   C675      1.0  0.61649  0.19769  0.87276  1.0000
  H   H674      1.0  0.61208  0.22351  0.82434  1.0000
  H   H675      1.0  0.60909  0.18654  0.81327  1.0000
  H   H676      1.0  0.61600  0.16363  0.87817  1.0000
  H   H677      1.0  0.61870  0.20067  0.88931  1.0000
  C   C676      1.0  0.87413  0.24770  0.68811  1.0000
  H   H678      1.0  0.80021  0.23370  0.65410  1.0000
  C   C677      1.0  0.75331  0.14139  0.53821  1.0000
  H   H679      1.0  0.53721  0.21740  0.88387  1.0000
  C   C678      1.0  0.70265  0.16313  0.53998  1.0000
  N   N56       1.0  0.66503  0.14728  0.81902  1.0000
  C   C679      1.0  0.66206  0.16715  0.82669  1.0000
  C   C680      1.0  0.66894  0.14479  0.79766  1.0000
  C   C681      1.0  0.66217  0.18516  0.81276  1.0000
  C   C682      1.0  0.66930  0.16246  0.78329  1.0000
  C   C683      1.0  0.66570  0.18274  0.79091  1.0000
  C   C684      1.0  0.66479  0.12850  0.83375  1.0000
  H   H680      1.0  0.65889  0.16917  0.84362  1.0000
  H   H681      1.0  0.67153  0.12906  0.79156  1.0000
  H   H682      1.0  0.65907  0.20082  0.81892  1.0000
  H   H683      1.0  0.67203  0.16034  0.76631  1.0000
  H   H684      1.0  0.66551  0.19653  0.77987  1.0000
  H   H685      1.0  0.65648  0.13209  0.84927  1.0000
  H   H686      1.0  0.65576  0.11577  0.82712  1.0000
  H   H687      1.0  0.68131  0.12256  0.83659  1.0000
  C   C685      1.0  0.88045  0.23505  0.55666  1.0000
  C   C686      1.0  0.73883  0.04992  0.66257  1.0000
  H   H688      1.0  0.01459  0.22317  0.63736  1.0000
  H   H689      1.0  0.52550  0.14324  0.77527  1.0000
  C   C687      1.0  0.90378  0.23486  0.52411  1.0000
  C   C688      1.0  0.54023  0.23399  0.88001  1.0000
  H   H690      1.0  0.79826  0.12518  0.52418  1.0000
  C   C689      1.0  0.86664  0.23072  0.52140  1.0000
  C   C690      1.0  0.82176  0.25745  0.66245  1.0000
  H   H691      1.0  0.57446  0.22924  0.87859  1.0000
  H   H692      1.0  0.73755  0.09348  0.52378  1.0000
  H   H693      1.0  0.82247  0.20365  0.66882  1.0000
  H   H694      1.0  0.79792  0.02831  0.65946  1.0000
  C   C691      1.0  0.69241  0.13275  0.60128  1.0000
  S   S235      1.0  0.64488  0.25666  0.92025  1.0000
  C   C692      1.0  0.99428  0.24976  0.62681  1.0000
  N   N57       1.0  0.69920  0.15251  0.56109  1.0000
  H   H695      1.0  0.72464  0.05104  0.63200  1.0000
  C   C693      1.0  0.69826  0.13087  0.56318  1.0000
  H   H696      1.0  0.85701  0.21046  0.68396  1.0000
  H   H697      1.0  0.53455  0.10212  0.73371  1.0000
  H   H698      1.0  0.91732  0.23745  0.53362  1.0000
  C   C694      1.0  0.82742  0.21983  0.66987  1.0000
  H   H699      1.0  0.97961  0.24234  0.63213  1.0000
  C   C695      1.0  0.84116  0.26088  0.67153  1.0000
  C   C696      1.0  0.69307  0.15481  0.59898  1.0000
  N   N58       1.0  0.85361  0.24410  0.67903  1.0000
  C   C697      1.0  0.52066  0.14333  0.75897  1.0000
  C   C698      1.0  0.81493  0.23675  0.66156  1.0000
  C   C699      1.0  0.58703  0.02170  0.78005  1.0000
  C   C700      1.0  0.53948  0.09341  0.74861  1.0000
  C   C701      1.0  0.01410  0.23896  0.62979  1.0000
  C   C702      1.0  0.77162  0.03480  0.60491  1.0000
  C   C703      1.0  0.74772  0.03681  0.67861  1.0000
  H   H700      1.0  0.66217  0.04529  0.75255  1.0000
  H   H701      1.0  0.87912  0.21892  0.56441  1.0000
  H   H702      1.0  0.86579  0.24478  0.56070  1.0000
  S   S236      1.0  0.91721  0.25549  0.60191  1.0000
  S   S237      1.0  0.59285  0.25446  0.92245  1.0000
  H   H703      1.0  0.76406  0.03666  0.58979  1.0000
  H   H704      1.0  0.70691  0.15162  0.52746  1.0000
  N   N59       1.0  0.52107  0.08797  0.76275  1.0000
  H   H705      1.0  0.69527  0.10347  0.58496  1.0000
  H   H706      1.0  0.53967  0.08392  0.79030  1.0000
  C   C704      1.0  0.84690  0.22380  0.67848  1.0000
  Fe  Fe117     1.0  0.61851  0.25819  0.94570  1.0000
  C   C705      1.0  0.62719  0.25137  0.99989  1.0000
  C   C706      1.0  0.63127  0.04091  0.74050  1.0000
  C   C707      1.0  0.52396  0.08330  0.78394  1.0000
  H   H707      1.0  0.85078  0.22962  0.52886  1.0000
  H   H708      1.0  0.88679  0.23704  0.68100  1.0000
  H   H709      1.0  0.87304  0.24455  0.70566  1.0000
  H   H710      1.0  0.73907  0.06707  0.66336  1.0000
  H   H711      1.0  0.69139  0.16426  0.61299  1.0000
  H   H712      1.0  0.78128  0.06220  0.56217  1.0000
  C   C708      1.0  0.73076  0.04092  0.64495  1.0000
  C   C709      1.0  0.74220  0.10982  0.52220  1.0000
  C   C710      1.0  0.79060  0.03014  0.64420  1.0000
  H   H713      1.0  0.55006  0.10395  0.75658  1.0000
  H   H714      1.0  0.64477  0.02264  0.79876  1.0000
  Fe  Fe118     1.0  0.61893  0.25636  0.89676  1.0000
  C   C711      1.0  0.52817  0.15077  0.72128  1.0000
  S   S238      1.0  0.91904  0.26501  0.65291  1.0000
  C   C712      1.0  0.56673  0.25385  0.00673  1.0000
  H   H715      1.0  0.69021  0.12503  0.61702  1.0000
  C   C713      1.0  0.65178  0.03420  0.74603  1.0000
  H   H716      1.0  0.75482  0.04380  0.69188  1.0000
  C   C714      1.0  0.78227  0.06709  0.54534  1.0000
  C   C715      1.0  0.52328  0.24885  0.87808  1.0000
  H   H717      1.0  0.54972  0.26551  0.93068  1.0000
  H   H718      1.0  0.51690  0.19808  0.73591  1.0000
  Fe  Fe119     1.0  0.76274  0.42689  0.09680  1.0000
  S   S239      1.0  0.73364  0.42552  0.11907  1.0000
  S   S240      1.0  0.75840  0.43855  0.06247  1.0000
  Fe  Fe120     1.0  0.79339  0.41580  0.13314  1.0000
  S   S241      1.0  0.76640  0.41284  0.15754  1.0000
  S   S242      1.0  0.82851  0.41505  0.14080  1.0000
  Fe  Fe121     1.0  0.74964  0.39567  0.13284  1.0000
  S   S243      1.0  0.73592  0.36265  0.13702  1.0000
  Fe  Fe122     1.0  0.75314  0.44293  0.14136  1.0000
  S   S244      1.0  0.74532  0.47097  0.16200  1.0000
  S   S245      1.0  0.77801  0.39639  0.10932  1.0000
  S   S246      1.0  0.78085  0.44653  0.11807  1.0000
  S   S247      1.0  0.61265  0.29935  0.10251  1.0000
  C   C716      1.0  0.96777  0.47557  0.28416  1.0000
  N   N60       1.0  0.91030  0.33750  0.46701  1.0000
  C   C717      1.0  0.89761  0.28525  0.50681  1.0000
  Fe  Fe123     1.0  0.63141  0.29935  0.13209  1.0000
  S   S248      1.0  0.64057  0.33116  0.14392  1.0000
  Fe  Fe124     1.0  0.89084  0.41671  0.25044  1.0000
  S   S249      1.0  0.88604  0.41754  0.28621  1.0000
  S   S250      1.0  0.85979  0.40810  0.23617  1.0000
  Fe  Fe125     1.0  0.93840  0.42609  0.25288  1.0000
  S   S251      1.0  0.93623  0.42732  0.28845  1.0000
  S   S252      1.0  0.97022  0.43167  0.23524  1.0000
  Fe  Fe126     1.0  0.91682  0.39833  0.28797  1.0000
  S   S253      1.0  0.92550  0.36637  0.30442  1.0000
  Fe  Fe127     1.0  0.90602  0.44648  0.28286  1.0000
  S   S254      1.0  0.89891  0.47674  0.30017  1.0000
  S   S255      1.0  0.92070  0.39593  0.25238  1.0000
  S   S256      1.0  0.90892  0.44686  0.24716  1.0000
  Fe  Fe128     1.0  0.90834  0.29736  0.41067  1.0000
  S   S257      1.0  0.89737  0.33011  0.39757  1.0000
  Fe  Fe129     1.0  0.92424  0.27827  0.45320  1.0000
  S   S258      1.0  0.93665  0.28629  0.48476  1.0000
  S   S259      1.0  0.94073  0.29254  0.42384  1.0000
  S   S260      1.0  0.89180  0.28567  0.44130  1.0000
  H   H719      1.0  0.99176  0.50146  0.24199  1.0000
  H   H720      1.0  0.79332  0.44955  0.22930  1.0000
  C   C718      1.0  0.89646  0.33591  0.50337  1.0000
  C   C719      1.0  0.01360  0.43256  0.23953  1.0000
  H   H721      1.0  0.84767  0.46000  0.15218  1.0000
  C   C720      1.0  0.91838  0.35724  0.33083  1.0000
  C   C721      1.0  0.90596  0.36968  0.34487  1.0000
  C   C722      1.0  0.89976  0.36122  0.36533  1.0000
  C   C723      1.0  0.90599  0.34034  0.37196  1.0000
  C   C724      1.0  0.91853  0.32799  0.35796  1.0000
  C   C725      1.0  0.92465  0.33641  0.33750  1.0000
  H   H722      1.0  0.90098  0.38572  0.33990  1.0000
  H   H723      1.0  0.89006  0.37089  0.37606  1.0000
  H   H724      1.0  0.92338  0.31189  0.36284  1.0000
  H   H725      1.0  0.93420  0.32664  0.32673  1.0000
  C   C726      1.0  0.90880  0.50067  0.28840  1.0000
  H   H726      1.0  0.62755  0.28609  0.19491  1.0000
  Fe  Fe130     1.0  0.63685  0.27464  0.09181  1.0000
  H   H727      1.0  0.92438  0.48631  0.26117  1.0000
  H   H728      1.0  0.88739  0.33768  0.44296  1.0000
  H   H729      1.0  0.59860  0.27827  0.06253  1.0000
  C   C727      1.0  0.99364  0.42879  0.24975  1.0000
  C   C728      1.0  0.99269  0.42203  0.27125  1.0000
  H   H730      1.0  0.75485  0.51106  0.17867  1.0000
  H   H731      1.0  0.97771  0.41839  0.27920  1.0000
  C   C729      1.0  0.95671  0.50002  0.31122  1.0000
  N   N61       1.0  0.97753  0.49150  0.27237  1.0000
  H   H732      1.0  0.82252  0.46241  0.14036  1.0000
  C   C730      1.0  0.58741  0.28702  0.02298  1.0000
  S   S261      1.0  0.65651  0.27597  0.12063  1.0000
  H   H733      1.0  0.54935  0.30120  0.13580  1.0000
  C   C731      1.0  0.85605  0.37291  0.28850  1.0000
  C   C732      1.0  0.70917  0.35469  0.13874  1.0000
  C   C733      1.0  0.70519  0.33347  0.13503  1.0000
  C   C734      1.0  0.68429  0.32623  0.13614  1.0000
  C   C735      1.0  0.66708  0.33997  0.14156  1.0000
  C   C736      1.0  0.67104  0.36118  0.14545  1.0000
  C   C737      1.0  0.69197  0.36861  0.14379  1.0000
  H   H734      1.0  0.71840  0.32259  0.13115  1.0000
  H   H735      1.0  0.68158  0.30989  0.13318  1.0000
  H   H736      1.0  0.65786  0.37195  0.14974  1.0000
  H   H737      1.0  0.69482  0.38495  0.14685  1.0000
  C   C738      1.0  0.83727  0.41238  0.16729  1.0000
  C   C739      1.0  0.82340  0.40679  0.18453  1.0000
  C   C740      1.0  0.83076  0.40516  0.20539  1.0000
  C   C741      1.0  0.85192  0.40953  0.20937  1.0000
  C   C742      1.0  0.86583  0.41517  0.19215  1.0000
  C   C743      1.0  0.85856  0.41640  0.17120  1.0000
  H   H738      1.0  0.80704  0.40353  0.18179  1.0000
  H   H739      1.0  0.81988  0.40073  0.21857  1.0000
  H   H740      1.0  0.88219  0.41846  0.19496  1.0000
  H   H741      1.0  0.86946  0.42059  0.15795  1.0000
  H   H742      1.0  0.84997  0.46259  0.19096  1.0000
  C   C744      1.0  0.74577  0.49698  0.15006  1.0000
  C   C745      1.0  0.00456  0.29118  0.37986  1.0000
  H   H743      1.0  0.68436  0.32118  0.18311  1.0000
  C   C746      1.0  0.98817  0.48678  0.25177  1.0000
  C   C747      1.0  0.76100  0.42333  0.03960  1.0000
  C   C748      1.0  0.83284  0.46097  0.19220  1.0000
  C   C749      1.0  0.97756  0.51152  0.27982  1.0000
  C   C750      1.0  0.68789  0.28712  0.18085  1.0000
  C   C751      1.0  0.92138  0.50080  0.26941  1.0000
  C   C752      1.0  0.77000  0.40264  0.03993  1.0000
  H   H744      1.0  0.87232  0.33610  0.33640  1.0000
  C   C753      1.0  0.84600  0.37577  0.30857  1.0000
  C   C754      1.0  0.85181  0.36244  0.32591  1.0000
  H   H745      1.0  0.93551  0.35482  0.45202  1.0000
  H   H746      1.0  0.00895  0.38284  0.22440  1.0000
  H   H747      1.0  0.88998  0.33207  0.30076  1.0000
  N   N62       1.0  0.87177  0.35748  0.28591  1.0000
  H   H748      1.0  0.87657  0.34054  0.25767  1.0000
  H   H749      1.0  0.82984  0.44113  0.04902  1.0000
  C   C755      1.0  0.87580  0.33528  0.49633  1.0000
  H   H750      1.0  0.99613  0.36188  0.30062  1.0000
  H   H751      1.0  0.78127  0.37646  0.02088  1.0000
  C   C756      1.0  0.87253  0.33596  0.47447  1.0000
  N   N63       1.0  0.80675  0.44567  0.02546  1.0000
  H   H752      1.0  0.85657  0.33524  0.46878  1.0000
  H   H753      1.0  0.94100  0.32651  0.45596  1.0000
  C   C757      1.0  0.75057  0.51408  0.16229  1.0000
  S   S262      1.0  0.65099  0.28215  0.05855  1.0000
  H   H754      1.0  0.77210  0.45399  0.19673  1.0000
  C   C758      1.0  0.01574  0.29775  0.39692  1.0000
  C   C759      1.0  0.64459  0.28648  0.19135  1.0000
  H   H755      1.0  0.79020  0.46252  0.16187  1.0000
  H   H756      1.0  0.83253  0.45397  0.22623  1.0000
  H   H757      1.0  0.01451  0.43779  0.22285  1.0000
  H   H758      1.0  0.83398  0.38843  0.31065  1.0000
  H   H759      1.0  0.87957  0.36875  0.25383  1.0000
  H   H760      1.0  0.96767  0.45981  0.27812  1.0000
  H   H761      1.0  0.94848  0.46719  0.31252  1.0000
  C   C760      1.0  0.75540  0.43320  0.02010  1.0000
  C   C761      1.0  0.74026  0.50103  0.12891  1.0000
  C   C762      1.0  0.88246  0.35472  0.26492  1.0000
  C   C763      1.0  0.86739  0.34634  0.32296  1.0000
  H   H762      1.0  0.84445  0.36467  0.34165  1.0000
  C   C764      1.0  0.53718  0.27780  0.11630  1.0000
  C   C765      1.0  0.78921  0.45592  0.19570  1.0000
  C   C766      1.0  0.77390  0.39226  0.02064  1.0000
  C   C767      1.0  0.92862  0.33893  0.45177  1.0000
  H   H763      1.0  0.00731  0.27853  0.34864  1.0000
  H   H764      1.0  0.59585  0.29985  0.02917  1.0000
  C   C768      1.0  0.64159  0.26999  0.03627  1.0000
  H   H765      1.0  0.90000  0.35281  0.26648  1.0000
  C   C769      1.0  0.53529  0.29523  0.12927  1.0000
  H   H766      1.0  0.98732  0.29035  0.38121  1.0000
  H   H767      1.0  0.83315  0.48554  0.15134  1.0000
  C   C770      1.0  0.87730  0.34411  0.30274  1.0000
  H   H768      1.0  0.89057  0.28407  0.49156  1.0000
  C   C771      1.0  0.82303  0.45621  0.21223  1.0000
  H   H769      1.0  0.73643  0.48803  0.11937  1.0000
  C   C772      1.0  0.67650  0.30615  0.18477  1.0000
  H   H770      1.0  0.77447  0.39489  0.05490  1.0000
  H   H771      1.0  0.92411  0.33646  0.43518  1.0000
  H   H772      1.0  0.85148  0.38340  0.27512  1.0000
  N   N64       1.0  0.69926  0.35812  0.08589  1.0000
  C   C773      1.0  0.67896  0.36519  0.09139  1.0000
  C   C774      1.0  0.70305  0.33787  0.07939  1.0000
  C   C775      1.0  0.66188  0.35171  0.09092  1.0000
  C   C776      1.0  0.68631  0.32399  0.07865  1.0000
  C   C777      1.0  0.66564  0.33099  0.08453  1.0000
  C   C778      1.0  0.71691  0.37260  0.08611  1.0000
  H   H773      1.0  0.67595  0.38114  0.09679  1.0000
  H   H774      1.0  0.71913  0.33226  0.07504  1.0000
  H   H775      1.0  0.64592  0.35702  0.09618  1.0000
  H   H776      1.0  0.68924  0.30781  0.07377  1.0000
  H   H777      1.0  0.65261  0.32027  0.08438  1.0000
  H   H778      1.0  0.73204  0.36382  0.09007  1.0000
  H   H779      1.0  0.71909  0.38125  0.07038  1.0000
  H   H780      1.0  0.71396  0.38435  0.09866  1.0000
  N   N65       1.0  0.82112  0.46285  0.17435  1.0000
  H   H781      1.0  0.80344  0.44867  0.05932  1.0000
  C   C779      1.0  0.79954  0.46071  0.17594  1.0000
  C   C780      1.0  0.95713  0.47959  0.30370  1.0000
  C   C781      1.0  0.80108  0.45357  0.21393  1.0000
  N   N66       1.0  0.58021  0.27086  0.03642  1.0000
  C   C782      1.0  0.83165  0.46811  0.15355  1.0000
  H   H782      1.0  0.80870  0.42235  0.05104  1.0000
  H   H783      1.0  0.97201  0.37981  0.23918  1.0000
  C   C783      1.0  0.89006  0.33725  0.45993  1.0000
  H   H784      1.0  0.92973  0.33646  0.49399  1.0000
  C   C784      1.0  0.96712  0.51608  0.29933  1.0000
  H   H785      1.0  0.96542  0.36904  0.27750  1.0000
  S   S263      1.0  0.61125  0.27454  0.14980  1.0000
  C   C785      1.0  0.98162  0.37006  0.27079  1.0000
  C   C786      1.0  0.51881  0.27018  0.10795  1.0000
  C   C787      1.0  0.91974  0.28604  0.50787  1.0000
  C   C788      1.0  0.91364  0.33689  0.48840  1.0000
  H   H786      1.0  0.64552  0.32056  0.19209  1.0000
  C   C789      1.0  0.01582  0.28444  0.36160  1.0000
  H   H787      1.0  0.79116  0.47479  0.03438  1.0000
  H   H788      1.0  0.00687  0.30204  0.41141  1.0000
  C   C790      1.0  0.65469  0.30579  0.18991  1.0000
  H   H789      1.0  0.70470  0.28763  0.17618  1.0000
  H   H790      1.0  0.97773  0.47735  0.24235  1.0000
  H   H791      1.0  0.56997  0.28133  0.06696  1.0000
  C   C791      1.0  0.81256  0.43920  0.04724  1.0000
  C   C792      1.0  0.00628  0.37777  0.24103  1.0000
  C   C793      1.0  0.58306  0.27153  0.05939  1.0000
  H   H792      1.0  0.00326  0.47739  0.25437  1.0000
  C   C794      1.0  0.98531  0.37595  0.24927  1.0000
  C   C795      1.0  0.01135  0.41879  0.28243  1.0000
  Fe  Fe131     1.0  0.59513  0.27231  0.11866  1.0000
  H   H793      1.0  0.94768  0.50356  0.32586  1.0000
  H   H794      1.0  0.01037  0.41309  0.29897  1.0000
  C   C796      1.0  0.99887  0.36605  0.28378  1.0000
  H   H795      1.0  0.86243  0.33385  0.50783  1.0000
  H   H796      1.0  0.74854  0.44923  0.01968  1.0000
  N   N67       1.0  0.67791  0.26820  0.18256  1.0000
  C   C797      1.0  0.65650  0.26772  0.18757  1.0000
  C   C798      1.0  0.79616  0.46474  0.02141  1.0000
  Fe  Fe132     1.0  0.72970  0.41605  0.91693  1.0000
  S   S264      1.0  0.75864  0.39419  0.91558  1.0000
  S   S265      1.0  0.69666  0.40566  0.91010  1.0000
  Fe  Fe133     1.0  0.75527  0.45361  0.93060  1.0000
  S   S266      1.0  0.78599  0.43407  0.92969  1.0000
  S   S267      1.0  0.75769  0.48520  0.94576  1.0000
  Fe  Fe134     1.0  0.77516  0.42196  0.89901  1.0000
  S   S268      1.0  0.79061  0.42214  0.86533  1.0000
  Fe  Fe135     1.0  0.76631  0.40867  0.94637  1.0000
  S   S269      1.0  0.77529  0.39009  0.97674  1.0000
  S   S270      1.0  0.74549  0.44339  0.89896  1.0000
  S   S271      1.0  0.73618  0.42865  0.94852  1.0000
  Fe  Fe136     1.0  0.64070  0.29239  0.91825  1.0000
  S   S272      1.0  0.67261  0.30853  0.91772  1.0000
  H   H797      1.0  0.88058  0.48080  0.80549  1.0000
  C   C799      1.0  0.72842  0.35363  0.97593  1.0000
  S   S273      1.0  0.61571  0.29370  0.94510  1.0000
  S   S274      1.0  0.61647  0.29213  0.89307  1.0000
  Fe  Fe137     1.0  0.91514  0.40261  0.75148  1.0000
  S   S275      1.0  0.93085  0.39705  0.78293  1.0000
  S   S276      1.0  0.92495  0.38202  0.72341  1.0000
  Fe  Fe138     1.0  0.89871  0.44749  0.76309  1.0000
  S   S277      1.0  0.91345  0.44505  0.79479  1.0000
  S   S278      1.0  0.87977  0.47747  0.75363  1.0000
  Fe  Fe139     1.0  0.94203  0.43027  0.77762  1.0000
  S   S279      1.0  0.97457  0.44401  0.77906  1.0000
  Fe  Fe140     1.0  0.90055  0.41233  0.79744  1.0000
  S   S280      1.0  0.88574  0.40164  0.82987  1.0000
  S   S281      1.0  0.92803  0.43525  0.74556  1.0000
  S   S282      1.0  0.88399  0.41541  0.76634  1.0000
  Fe  Fe141     1.0  0.89557  0.29233  0.64720  1.0000
  S   S283      1.0  0.87993  0.31086  0.67457  1.0000
  H   H798      1.0  0.97588  0.36536  0.74682  1.0000
  H   H799      1.0  0.64129  0.27761  0.98202  1.0000
  C   C800      1.0  0.91542  0.50135  0.75537  1.0000
  S   S284      1.0  0.91277  0.30498  0.61737  1.0000
  C   C801      1.0  0.83743  0.47372  0.83658  1.0000
  H   H800      1.0  0.75594  0.43135  0.98612  1.0000
  C   C802      1.0  0.89358  0.28818  0.54537  1.0000
  Fe  Fe142     1.0  0.93536  0.27649  0.62197  1.0000
  C   C803      1.0  0.91570  0.28840  0.54643  1.0000
  C   C804      1.0  0.91245  0.36122  0.71129  1.0000
  C   C805      1.0  0.89160  0.35553  0.71695  1.0000
  C   C806      1.0  0.88190  0.34002  0.70564  1.0000
  C   C807      1.0  0.89296  0.32994  0.68868  1.0000
  C   C808      1.0  0.91389  0.33549  0.68320  1.0000
  C   C809      1.0  0.92355  0.35101  0.69446  1.0000
  H   H801      1.0  0.88288  0.36317  0.72991  1.0000
  H   H802      1.0  0.86574  0.33577  0.71008  1.0000
  H   H803      1.0  0.92261  0.32787  0.67022  1.0000
  H   H804      1.0  0.93969  0.35526  0.68991  1.0000
  C   C810      1.0  0.89322  0.50149  0.75466  1.0000
  H   H805      1.0  0.69121  0.30650  0.96031  1.0000
  H   H806      1.0  0.56760  0.30336  0.87281  1.0000
  N   N68       1.0  0.69512  0.33768  0.97057  1.0000
  H   H807      1.0  0.66698  0.32191  0.96306  1.0000
  H   H808      1.0  0.88784  0.45375  0.83556  1.0000
  C   C811      1.0  0.99846  0.42952  0.78454  1.0000
  C   C812      1.0  0.99884  0.40806  0.79139  1.0000
  H   H809      1.0  0.66916  0.35899  0.96242  1.0000
  H   H810      1.0  0.98404  0.39997  0.79408  1.0000
  C   C813      1.0  0.69753  0.37564  0.96705  1.0000
  H   H811      1.0  0.81143  0.42798  0.97539  1.0000
  Fe  Fe143     1.0  0.89369  0.28307  0.59947  1.0000
  C   C814      1.0  0.86972  0.43596  0.71701  1.0000
  N   N69       1.0  0.89380  0.41193  0.68801  1.0000
  C   C815      1.0  0.81702  0.41565  0.85583  1.0000
  C   C816      1.0  0.83226  0.40593  0.86900  1.0000
  C   C817      1.0  0.85310  0.40136  0.86067  1.0000
  C   C818      1.0  0.85900  0.40669  0.83923  1.0000
  C   C819      1.0  0.84373  0.41638  0.82607  1.0000
  C   C820      1.0  0.82283  0.42067  0.83431  1.0000
  H   H812      1.0  0.82801  0.40186  0.88554  1.0000
  H   H813      1.0  0.86480  0.39380  0.87095  1.0000
  H   H814      1.0  0.84800  0.42046  0.80954  1.0000
  H   H815      1.0  0.81113  0.42811  0.82397  1.0000
  C   C821      1.0  0.68993  0.37868  0.91294  1.0000
  C   C822      1.0  0.70541  0.36254  0.91664  1.0000
  C   C823      1.0  0.69975  0.34117  0.91790  1.0000
  C   C824      1.0  0.67854  0.33570  0.91581  1.0000
  C   C825      1.0  0.66297  0.35182  0.91240  1.0000
  C   C826      1.0  0.66870  0.37323  0.91083  1.0000
  H   H816      1.0  0.72179  0.36646  0.91827  1.0000
  H   H817      1.0  0.71189  0.32878  0.92054  1.0000
  H   H818      1.0  0.64659  0.34779  0.91075  1.0000
  H   H819      1.0  0.65662  0.38562  0.90792  1.0000
  C   C827      1.0  0.53600  0.29612  0.92127  1.0000
  C   C828      1.0  0.76882  0.40251  0.00102  1.0000
  H   H820      1.0  0.92293  0.39686  0.67749  1.0000
  H   H821      1.0  0.89452  0.45849  0.71255  1.0000
  H   H822      1.0  0.81460  0.47079  0.86335  1.0000
  C   C829      1.0  0.80755  0.43866  0.98815  1.0000
  N   N70       1.0  0.85782  0.46917  0.82904  1.0000
  S   S285      1.0  0.96970  0.28593  0.61562  1.0000
  C   C830      1.0  0.88887  0.44339  0.70802  1.0000
  H   H823      1.0  0.94583  0.28819  0.52859  1.0000
  N   N71       1.0  0.72855  0.39069  0.86057  1.0000
  C   C831      1.0  0.74754  0.37940  0.86203  1.0000
  C   C832      1.0  0.70971  0.38052  0.86237  1.0000
  C   C833      1.0  0.74793  0.35733  0.86570  1.0000
  C   C834      1.0  0.70952  0.35844  0.86578  1.0000
  C   C835      1.0  0.72877  0.34683  0.86759  1.0000
  C   C836      1.0  0.72815  0.41379  0.85659  1.0000
  H   H824      1.0  0.76252  0.38744  0.86058  1.0000
  H   H825      1.0  0.69465  0.38955  0.86177  1.0000
  H   H826      1.0  0.76300  0.34850  0.86717  1.0000
  H   H827      1.0  0.69451  0.35049  0.86779  1.0000
  H   H828      1.0  0.72876  0.32975  0.87076  1.0000
  H   H829      1.0  0.74421  0.42035  0.85763  1.0000
  H   H830      1.0  0.72245  0.41801  0.84042  1.0000
  H   H831      1.0  0.71733  0.42157  0.86864  1.0000
  C   C837      1.0  0.83094  0.46771  0.85756  1.0000
  H   H832      1.0  0.86048  0.44530  0.72851  1.0000
  H   H833      1.0  0.99924  0.30319  0.65252  1.0000
  C   C838      1.0  0.98748  0.37760  0.74406  1.0000
  C   C839      1.0  0.84541  0.45692  0.87078  1.0000
  H   H834      1.0  0.85356  0.48737  0.79962  1.0000
  H   H835      1.0  0.92279  0.28967  0.56166  1.0000
  S   S286      1.0  0.56043  0.30923  0.91925  1.0000
  C   C840      1.0  0.86419  0.47471  0.80678  1.0000
  C   C841      1.0  0.87506  0.40446  0.69683  1.0000
  C   C842      1.0  0.92871  0.28756  0.52769  1.0000
  C   C843      1.0  0.53538  0.27438  0.92653  1.0000
  H   H836      1.0  0.53977  0.30957  0.87414  1.0000
  C   C844      1.0  0.74298  0.51301  0.91359  1.0000
  C   C845      1.0  0.98056  0.39853  0.73951  1.0000
  C   C846      1.0  0.01478  0.29847  0.65845  1.0000
  C   C847      1.0  0.55222  0.29911  0.86641  1.0000
  H   H837      1.0  0.84036  0.45159  0.88685  1.0000
  C   C848      1.0  0.75939  0.42294  0.00096  1.0000
  C   C849      1.0  0.63816  0.27026  0.99770  1.0000
  C   C850      1.0  0.86280  0.41631  0.71154  1.0000
  C   C851      1.0  0.68267  0.31855  0.97026  1.0000
  H   H838      1.0  0.86961  0.38917  0.69272  1.0000
  C   C852      1.0  0.71899  0.37370  0.97183  1.0000
  C   C853      1.0  0.01272  0.27972  0.61049  1.0000
  C   C854      1.0  0.86608  0.45215  0.86288  1.0000
  H   H839      1.0  0.86384  0.46046  0.79712  1.0000
  C   C855      1.0  0.71617  0.33566  0.97525  1.0000
  C   C856      1.0  0.68571  0.35735  0.96660  1.0000
  H   H840      1.0  0.72362  0.32006  0.97835  1.0000
  H   H841      1.0  0.84815  0.41020  0.71878  1.0000
  H   H842      1.0  0.92455  0.48643  0.75573  1.0000
  H   H843      1.0  0.73656  0.49945  0.90663  1.0000
  H   H844      1.0  0.96366  0.40257  0.73892  1.0000
  H   H845      1.0  0.69024  0.39118  0.96317  1.0000
  H   H846      1.0  0.89976  0.38390  0.67028  1.0000
  H   H847      1.0  0.82595  0.48172  0.82630  1.0000
  C   C857      1.0  0.75483  0.51011  0.93188  1.0000
  C   C858      1.0  0.88453  0.28655  0.52554  1.0000
  H   H848      1.0  0.67988  0.31162  0.98670  1.0000
  H   H849      1.0  0.72839  0.38770  0.97223  1.0000
  C   C859      1.0  0.90637  0.39974  0.67223  1.0000
  H   H850      1.0  0.87722  0.44297  0.87269  1.0000
  S   S287      1.0  0.87702  0.28998  0.56860  1.0000
  H   H851      1.0  0.74519  0.35210  0.97946  1.0000
  H   H852      1.0  0.90675  0.40852  0.65647  1.0000
  C   C860      1.0  0.90084  0.43104  0.69354  1.0000
  Fe  Fe144     1.0  0.59175  0.28999  0.92016  1.0000
  H   H853      1.0  0.91589  0.43675  0.68687  1.0000
  C   C861      1.0  0.87200  0.45829  0.84180  1.0000
  H   H854      1.0  0.86740  0.28626  0.52470  1.0000
  H   H855      1.0  0.55273  0.30248  0.84890  1.0000
  H   H856      1.0  0.71334  0.50341  0.96734  1.0000
  H   H857      1.0  0.59071  0.29942  0.99031  1.0000
  C   C862      1.0  0.99545  0.41427  0.73612  1.0000
  H   H858      1.0  0.89925  0.33470  0.52033  1.0000
  N   N72       1.0  0.54805  0.27668  0.87134  1.0000
  H   H859      1.0  0.99013  0.43072  0.73336  1.0000
  H   H860      1.0  0.01461  0.35643  0.74903  1.0000
  H   H861      1.0  0.84645  0.27702  0.67203  1.0000
  H   H862      1.0  0.82045  0.41738  0.01241  1.0000
  S   S288      1.0  0.87401  0.27312  0.62871  1.0000
  C   C863      1.0  0.79677  0.45806  0.98387  1.0000
  C   C864      1.0  0.99359  0.27036  0.61747  1.0000
  C   C865      1.0  0.58452  0.28691  0.00103  1.0000
  H   H863      1.0  0.78219  0.48608  0.99736  1.0000
  H   H864      1.0  0.79248  0.46275  0.96773  1.0000
  C   C866      1.0  0.52751  0.27025  0.87362  1.0000
  C   C867      1.0  0.00933  0.37270  0.74529  1.0000
  C   C868      1.0  0.79099  0.47120  0.00057  1.0000
  C   C869      1.0  0.57418  0.27016  0.99289  1.0000
  H   H865      1.0  0.65397  0.29398  0.01401  1.0000
  H   H866      1.0  0.01230  0.29561  0.60314  1.0000
  H   H867      1.0  0.51723  0.32433  0.91255  1.0000
  H   H868      1.0  0.58101  0.26718  0.87058  1.0000
  C   C870      1.0  0.64541  0.27946  0.01582  1.0000
  H   H869      1.0  0.81227  0.27072  0.65588  1.0000
  H   H870      1.0  0.57246  0.26953  0.97582  1.0000
  C   C871      1.0  0.81249  0.43270  0.00916  1.0000
  C   C872      1.0  0.51695  0.30745  0.91646  1.0000
  H   H871      1.0  0.00607  0.26650  0.66667  1.0000
  H   H872      1.0  0.72884  0.68008  0.07864  1.0000
  C   C873      1.0  0.00601  0.67208  0.22483  1.0000
  Fe  Fe145     1.0  0.63065  0.74454  0.13015  1.0000
  S   S289      1.0  0.64220  0.71021  0.12591  1.0000
  C   C874      1.0  0.73859  0.52206  0.12040  1.0000
  H   H873      1.0  0.87332  0.64137  0.36200  1.0000
  Fe  Fe146     1.0  0.75232  0.59540  0.13272  1.0000
  S   S290      1.0  0.78434  0.60507  0.11930  1.0000
  S   S291      1.0  0.73838  0.56535  0.12191  1.0000
  Fe  Fe147     1.0  0.74301  0.63835  0.15229  1.0000
  S   S292      1.0  0.77472  0.65080  0.14075  1.0000
  S   S293      1.0  0.72003  0.66068  0.17011  1.0000
  Fe  Fe148     1.0  0.76807  0.63614  0.11009  1.0000
  S   S294      1.0  0.77249  0.65581  0.07928  1.0000
  Fe  Fe149     1.0  0.78835  0.61870  0.15137  1.0000
  S   S295      1.0  0.82173  0.61213  0.16363  1.0000
  S   S296      1.0  0.73564  0.62576  0.12098  1.0000
  S   S297      1.0  0.75701  0.60700  0.16546  1.0000
  Fe  Fe150     1.0  0.92179  0.62989  0.30068  1.0000
  S   S298      1.0  0.91483  0.65352  0.27405  1.0000
  S   S299      1.0  0.92280  0.63924  0.33505  1.0000
  Fe  Fe151     1.0  0.93102  0.59395  0.27013  1.0000
  S   S300      1.0  0.92514  0.61551  0.24110  1.0000
  S   S301      1.0  0.94337  0.56034  0.26419  1.0000
  Fe  Fe152     1.0  0.94394  0.63883  0.25769  1.0000
  S   S302      1.0  0.96714  0.66121  0.24108  1.0000
  Fe  Fe153     1.0  0.89655  0.62793  0.26016  1.0000
  S   S303      1.0  0.86292  0.63708  0.24975  1.0000
  S   S304      1.0  0.95204  0.61657  0.28505  1.0000
  S   S305      1.0  0.90133  0.60498  0.28847  1.0000
  H   H874      1.0  0.77366  0.67013  0.03492  1.0000
  S   S306      1.0  0.94192  0.73811  0.46746  1.0000
  Fe  Fe154     1.0  0.91129  0.74861  0.39220  1.0000
  S   S307      1.0  0.89619  0.73138  0.36603  1.0000
  S   S308      1.0  0.94304  0.73879  0.40493  1.0000
  H   H875      1.0  0.74816  0.68370  0.11140  1.0000
  C   C875      1.0  0.92652  0.74242  0.49118  1.0000
  C   C876      1.0  0.90491  0.74855  0.49078  1.0000
  C   C877      1.0  0.72308  0.69158  0.09010  1.0000
  C   C878      1.0  0.91693  0.66545  0.34295  1.0000
  C   C879      1.0  0.90885  0.68124  0.32878  1.0000
  C   C880      1.0  0.90290  0.70149  0.33602  1.0000
  C   C881      1.0  0.90551  0.70632  0.35730  1.0000
  C   C882      1.0  0.91424  0.69075  0.37130  1.0000
  C   C883      1.0  0.91973  0.67034  0.36418  1.0000
  H   H876      1.0  0.90651  0.67770  0.31245  1.0000
  H   H877      1.0  0.89608  0.71345  0.32513  1.0000
  H   H878      1.0  0.91613  0.69424  0.38778  1.0000
  H   H879      1.0  0.92594  0.65821  0.37528  1.0000
  C   C884      1.0  0.99529  0.66015  0.24100  1.0000
  H   H880      1.0  0.87624  0.75611  0.50958  1.0000
  C   C885      1.0  0.73397  0.69367  0.10873  1.0000
  H   H881      1.0  0.99702  0.68142  0.21317  1.0000
  H   H882      1.0  0.99902  0.63923  0.26891  1.0000
  H   H883      1.0  0.96616  0.53223  0.30460  1.0000
  C   C886      1.0  0.92783  0.53840  0.27237  1.0000
  C   C887      1.0  0.91458  0.53854  0.29091  1.0000
  H   H884      1.0  0.94783  0.71723  0.29190  1.0000
  H   H885      1.0  0.91225  0.55293  0.29953  1.0000
  C   C888      1.0  0.83266  0.61921  0.18780  1.0000
  C   C889      1.0  0.85384  0.61270  0.19182  1.0000
  C   C890      1.0  0.86331  0.61799  0.21066  1.0000
  C   C891      1.0  0.85171  0.62993  0.22573  1.0000
  C   C892      1.0  0.83054  0.63650  0.22169  1.0000
  C   C893      1.0  0.82104  0.63118  0.20284  1.0000
  H   H886      1.0  0.86299  0.60340  0.18035  1.0000
  H   H887      1.0  0.87958  0.61279  0.21353  1.0000
  H   H888      1.0  0.82140  0.64574  0.23321  1.0000
  H   H889      1.0  0.80476  0.63632  0.20000  1.0000
  C   C894      1.0  0.96190  0.67710  0.29986  1.0000
  C   C895      1.0  0.77075  0.64203  0.05569  1.0000
  C   C896      1.0  0.76902  0.62000  0.05659  1.0000
  C   C897      1.0  0.76901  0.60906  0.03766  1.0000
  H   H890      1.0  0.76794  0.61130  0.07187  1.0000
  C   C898      1.0  0.74313  0.53919  0.13266  1.0000
  C   C899      1.0  0.74964  0.53509  0.15351  1.0000
  H   H891      1.0  0.99823  0.58956  0.25457  1.0000
  H   H892      1.0  0.75327  0.54813  0.16309  1.0000
  C   C900      1.0  0.70103  0.60840  0.18549  1.0000
  C   C901      1.0  0.66408  0.69710  0.13837  1.0000
  C   C902      1.0  0.67163  0.70369  0.15745  1.0000
  C   C903      1.0  0.68871  0.69232  0.16709  1.0000
  C   C904      1.0  0.69883  0.67478  0.15737  1.0000
  C   C905      1.0  0.69159  0.66854  0.13803  1.0000
  C   C906      1.0  0.67403  0.67938  0.12883  1.0000
  H   H893      1.0  0.66398  0.71721  0.16504  1.0000
  H   H894      1.0  0.69410  0.69719  0.18213  1.0000
  H   H895      1.0  0.69927  0.65518  0.13031  1.0000
  H   H896      1.0  0.66829  0.67422  0.11405  1.0000
  N   N73       1.0  0.85551  0.66585  0.30777  1.0000
  H   H897      1.0  0.71824  0.58131  0.19947  1.0000
  H   H898      1.0  0.54894  0.74366  0.14297  1.0000
  H   H899      1.0  0.70327  0.73206  0.13137  1.0000
  H   H900      1.0  0.95315  0.68087  0.28507  1.0000
  C   C907      1.0  0.01157  0.59552  0.24474  1.0000
  C   C908      1.0  0.69776  0.71906  0.10133  1.0000
  H   H901      1.0  0.72773  0.71524  0.15616  1.0000
  H   H902      1.0  0.95578  0.66193  0.30702  1.0000
  H   H903      1.0  0.96505  0.70234  0.36725  1.0000
  N   N74       1.0  0.68722  0.60372  0.15109  1.0000
  C   C909      1.0  0.69549  0.58332  0.15137  1.0000
  C   C910      1.0  0.68988  0.61625  0.16785  1.0000
  C   C911      1.0  0.70646  0.57486  0.16890  1.0000
  C   C912      1.0  0.70927  0.58752  0.18603  1.0000
  H   H904      1.0  0.01104  0.74232  0.44237  1.0000
  C   C913      1.0  0.67630  0.61231  0.13225  1.0000
  H   H905      1.0  0.69403  0.57355  0.13781  1.0000
  H   H906      1.0  0.68366  0.63254  0.16758  1.0000
  C   C914      1.0  0.89300  0.75156  0.50999  1.0000
  H   H907      1.0  0.52768  0.73803  0.09526  1.0000
  H   H908      1.0  0.98481  0.52433  0.27031  1.0000
  H   H909      1.0  0.66467  0.60092  0.12733  1.0000
  H   H910      1.0  0.66736  0.62751  0.13537  1.0000
  H   H911      1.0  0.68817  0.61523  0.11884  1.0000
  C   C915      1.0  0.86106  0.66945  0.34501  1.0000
  H   H912      1.0  0.73349  0.52508  0.10428  1.0000
  H   H913      1.0  0.83858  0.66510  0.27934  1.0000
  H   H914      1.0  0.86244  0.63520  0.29574  1.0000
  C   C916      1.0  0.93615  0.73954  0.51088  1.0000
  C   C917      1.0  0.85000  0.67516  0.28680  1.0000
  C   C918      1.0  0.77216  0.65309  0.03573  1.0000
  H   H915      1.0  0.76790  0.59197  0.03851  1.0000
  C   C919      1.0  0.86811  0.63570  0.32916  1.0000
  H   H916      1.0  0.95282  0.73462  0.51128  1.0000
  C   C920      1.0  0.86771  0.64811  0.34694  1.0000
  N   N75       1.0  0.83473  0.63239  0.10675  1.0000
  C   C921      1.0  0.83922  0.61106  0.10973  1.0000
  C   C922      1.0  0.82575  0.64028  0.08843  1.0000
  C   C923      1.0  0.83503  0.59709  0.09396  1.0000
  C   C924      1.0  0.82165  0.62681  0.07222  1.0000
  C   C925      1.0  0.82618  0.60507  0.07509  1.0000
  C   C926      1.0  0.83848  0.64680  0.12366  1.0000
  H   H917      1.0  0.84566  0.60467  0.12455  1.0000
  H   H918      1.0  0.82137  0.65705  0.08635  1.0000
  H   H919      1.0  0.83821  0.58016  0.09659  1.0000
  H   H920      1.0  0.81451  0.63316  0.05773  1.0000
  H   H921      1.0  0.82248  0.59445  0.06283  1.0000
  H   H922      1.0  0.82337  0.64998  0.13305  1.0000
  H   H923      1.0  0.85028  0.63976  0.13492  1.0000
  H   H924      1.0  0.84469  0.66203  0.11688  1.0000
  H   H925      1.0  0.86144  0.67942  0.35858  1.0000
  N   N76       1.0  0.95893  0.69399  0.31507  1.0000
  S   S309      1.0  0.89736  0.75852  0.42432  1.0000
  H   H926      1.0  0.85070  0.69495  0.32365  1.0000
  C   C927      1.0  0.85513  0.67817  0.32513  1.0000
  N   N77       1.0  0.72673  0.70790  0.12342  1.0000
  H   H927      1.0  0.84255  0.69136  0.28779  1.0000
  C   C928      1.0  0.86188  0.64487  0.30958  1.0000
  H   H928      1.0  0.86458  0.67598  0.27607  1.0000
  H   H929      1.0  0.95172  0.73841  0.35542  1.0000
  H   H930      1.0  0.87388  0.61926  0.33038  1.0000
  H   H931      1.0  0.68329  0.72876  0.09892  1.0000
  H   H932      1.0  0.55730  0.76276  0.09426  1.0000
  H   H933      1.0  0.89731  0.75067  0.47569  1.0000
  H   H934      1.0  0.97906  0.67472  0.29517  1.0000
  C   C929      1.0  0.95406  0.72602  0.34402  1.0000
  C   C930      1.0  0.73853  0.71002  0.14272  1.0000
  H   H935      1.0  0.99105  0.61163  0.22190  1.0000
  H   H936      1.0  0.96932  0.67398  0.34125  1.0000
  C   C931      1.0  0.94907  0.73014  0.32278  1.0000
  C   C932      1.0  0.90516  0.51970  0.29892  1.0000
  H   H937      1.0  0.71315  0.55873  0.16886  1.0000
  H   H938      1.0  0.74592  0.69449  0.14818  1.0000
  C   C933      1.0  0.00717  0.64831  0.25620  1.0000
  C   C934      1.0  0.70908  0.72077  0.11976  1.0000
  C   C935      1.0  0.70477  0.70429  0.08648  1.0000
  C   C936      1.0  0.96160  0.70577  0.35064  1.0000
  Fe  Fe155     1.0  0.93044  0.75193  0.43591  1.0000
  H   H939      1.0  0.94106  0.51933  0.24711  1.0000
  C   C937      1.0  0.95177  0.71389  0.30838  1.0000
  H   H940      1.0  0.94286  0.74577  0.31765  1.0000
  C   C938      1.0  0.00737  0.60779  0.22613  1.0000
  H   H941      1.0  0.69594  0.70264  0.07229  1.0000
  C   C939      1.0  0.96395  0.68984  0.33587  1.0000
  H   H942      1.0  0.75116  0.72170  0.13957  1.0000
  S   S310      1.0  0.60681  0.75762  0.10652  1.0000
  S   S311      1.0  0.61351  0.76054  0.15778  1.0000
  C   C940      1.0  0.52457  0.75468  0.09090  1.0000
  C   C941      1.0  0.53410  0.75297  0.14283  1.0000
  C   C942      1.0  0.93086  0.51956  0.26147  1.0000
  H   H943      1.0  0.70362  0.61868  0.19840  1.0000
  H   H944      1.0  0.89543  0.51976  0.31360  1.0000
  H   H945      1.0  0.58630  0.75972  0.02929  1.0000
  S   S312      1.0  0.59253  0.74885  0.93103  1.0000
  N   N78       1.0  0.80077  0.67962  0.86140  1.0000
  C   C943      1.0  0.90895  0.62314  0.68346  1.0000
  C   C944      1.0  0.63259  0.72401  0.97113  1.0000
  H   H946      1.0  0.94368  0.73999  0.70593  1.0000
  S   S313      1.0  0.64106  0.72130  0.90171  1.0000
  Fe  Fe156     1.0  0.74791  0.65235  0.92953  1.0000
  S   S314      1.0  0.77935  0.65077  0.94556  1.0000
  S   S315      1.0  0.73213  0.68564  0.93035  1.0000
  Fe  Fe157     1.0  0.75274  0.60528  0.91948  1.0000
  S   S316      1.0  0.78427  0.60091  0.93450  1.0000
  S   S317      1.0  0.73780  0.57739  0.90522  1.0000
  Fe  Fe158     1.0  0.76882  0.61986  0.96083  1.0000
  S   S318      1.0  0.77099  0.60533  0.99448  1.0000
  Fe  Fe159     1.0  0.79183  0.63205  0.91768  1.0000
  S   S319      1.0  0.82470  0.63886  0.90277  1.0000
  S   S320      1.0  0.73658  0.62245  0.94676  1.0000
  S   S321      1.0  0.76117  0.63550  0.90064  1.0000
  H   H947      1.0  0.73278  0.52700  0.98918  1.0000
  S   S322      1.0  0.93598  0.75191  0.59368  1.0000
  C   C945      1.0  0.90322  0.58532  0.70704  1.0000
  N   N79       1.0  0.89384  0.75527  0.69197  1.0000
  Fe  Fe160     1.0  0.92139  0.74875  0.62709  1.0000
  S   S323      1.0  0.93571  0.72378  0.65034  1.0000
  Fe  Fe161     1.0  0.91396  0.59642  0.75993  1.0000
  S   S324      1.0  0.91428  0.60675  0.79356  1.0000
  S   S325      1.0  0.92867  0.56386  0.75300  1.0000
  Fe  Fe162     1.0  0.89871  0.64096  0.74272  1.0000
  S   S326      1.0  0.89828  0.65427  0.77524  1.0000
  S   S327      1.0  0.88513  0.66073  0.71479  1.0000
  Fe  Fe163     1.0  0.92960  0.63576  0.77849  1.0000
  S   S328      1.0  0.95912  0.64894  0.79138  1.0000
  Fe  Fe164     1.0  0.88302  0.62397  0.78713  1.0000
  S   S329      1.0  0.85131  0.62098  0.80603  1.0000
  S   S330      1.0  0.93098  0.62467  0.74516  1.0000
  S   S331      1.0  0.88169  0.61148  0.75420  1.0000
  C   C946      1.0  0.98436  0.63884  0.78206  1.0000
  H   H948      1.0  0.87987  0.76160  0.66216  1.0000
  C   C947      1.0  0.98619  0.62112  0.76950  1.0000
  H   H949      1.0  0.00750  0.59750  0.75553  1.0000
  H   H950      1.0  0.97205  0.61416  0.76429  1.0000
  C   C948      1.0  0.70074  0.55097  0.94239  1.0000
  C   C949      1.0  0.91444  0.54014  0.75467  1.0000
  S   S332      1.0  0.88747  0.75425  0.55329  1.0000
  Fe  Fe165     1.0  0.62342  0.75166  0.91182  1.0000
  C   C950      1.0  0.77045  0.62005  0.01768  1.0000
  C   C951      1.0  0.92139  0.70577  0.66751  1.0000
  C   C952      1.0  0.89925  0.70466  0.66724  1.0000
  C   C953      1.0  0.88842  0.69062  0.68172  1.0000
  C   C954      1.0  0.89957  0.67782  0.69676  1.0000
  C   C955      1.0  0.92173  0.67876  0.69690  1.0000
  C   C956      1.0  0.93258  0.69260  0.68225  1.0000
  H   H951      1.0  0.89048  0.71463  0.65590  1.0000
  H   H952      1.0  0.87128  0.68990  0.68143  1.0000
  H   H953      1.0  0.93051  0.66892  0.70835  1.0000
  H   H954      1.0  0.94973  0.69336  0.68254  1.0000
  H   H955      1.0  0.76452  0.56185  0.93952  1.0000
  C   C957      1.0  0.90272  0.74904  0.52967  1.0000
  C   C958      1.0  0.76292  0.52784  0.94084  1.0000
  C   C959      1.0  0.78295  0.69129  0.90069  1.0000
  C   C960      1.0  0.83249  0.63234  0.87635  1.0000
  C   C961      1.0  0.81842  0.62328  0.86319  1.0000
  C   C962      1.0  0.82468  0.61950  0.84185  1.0000
  C   C963      1.0  0.84504  0.62470  0.83343  1.0000
  C   C964      1.0  0.85923  0.63354  0.84666  1.0000
  C   C965      1.0  0.85294  0.63737  0.86802  1.0000
  H   H956      1.0  0.80267  0.61928  0.86941  1.0000
  H   H957      1.0  0.81363  0.61259  0.83175  1.0000
  H   H958      1.0  0.87492  0.63764  0.84036  1.0000
  H   H959      1.0  0.86394  0.64436  0.87811  1.0000
  C   C966      1.0  0.91560  0.75481  0.69222  1.0000
  H   H960      1.0  0.93726  0.58376  0.70977  1.0000
  C   C967      1.0  0.70093  0.52912  0.94706  1.0000
  H   H961      1.0  0.77312  0.65073  0.00142  1.0000
  C   C968      1.0  0.92374  0.59264  0.70316  1.0000
  C   C969      1.0  0.73854  0.53369  0.90491  1.0000
  C   C970      1.0  0.74613  0.55149  0.91432  1.0000
  H   H962      1.0  0.69297  0.55776  0.92842  1.0000
  H   H963      1.0  0.72879  0.53594  0.89119  1.0000
  H   H964      1.0  0.80847  0.68728  0.82871  1.0000
  C   C971      1.0  0.66649  0.71176  0.90966  1.0000
  C   C972      1.0  0.68000  0.72441  0.92014  1.0000
  C   C973      1.0  0.70013  0.71617  0.92612  1.0000
  C   C974      1.0  0.70679  0.69513  0.92208  1.0000
  C   C975      1.0  0.69324  0.68245  0.91172  1.0000
  C   C976      1.0  0.67325  0.69081  0.90540  1.0000
  H   H965      1.0  0.67496  0.74048  0.92370  1.0000
  H   H966      1.0  0.71054  0.72609  0.93414  1.0000
  H   H967      1.0  0.69821  0.66627  0.90843  1.0000
  H   H968      1.0  0.66293  0.68093  0.89721  1.0000
  C   C977      1.0  0.88585  0.59723  0.69906  1.0000
  C   C978      1.0  0.92667  0.61170  0.69134  1.0000
  C   C979      1.0  0.65303  0.75779  0.85735  1.0000
  S   S333      1.0  0.88812  0.75540  0.61623  1.0000
  C   C980      1.0  0.81373  0.68396  0.87738  1.0000
  H   H969      1.0  0.90080  0.57071  0.71656  1.0000
  C   C981      1.0  0.99188  0.61374  0.83129  1.0000
  H   H970      1.0  0.63395  0.68515  0.93662  1.0000
  H   H971      1.0  0.98551  0.74669  0.58646  1.0000
  H   H972      1.0  0.53988  0.74403  0.92710  1.0000
  C   C982      1.0  0.64626  0.73542  0.98277  1.0000
  C   C983      1.0  0.80999  0.67371  0.84054  1.0000
  C   C984      1.0  0.52468  0.74981  0.92136  1.0000
  H   H973      1.0  0.80186  0.65988  0.83484  1.0000
  H   H974      1.0  0.93191  0.74076  0.54515  1.0000
  C   C985      1.0  0.98164  0.56361  0.79075  1.0000
  C   C986      1.0  0.96810  0.59237  0.81209  1.0000
  N   N80       1.0  0.98839  0.59657  0.81711  1.0000
  C   C987      1.0  0.99050  0.73519  0.61880  1.0000
  H   H975      1.0  0.86991  0.59166  0.70252  1.0000
  C   C988      1.0  0.87029  0.62784  0.67911  1.0000
  H   H976      1.0  0.81537  0.69190  0.91027  1.0000
  C   C989      1.0  0.76986  0.68728  0.88417  1.0000
  N   N81       1.0  0.63995  0.70624  0.96106  1.0000
  H   H977      1.0  0.64998  0.74096  0.85907  1.0000
  C   C990      1.0  0.66064  0.69898  0.96284  1.0000
  H   H978      1.0  0.61606  0.72951  0.97020  1.0000
  C   C991      1.0  0.67477  0.71004  0.97431  1.0000
  C   C992      1.0  0.96443  0.57588  0.79879  1.0000
  H   H979      1.0  0.69132  0.70452  0.97513  1.0000
  Fe  Fe166     1.0  0.90327  0.76189  0.58346  1.0000
  H   H980      1.0  0.75259  0.56860  0.97692  1.0000
  C   C993      1.0  0.66750  0.72843  0.98425  1.0000
  H   H981      1.0  0.87463  0.64364  0.67193  1.0000
  H   H982      1.0  0.67827  0.73727  0.99311  1.0000
  H   H983      1.0  0.94250  0.61780  0.68867  1.0000
  C   C994      1.0  0.92640  0.74062  0.70616  1.0000
  H   H984      1.0  0.75266  0.68820  0.88683  1.0000
  H   H985      1.0  0.88311  0.55526  0.75431  1.0000
  H   H986      1.0  0.61622  0.68340  0.96023  1.0000
  C   C995      1.0  0.89218  0.54031  0.75455  1.0000
  C   C996      1.0  0.71204  0.56391  0.95491  1.0000
  C   C997      1.0  0.92435  0.74299  0.53007  1.0000
  H   H987      1.0  0.95469  0.60217  0.81793  1.0000
  C   C998      1.0  0.99715  0.74249  0.59833  1.0000
  H   H988      1.0  0.00169  0.66130  0.79851  1.0000
  C   C999      1.0  0.73596  0.56887  0.98380  1.0000
  C   C1000     1.0  0.75869  0.54838  0.93205  1.0000
  H   H989      1.0  0.67009  0.75769  0.88611  1.0000
  H   H990      1.0  0.97891  0.55105  0.78012  1.0000
  H   H991      1.0  0.97991  0.62705  0.82890  1.0000
  H   H992      1.0  0.00776  0.62057  0.82779  1.0000
  H   H993      1.0  0.97367  0.73337  0.62286  1.0000
  H   H994      1.0  0.82715  0.66880  0.84132  1.0000
  C   C1001     1.0  0.62527  0.69437  0.94918  1.0000
  C   C1002     1.0  0.77909  0.68134  0.86452  1.0000
  H   H995      1.0  0.88363  0.71543  0.72876  1.0000
  H   H996      1.0  0.76881  0.67779  0.85191  1.0000
  H   H997      1.0  0.91133  0.63814  0.67462  1.0000
  H   H998      1.0  0.86296  0.61883  0.66683  1.0000
  C   C1003     1.0  0.00634  0.61163  0.76462  1.0000
  H   H999      1.0  0.71279  0.58068  0.95038  1.0000
  N   N82       1.0  0.72297  0.55534  0.97179  1.0000
  C   C1004     1.0  0.80503  0.68963  0.89731  1.0000
  H   H1000     1.0  0.85838  0.63096  0.69237  1.0000
  H   H1001     1.0  0.83091  0.68206  0.87518  1.0000
  N   N83       1.0  0.88885  0.61587  0.68743  1.0000
  H   H1002     1.0  0.77599  0.69524  0.91621  1.0000
  C   C1005     1.0  0.00295  0.64754  0.78886  1.0000
  H   H1003     1.0  0.99070  0.60770  0.84817  1.0000
  H   H1004     1.0  0.66651  0.68486  0.95491  1.0000
  H   H1005     1.0  0.61390  0.70537  0.94067  1.0000
  C   C1006     1.0  0.91482  0.72662  0.71965  1.0000
  H   H1006     1.0  0.92303  0.71509  0.73008  1.0000
  C   C1007     1.0  0.72330  0.53392  0.97645  1.0000
  H   H1007     1.0  0.73625  0.56348  0.00089  1.0000
  C   C1008     1.0  0.92597  0.52059  0.75510  1.0000
  H   H1008     1.0  0.94839  0.57278  0.79444  1.0000
  H   H1009     1.0  0.64036  0.74960  0.99058  1.0000
  C   C1009     1.0  0.00536  0.58436  0.80960  1.0000
  C   C1010     1.0  0.88238  0.74133  0.70486  1.0000
  C   C1011     1.0  0.89267  0.72687  0.71895  1.0000
  H   H1010     1.0  0.72977  0.58564  0.98324  1.0000
  H   H1011     1.0  0.77209  0.52575  0.95498  1.0000
  H   H1012     1.0  0.86520  0.74110  0.70402  1.0000
  C   C1012     1.0  0.77189  0.64215  0.01675  1.0000
  C   C1013     1.0  0.00226  0.56778  0.79623  1.0000
  H   H1013     1.0  0.94318  0.52029  0.75519  1.0000
  C   C1014     1.0  0.88163  0.52103  0.75429  1.0000
  H   H1014     1.0  0.69306  0.51880  0.93689  1.0000
  H   H1015     1.0  0.86444  0.52127  0.75382  1.0000
  C   C1015     1.0  0.00563  0.73093  0.63423  1.0000
  H   H1016     1.0  0.01583  0.55862  0.78979  1.0000
  H   H1017     1.0  0.63562  0.76309  0.82871  1.0000
  H   H1018     1.0  0.00026  0.72577  0.65025  1.0000
  C   C1016     1.0  0.71225  0.52049  0.96421  1.0000
  C   C1017     1.0  0.52387  0.76601  0.90534  1.0000
  H   H1019     1.0  0.92479  0.76510  0.68127  1.0000
  H   H1020     1.0  0.00713  0.78156  0.44316  1.0000
  S   S334      1.0  0.63890  0.79711  0.06764  1.0000
  Fe  Fe167     1.0  0.63482  0.78787  0.14933  1.0000
  S   S335      1.0  0.64848  0.80276  0.17785  1.0000
  H   H1021     1.0  0.59779  0.84124  0.23493  1.0000
  S   S336      1.0  0.61277  0.80413  0.12626  1.0000
  Fe  Fe168     1.0  0.62780  0.90705  0.24472  1.0000
  S   S337      1.0  0.62958  0.88879  0.27639  1.0000
  S   S338      1.0  0.62623  0.89561  0.21090  1.0000
  Fe  Fe169     1.0  0.61981  0.95011  0.26616  1.0000
  S   S339      1.0  0.62107  0.93498  0.29912  1.0000
  S   S340      1.0  0.60678  0.98387  0.26103  1.0000
  Fe  Fe170     1.0  0.64925  0.91573  0.28617  1.0000
  S   S341      1.0  0.68218  0.91359  0.30025  1.0000
  Fe  Fe171     1.0  0.60131  0.90978  0.28660  1.0000
  S   S342      1.0  0.57081  0.90108  0.30508  1.0000
  S   S343      1.0  0.64921  0.93274  0.25356  1.0000
  S   S344      1.0  0.59838  0.92616  0.25456  1.0000
  S   S345      1.0  0.94176  0.78458  0.42759  1.0000
  S   S346      1.0  0.92072  0.78168  0.38153  1.0000
  H   H1022     1.0  0.60481  0.01325  0.22007  1.0000
  C   C1018     1.0  0.62274  0.95394  0.20484  1.0000
  Fe  Fe172     1.0  0.90913  0.79094  0.41446  1.0000
  S   S347      1.0  0.89131  0.82034  0.42730  1.0000
  Fe  Fe173     1.0  0.77745  0.94723  0.40182  1.0000
  S   S348      1.0  0.74962  0.94306  0.42481  1.0000
  S   S349      1.0  0.78321  0.97992  0.38656  1.0000
  Fe  Fe174     1.0  0.79070  0.89943  0.40511  1.0000
  S   S350      1.0  0.76354  0.89236  0.42877  1.0000
  S   S351      1.0  0.81118  0.87304  0.38994  1.0000
  Fe  Fe175     1.0  0.74378  0.91400  0.40691  1.0000
  S   S352      1.0  0.71031  0.90791  0.39674  1.0000
  Fe  Fe176     1.0  0.77219  0.92230  0.44407  1.0000
  S   S353      1.0  0.77947  0.93178  0.47728  1.0000
  S   S354      1.0  0.77033  0.91947  0.38262  1.0000
  S   S355      1.0  0.80065  0.92789  0.42155  1.0000
  C   C1019     1.0  0.53438  0.77516  0.14154  1.0000
  C   C1020     1.0  0.77870  0.00231  0.40230  1.0000
  H   H1023     1.0  0.78750  0.83517  0.39166  1.0000
  H   H1024     1.0  0.80385  0.89571  0.51775  1.0000
  H   H1025     1.0  0.76721  0.98475  0.43049  1.0000
  C   C1021     1.0  0.75328  0.90687  0.50441  1.0000
  C   C1022     1.0  0.76677  0.92401  0.50199  1.0000
  H   H1026     1.0  0.73307  0.83928  0.43534  1.0000
  H   H1027     1.0  0.74955  0.89838  0.49061  1.0000
  C   C1023     1.0  0.61483  0.97469  0.20779  1.0000
  C   C1024     1.0  0.86870  0.83439  0.41684  1.0000
  C   C1025     1.0  0.85907  0.85121  0.42820  1.0000
  C   C1026     1.0  0.84134  0.86307  0.42035  1.0000
  C   C1027     1.0  0.83313  0.85832  0.40092  1.0000
  C   C1028     1.0  0.84265  0.84141  0.38964  1.0000
  C   C1029     1.0  0.86028  0.82946  0.39756  1.0000
  H   H1028     1.0  0.86549  0.85521  0.44308  1.0000
  H   H1029     1.0  0.83424  0.87604  0.42919  1.0000
  H   H1030     1.0  0.83651  0.83764  0.37455  1.0000
  H   H1031     1.0  0.86754  0.81662  0.38863  1.0000
  C   C1030     1.0  0.00520  0.80277  0.39802  1.0000
  C   C1031     1.0  0.73999  0.86034  0.38474  1.0000
  H   H1032     1.0  0.99048  0.81230  0.39793  1.0000
  C   C1032     1.0  0.64449  0.00537  0.25990  1.0000
  C   C1033     1.0  0.64466  0.95000  0.20216  1.0000
  H   H1033     1.0  0.71376  0.86168  0.40817  1.0000
  C   C1034     1.0  0.92796  0.79773  0.49606  1.0000
  C   C1035     1.0  0.68951  0.91052  0.32721  1.0000
  C   C1036     1.0  0.67451  0.90810  0.34426  1.0000
  C   C1037     1.0  0.68115  0.90697  0.36545  1.0000
  C   C1038     1.0  0.70276  0.90846  0.36982  1.0000
  C   C1039     1.0  0.71775  0.91062  0.35275  1.0000
  C   C1040     1.0  0.71116  0.91150  0.33161  1.0000
  H   H1034     1.0  0.65780  0.90724  0.34111  1.0000
  H   H1035     1.0  0.66942  0.90517  0.37853  1.0000
  H   H1036     1.0  0.73443  0.91169  0.35577  1.0000
  H   H1037     1.0  0.72288  0.91331  0.31852  1.0000
  C   C1041     1.0  0.54751  0.89958  0.29065  1.0000
  C   C1042     1.0  0.58621  0.84088  0.20313  1.0000
  C   C1043     1.0  0.63422  0.79646  0.02429  1.0000
  C   C1044     1.0  0.77106  0.00020  0.42355  1.0000
  H   H1038     1.0  0.94439  0.79404  0.49109  1.0000
  C   C1045     1.0  0.72980  0.85538  0.40454  1.0000
  H   H1039     1.0  0.78092  0.98080  0.48054  1.0000
  H   H1040     1.0  0.86902  0.80905  0.51310  1.0000
  H   H1041     1.0  0.65279  0.99011  0.25848  1.0000
  S   S356      1.0  0.65358  0.77059  0.12345  1.0000
  C   C1046     1.0  0.64261  0.82882  0.18654  1.0000
  C   C1047     1.0  0.63276  0.84458  0.17352  1.0000
  C   C1048     1.0  0.62813  0.86498  0.18115  1.0000
  C   C1049     1.0  0.63302  0.86981  0.20195  1.0000
  C   C1050     1.0  0.64294  0.85409  0.21495  1.0000
  C   C1051     1.0  0.64787  0.83378  0.20719  1.0000
  H   H1042     1.0  0.62902  0.84111  0.15746  1.0000
  H   H1043     1.0  0.62069  0.87709  0.17086  1.0000
  H   H1044     1.0  0.64697  0.85760  0.23091  1.0000
  H   H1045     1.0  0.65568  0.82177  0.21731  1.0000
  C   C1052     1.0  0.59505  0.83161  0.22155  1.0000
  H   H1046     1.0  0.58786  0.79867  0.17253  1.0000
  C   C1053     1.0  0.62653  0.78924  0.04467  1.0000
  C   C1054     1.0  0.54142  0.76854  0.09026  1.0000
  H   H1047     1.0  0.56040  0.97162  0.29654  1.0000
  C   C1055     1.0  0.59968  0.77001  0.02780  1.0000
  C   C1056     1.0  0.53005  0.89695  0.25728  1.0000
  C   C1057     1.0  0.81402  0.97470  0.44864  1.0000
  C   C1058     1.0  0.82768  0.00150  0.42346  1.0000
  H   H1048     1.0  0.55035  0.95004  0.25461  1.0000
  H   H1049     1.0  0.73157  0.87042  0.37316  1.0000
  H   H1050     1.0  0.58225  0.85778  0.20252  1.0000
  C   C1059     1.0  0.76147  0.83544  0.41502  1.0000
  H   H1051     1.0  0.78585  0.84954  0.35652  1.0000
  C   C1060     1.0  0.77087  0.85914  0.35960  1.0000
  C   C1061     1.0  0.54875  0.89762  0.26856  1.0000
  Fe  Fe177     1.0  0.95198  0.77210  0.39586  1.0000
  H   H1052     1.0  0.64756  0.80682  0.02289  1.0000
  C   C1062     1.0  0.91313  0.80243  0.48042  1.0000
  C   C1063     1.0  0.65842  0.96673  0.20273  1.0000
  N   N84       1.0  0.71390  0.96306  0.35565  1.0000
  C   C1064     1.0  0.71765  0.96502  0.33401  1.0000
  C   C1065     1.0  0.69361  0.96087  0.36412  1.0000
  C   C1066     1.0  0.70087  0.96429  0.32023  1.0000
  C   C1067     1.0  0.67644  0.96026  0.35081  1.0000
  C   C1068     1.0  0.68016  0.96187  0.32872  1.0000
  C   C1069     1.0  0.73156  0.96346  0.37001  1.0000
  H   H1053     1.0  0.73375  0.96655  0.32726  1.0000
  H   H1054     1.0  0.69073  0.95879  0.38127  1.0000
  H   H1055     1.0  0.70393  0.96480  0.30307  1.0000
  N   N85       1.0  0.62841  0.99105  0.20815  1.0000
  C   C1070     1.0  0.77113  0.84062  0.39502  1.0000
  H   H1056     1.0  0.74732  0.96079  0.36154  1.0000
  H   H1057     1.0  0.73160  0.97901  0.37754  1.0000
  H   H1058     1.0  0.73004  0.95066  0.38272  1.0000
  H   H1059     1.0  0.53119  0.89537  0.24020  1.0000
  H   H1060     1.0  0.66050  0.95765  0.35754  1.0000
  C   C1071     1.0  0.60143  0.81015  0.22212  1.0000
  H   H1061     1.0  0.55565  0.94704  0.31216  1.0000
  H   H1062     1.0  0.56930  0.94622  0.28686  1.0000
  H   H1063     1.0  0.58840  0.84023  0.15379  1.0000
  H   H1064     1.0  0.91798  0.80263  0.46362  1.0000
  C   C1072     1.0  0.88561  0.80623  0.50815  1.0000
  C   C1073     1.0  0.74065  0.84287  0.41977  1.0000
  C   C1074     1.0  0.00577  0.78223  0.39056  1.0000
  S   S357      1.0  0.98397  0.77285  0.37774  1.0000
  Fe  Fe178     1.0  0.62905  0.78432  0.10102  1.0000
  C   C1075     1.0  0.55623  0.95476  0.29584  1.0000
  N   N86       1.0  0.58353  0.82900  0.18588  1.0000
  C   C1076     1.0  0.81324  0.01064  0.45824  1.0000
  H   H1065     1.0  0.56812  0.85506  0.16868  1.0000
  H   H1066     1.0  0.77525  0.87602  0.35964  1.0000
  C   C1077     1.0  0.61973  0.01288  0.20982  1.0000
  C   C1078     1.0  0.64996  0.98732  0.20567  1.0000
  C   C1079     1.0  0.58959  0.80793  0.18638  1.0000
  H   H1067     1.0  0.65095  0.93389  0.20005  1.0000
  H   H1068     1.0  0.77029  0.82608  0.42686  1.0000
  C   C1080     1.0  0.53555  0.95131  0.26414  1.0000
  H   H1069     1.0  0.66073  0.00027  0.20605  1.0000
  H   H1070     1.0  0.76022  0.85711  0.34631  1.0000
  N   N87       1.0  0.53584  0.95327  0.28571  1.0000
  H   H1071     1.0  0.56277  0.82912  0.16015  1.0000
  H   H1072     1.0  0.66716  0.96039  0.31818  1.0000
  S   S358      1.0  0.55823  0.78908  0.13945  1.0000
  H   H1073     1.0  0.82663  0.96842  0.41684  1.0000
  N   N88       1.0  0.76036  0.85292  0.38017  1.0000
  H   H1074     1.0  0.78168  0.94825  0.51836  1.0000
  C   C1081     1.0  0.57525  0.83894  0.16620  1.0000
  H   H1075     1.0  0.60303  0.77041  0.06180  1.0000
  H   H1076     1.0  0.56412  0.89622  0.26020  1.0000
  C   C1082     1.0  0.59866  0.79820  0.20445  1.0000
  H   H1077     1.0  0.81029  0.95827  0.45243  1.0000
  H   H1078     1.0  0.55035  0.80103  0.08542  1.0000
  C   C1083     1.0  0.89183  0.80662  0.48651  1.0000
  H   H1079     1.0  0.60425  0.78170  0.20439  1.0000
  N   N89       1.0  0.92171  0.79733  0.51726  1.0000
  H   H1080     1.0  0.59778  0.97758  0.21012  1.0000
  H   H1081     1.0  0.79861  0.99582  0.49536  1.0000
  H   H1082     1.0  0.01410  0.77281  0.33704  1.0000
  Fe  Fe179     1.0  0.59209  0.77618  0.13345  1.0000
  H   H1083     1.0  0.80512  0.96854  0.49028  1.0000
  C   C1084     1.0  0.62222  0.00649  0.26236  1.0000
  C   C1085     1.0  0.53748  0.79009  0.08535  1.0000
  C   C1086     1.0  0.82339  0.98030  0.42860  1.0000
  H   H1084     1.0  0.67551  0.96373  0.20099  1.0000
  C   C1087     1.0  0.52739  0.90072  0.30138  1.0000
  H   H1085     1.0  0.61201  0.94089  0.20481  1.0000
  H   H1086     1.0  0.52633  0.90205  0.31851  1.0000
  H   H1087     1.0  0.60911  0.80297  0.23595  1.0000
  H   H1088     1.0  0.88024  0.80999  0.47439  1.0000
  N   N90       1.0  0.80906  0.98979  0.46313  1.0000
  C   C1088     1.0  0.79790  0.98358  0.48336  1.0000
  C   C1089     1.0  0.60918  0.77599  0.04629  1.0000
  H   H1089     1.0  0.83420  0.00614  0.40769  1.0000
  H   H1090     1.0  0.51742  0.95618  0.31489  1.0000
  C   C1090     1.0  0.51690  0.79746  0.08070  1.0000
  C   C1091     1.0  0.51718  0.95472  0.29779  1.0000
  H   H1091     1.0  0.65896  0.87068  0.70123  1.0000
  C   C1092     1.0  0.66678  0.87246  0.71603  1.0000
  Fe  Fe180     1.0  0.61925  0.79994  0.90887  1.0000
  S   S359      1.0  0.63417  0.83004  0.89456  1.0000
  S   S360      1.0  0.58869  0.80092  0.92900  1.0000
  C   C1093     1.0  0.59914  0.00261  0.78277  1.0000
  Fe  Fe181     1.0  0.89374  0.78983  0.62126  1.0000
  S   S361      1.0  0.86552  0.80654  0.63854  1.0000
  Fe  Fe182     1.0  0.93888  0.78616  0.60036  1.0000
  S   S362      1.0  0.96928  0.80034  0.58650  1.0000
  S   S363      1.0  0.90690  0.79656  0.58788  1.0000
  S   S364      1.0  0.92625  0.78271  0.63441  1.0000
  Fe  Fe183     1.0  0.79464  0.91542  0.62351  1.0000
  S   S365      1.0  0.76419  0.89785  0.62734  1.0000
  S   S366      1.0  0.82887  0.90173  0.62294  1.0000
  Fe  Fe184     1.0  0.77069  0.95807  0.61205  1.0000
  S   S367      1.0  0.73875  0.94320  0.61475  1.0000
  S   S368      1.0  0.76998  0.99237  0.59923  1.0000
  Fe  Fe185     1.0  0.75058  0.92648  0.64458  1.0000
  S   S369      1.0  0.73351  0.92826  0.67757  1.0000
  Fe  Fe186     1.0  0.75513  0.91647  0.59718  1.0000
  S   S370      1.0  0.74188  0.90115  0.56885  1.0000
  S   S371      1.0  0.78199  0.94289  0.64273  1.0000
  S   S372      1.0  0.78620  0.93238  0.59259  1.0000
  Fe  Fe187     1.0  0.61499  0.90176  0.78610  1.0000
  S   S373      1.0  0.59624  0.90243  0.75626  1.0000
  S   S374      1.0  0.62011  0.86789  0.80011  1.0000
  Fe  Fe188     1.0  0.62126  0.94968  0.78078  1.0000
  S   S375      1.0  0.60332  0.95312  0.75084  1.0000
  S   S376      1.0  0.63614  0.97928  0.79120  1.0000
  Fe  Fe189     1.0  0.57980  0.93193  0.76843  1.0000
  S   S377      1.0  0.54502  0.94324  0.77052  1.0000
  Fe  Fe190     1.0  0.62172  0.92350  0.74168  1.0000
  S   S378      1.0  0.63579  0.91952  0.70794  1.0000
  S   S379      1.0  0.59684  0.93014  0.79923  1.0000
  S   S380      1.0  0.64134  0.92118  0.77053  1.0000
  C   C1094     1.0  0.62009  0.00288  0.78927  1.0000
  H   H1092     1.0  0.74899  0.97924  0.64149  1.0000
  H   H1093     1.0  0.77049  0.86420  0.59251  1.0000
  H   H1094     1.0  0.59219  0.98769  0.77993  1.0000
  C   C1095     1.0  0.80705  0.88032  0.57774  1.0000
  C   C1096     1.0  0.00994  0.78581  0.63396  1.0000
  C   C1097     1.0  0.60737  0.77719  0.00746  1.0000
  H   H1095     1.0  0.61406  0.99390  0.72555  1.0000
  H   H1096     1.0  0.53969  0.90727  0.74381  1.0000
  H   H1097     1.0  0.62587  0.86362  0.75196  1.0000
  C   C1098     1.0  0.70598  0.92721  0.68513  1.0000
  C   C1099     1.0  0.69076  0.92204  0.67093  1.0000
  C   C1100     1.0  0.66925  0.92023  0.67806  1.0000
  C   C1101     1.0  0.66270  0.92363  0.69939  1.0000
  C   C1102     1.0  0.67786  0.92920  0.71350  1.0000
  C   C1103     1.0  0.69936  0.93095  0.70639  1.0000
  H   H1098     1.0  0.69560  0.91910  0.65454  1.0000
  H   H1099     1.0  0.65766  0.91592  0.66700  1.0000
  H   H1100     1.0  0.67314  0.93160  0.73000  1.0000
  H   H1101     1.0  0.71104  0.93487  0.71751  1.0000
  C   C1104     1.0  0.75018  0.91103  0.54301  1.0000
  C   C1105     1.0  0.52431  0.80429  0.94013  1.0000
  C   C1106     1.0  0.76302  0.92859  0.54034  1.0000
  N   N91       1.0  0.66776  0.78867  0.87094  1.0000
  H   H1102     1.0  0.76658  0.93734  0.55393  1.0000
  H   H1103     1.0  0.89584  0.80104  0.54018  1.0000
  C   C1107     1.0  0.82183  0.89413  0.56800  1.0000
  H   H1104     1.0  0.67410  0.00763  0.74896  1.0000
  H   H1105     1.0  0.00883  0.78039  0.65057  1.0000
  H   H1106     1.0  0.79072  0.99634  0.63963  1.0000
  C   C1108     1.0  0.85499  0.83262  0.63242  1.0000
  C   C1109     1.0  0.83413  0.83830  0.63979  1.0000
  C   C1110     1.0  0.82562  0.85919  0.63646  1.0000
  C   C1111     1.0  0.83814  0.87480  0.62619  1.0000
  C   C1112     1.0  0.85890  0.86907  0.61860  1.0000
  C   C1113     1.0  0.86721  0.84806  0.62147  1.0000
  H   H1107     1.0  0.82457  0.82652  0.64838  1.0000
  H   H1108     1.0  0.80969  0.86338  0.64251  1.0000
  H   H1109     1.0  0.86875  0.88102  0.61071  1.0000
  H   H1110     1.0  0.88334  0.84400  0.61587  1.0000
  H   H1111     1.0  0.69509  0.79026  0.88940  1.0000
  H   H1112     1.0  0.69383  0.88218  0.76829  1.0000
  C   C1114     1.0  0.99249  0.79639  0.60121  1.0000
  H   H1113     1.0  0.75576  0.00472  0.68913  1.0000
  H   H1114     1.0  0.62395  0.87627  0.72579  1.0000
  C   C1115     1.0  0.64497  0.77020  0.84034  1.0000
  C   C1116     1.0  0.62721  0.84199  0.86943  1.0000
  C   C1117     1.0  0.63542  0.86173  0.86268  1.0000
  C   C1118     1.0  0.63215  0.87060  0.84194  1.0000
  C   C1119     1.0  0.62104  0.85954  0.82754  1.0000
  C   C1120     1.0  0.61262  0.83991  0.83439  1.0000
  C   C1121     1.0  0.61533  0.83137  0.85531  1.0000
  H   H1115     1.0  0.64464  0.87011  0.87344  1.0000
  H   H1116     1.0  0.63894  0.88560  0.83687  1.0000
  H   H1117     1.0  0.60404  0.83118  0.82340  1.0000
  H   H1118     1.0  0.60878  0.81624  0.86025  1.0000
  H   H1119     1.0  0.93054  0.78365  0.54743  1.0000
  H   H1120     1.0  0.55267  0.77071  0.95135  1.0000
  H   H1121     1.0  0.65631  0.87178  0.76905  1.0000
  C   C1122     1.0  0.01258  0.79991  0.59115  1.0000
  H   H1122     1.0  0.63074  0.79618  0.99017  1.0000
  S   S381      1.0  0.60901  0.77507  0.88781  1.0000
  H   H1123     1.0  0.73489  0.88692  0.52677  1.0000
  N   N92       1.0  0.64519  0.99887  0.73598  1.0000
  H   H1124     1.0  0.94305  0.80814  0.53926  1.0000
  H   H1125     1.0  0.64205  0.80184  0.82576  1.0000
  C   C1123     1.0  0.52313  0.92768  0.76607  1.0000
  C   C1124     1.0  0.62488  0.00521  0.73097  1.0000
  C   C1125     1.0  0.68646  0.87919  0.75352  1.0000
  H   H1126     1.0  0.01364  0.80546  0.57457  1.0000
  C   C1126     1.0  0.90088  0.80170  0.52340  1.0000
  C   C1127     1.0  0.67921  0.79832  0.88755  1.0000
  C   C1128     1.0  0.65266  0.97672  0.73375  1.0000
  H   H1127     1.0  0.53946  0.80977  0.93343  1.0000
  H   H1128     1.0  0.69679  0.88029  0.69989  1.0000
  H   H1129     1.0  0.68149  0.81553  0.88388  1.0000
  Fe  Fe191     1.0  0.60410  0.77521  0.94980  1.0000
  N   N93       1.0  0.65563  0.87020  0.73520  1.0000
  H   H1130     1.0  0.54132  0.76854  0.97814  1.0000
  C   C1129     1.0  0.99125  0.78933  0.62267  1.0000
  H   H1131     1.0  0.65196  0.96810  0.74961  1.0000
  H   H1132     1.0  0.71436  0.88636  0.73345  1.0000
  C   C1130     1.0  0.62471  0.79045  0.00573  1.0000
  N   N94       1.0  0.74055  0.00608  0.65942  1.0000
  H   H1133     1.0  0.86722  0.77581  0.68383  1.0000
  C   C1131     1.0  0.63330  0.86432  0.73550  1.0000
  H   H1134     1.0  0.95145  0.78345  0.52731  1.0000
  H   H1135     1.0  0.63212  0.84849  0.72883  1.0000
  H   H1136     1.0  0.76189  0.85683  0.56748  1.0000
  H   H1137     1.0  0.72544  0.97657  0.65894  1.0000
  N   N95       1.0  0.79155  0.87239  0.56623  1.0000
  C   C1132     1.0  0.74499  0.90042  0.52489  1.0000
  C   C1133     1.0  0.79072  0.87730  0.54481  1.0000
  C   C1134     1.0  0.54381  0.77958  0.96400  1.0000
  H   H1138     1.0  0.72630  0.01192  0.62947  1.0000
  S   S382      1.0  0.54696  0.77853  0.89490  1.0000
  C   C1135     1.0  0.78647  0.01203  0.63305  1.0000
  H   H1139     1.0  0.78391  0.84197  0.57960  1.0000
  H   H1140     1.0  0.77848  0.87097  0.53565  1.0000
  C   C1136     1.0  0.68815  0.87793  0.71517  1.0000
  C   C1137     1.0  0.66014  0.80091  0.85416  1.0000
  H   H1141     1.0  0.66242  0.81789  0.85298  1.0000
  S   S383      1.0  0.63596  0.77645  0.93177  1.0000
  H   H1142     1.0  0.55395  0.79239  0.96883  1.0000
  H   H1143     1.0  0.66979  0.79713  0.90295  1.0000
  C   C1138     1.0  0.69798  0.88145  0.73404  1.0000
  C   C1139     1.0  0.77628  0.85799  0.57692  1.0000
  C   C1140     1.0  0.88277  0.76981  0.67689  1.0000
  H   H1144     1.0  0.97589  0.78668  0.63059  1.0000
  H   H1145     1.0  0.83175  0.91083  0.53870  1.0000
  C   C1141     1.0  0.65842  0.01293  0.74391  1.0000
  H   H1146     1.0  0.66933  0.97584  0.72708  1.0000
  H   H1147     1.0  0.75154  0.97461  0.66957  1.0000
  C   C1142     1.0  0.66520  0.87338  0.75383  1.0000
  C   C1143     1.0  0.82068  0.89977  0.54632  1.0000
  H   H1148     1.0  0.64281  0.96834  0.72282  1.0000
  C   C1144     1.0  0.80511  0.89123  0.53457  1.0000
  H   H1149     1.0  0.83384  0.90066  0.57736  1.0000
  H   H1150     1.0  0.80782  0.87621  0.59464  1.0000
  C   C1145     1.0  0.64860  0.79189  0.83866  1.0000
  Fe  Fe192     1.0  0.57930  0.77460  0.90916  1.0000
  C   C1146     1.0  0.52444  0.91169  0.75138  1.0000
  C   C1147     1.0  0.74165  0.98303  0.65734  1.0000
  C   C1148     1.0  0.93750  0.79302  0.53355  1.0000
  H   H1151     1.0  0.89217  0.78404  0.67237  1.0000
  C   C1149     1.0  0.77678  0.01435  0.61343  1.0000
  H   H1152     1.0  0.52213  0.98219  0.75371  1.0000
  C   C1150     1.0  0.66437  0.76736  0.87265  1.0000
  N   N96       1.0  0.52372  0.78859  0.95594  1.0000
  C   C1151     1.0  0.74838  0.01477  0.67683  1.0000
  S   S384      1.0  0.59498  0.76859  0.98485  1.0000
  C   C1152     1.0  0.77142  0.93490  0.52002  1.0000
