data_image0
_chemical_formula_structural       SFeSCFeCS2C2HCSH2FeSH3CFeSH2CH2SFeH4CHC4SHCH2C7SFeHSHSH2NCHCHSCH5CHC3HFeHC2HC3HC2HSHCH2SFeSCSHC2SFeHCHCSHCSC2HC5H3CFeNHSH3CHCHSC2H2CFe2CHCHSC2SCHCHC2HFeCSHCH2NHC2NHCHNC2HCHCHNHCSCH2SHSCH2NFeCHCH2CH2C2HSC2SFeH2CH2CHCFeHCSCHC2HCSH2SCSC3SCHC2SFeCSCH2FeHC2FeH2C2HCHNC2HCH2CHC6NC2HCFeS2HC4HCHSH2SH2CHC2SHCNHC4SCH3C3FeH4CSNC2HCH2CH2C2HS3CH3FeH3FeS2H2CH3FeHCNC2H2CHCHFeH2C2H3C2HCSHCHCSCH2C6NSH2CHN2FeH2C3H2FeCH4FeS2CSCFeCHC3H2S2HCHC2SCSFeH6C2H5CH2CHCNC2HCHCSFeSNFeHCH2CH2CHSCSHCHSFeCHC2H2SC2HC2HCS3C2SHSCH2CHCH3CFeHFeCHCSCH2CH2C2NH3FeHCHC4HCHCH2CHCSCHFeSC2SCSHCH2SHSCHCFeHNS2C3FeH2CHSCSH2C2SFeHCHC2H2C3H2CHCNHCHNH2FeCSHCH2C2H3CHCH2C2H2C3HSFeSHSH2C3SCNHCSCFe2CHCHCH2CHC3HCHSHCSHFeSH7FeCHC4HC3S2FeS3C4HFeH3CHC3H2NH2CNCH2C2
_chemical_formula_sum              "S96 Fe48 C288 H288 N24"
_cell_length_a       36.4953
_cell_length_b       36.1193
_cell_length_c       37.14
_cell_angle_alpha    90.0275
_cell_angle_beta     89.743
_cell_angle_gamma    95.2265

_space_group_name_H-M_alt    "P 1"
_space_group_IT_number       1

loop_
  _space_group_symop_operation_xyz
  'x, y, z'

loop_
  _atom_site_type_symbol
  _atom_site_label
  _atom_site_symmetry_multiplicity
  _atom_site_fract_x
  _atom_site_fract_y
  _atom_site_fract_z
  _atom_site_occupancy
  S   S1        1.0  0.22941  0.04786  0.45709  1.0000
  Fe  Fe1       1.0  0.29085  0.05082  0.46483  1.0000
  S   S2        1.0  0.45903  0.22466  0.02354  1.0000
  C   C1        1.0  0.48821  0.11388  0.15801  1.0000
  Fe  Fe2       1.0  0.22544  0.48846  0.03570  1.0000
  C   C2        1.0  0.36166  0.05002  0.40024  1.0000
  S   S3        1.0  0.28669  0.48724  0.04190  1.0000
  S   S4        1.0  0.02460  0.47639  0.21832  1.0000
  C   C3        1.0  0.16029  0.17882  0.46587  1.0000
  C   C4        1.0  0.40506  0.04287  0.35087  1.0000
  H   H1        1.0  0.20289  0.49832  0.17899  1.0000
  C   C5        1.0  0.48589  0.16300  0.11300  1.0000
  S   S5        1.0  0.46474  0.07632  0.18166  1.0000
  H   H2        1.0  0.47005  0.17892  0.09516  1.0000
  H   H3        1.0  0.32455  0.40808  0.03480  1.0000
  Fe  Fe3       1.0  0.49176  0.03908  0.22106  1.0000
  S   S6        1.0  0.32869  0.07612  0.42096  1.0000
  H   H4        1.0  0.07800  0.40713  0.37691  1.0000
  H   H5        1.0  0.37055  0.24419  0.01579  1.0000
  H   H6        1.0  0.36148  0.36446  0.06754  1.0000
  C   C6        1.0  0.15614  0.49013  0.10255  1.0000
  Fe  Fe4       1.0  0.51797  0.23237  0.04130  1.0000
  S   S7        1.0  0.51993  0.29476  0.04274  1.0000
  H   H7        1.0  0.41884  0.05365  0.32669  1.0000
  H   H8        1.0  0.25128  0.04446  0.33103  1.0000
  C   C7        1.0  0.46973  0.05952  0.08324  1.0000
  H   H9        1.0  0.17275  0.19225  0.44221  1.0000
  H   H10       1.0  0.07688  0.19947  0.39458  1.0000
  S   S8        1.0  0.18745  0.46364  0.07970  1.0000
  Fe  Fe5       1.0  0.46253  0.28729  0.02013  1.0000
  H   H11       1.0  0.13865  0.44553  0.13905  1.0000
  H   H12       1.0  0.02586  0.29860  0.36927  1.0000
  H   H13       1.0  0.13468  0.29689  0.50139  1.0000
  H   H14       1.0  0.33753  0.28808  0.05299  1.0000
  C   C8        1.0  0.45733  0.08414  0.05786  1.0000
  H   H15       1.0  0.43836  0.13007  0.13417  1.0000
  C   C9        1.0  0.11295  0.49530  0.15246  1.0000
  C   C10       1.0  0.36717  0.37045  0.03941  1.0000
  C   C11       1.0  0.39468  0.35259  0.02152  1.0000
  C   C12       1.0  0.52022  0.10815  0.04689  1.0000
  S   S9        1.0  0.05429  0.31327  0.48339  1.0000
  H   H16       1.0  0.20324  0.14177  0.47216  1.0000
  C   C13       1.0  0.34624  0.39520  0.02094  1.0000
  H   H17       1.0  0.40557  0.51079  0.06562  1.0000
  H   H18       1.0  0.04546  0.36018  0.41733  1.0000
  C   C14       1.0  0.17755  0.15011  0.48269  1.0000
  C   C15       1.0  0.02933  0.41837  0.34770  1.0000
  C   C16       1.0  0.38046  0.06413  0.36935  1.0000
  C   C17       1.0  0.46800  0.13533  0.13517  1.0000
  C   C18       1.0  0.13592  0.47417  0.13182  1.0000
  C   C19       1.0  0.12763  0.19085  0.48004  1.0000
  C   C20       1.0  0.04863  0.40046  0.37420  1.0000
  S   S10       1.0  0.05382  0.45132  0.31930  1.0000
  Fe  Fe6       1.0  0.05773  0.25144  0.48410  1.0000
  H   H19       1.0  0.47359  0.12858  0.02059  1.0000
  S   S11       1.0  0.41657  0.31783  0.04453  1.0000
  H   H20       1.0  0.37555  0.09137  0.35934  1.0000
  S   S12       1.0  0.10882  0.22942  0.46028  1.0000
  H   H21       1.0  0.08077  0.26812  0.38823  1.0000
  H   H22       1.0  0.09828  0.48292  0.17547  1.0000
  N   N1        1.0  0.50649  0.05939  0.09028  1.0000
  C   C21       1.0  0.48281  0.10862  0.03963  1.0000
  H   H23       1.0  0.42812  0.08489  0.05309  1.0000
  C   C22       1.0  0.24146  0.51953  0.13826  1.0000
  H   H24       1.0  0.29521  0.06630  0.34648  1.0000
  S   S13       1.0  0.50203  0.05270  0.27958  1.0000
  C   C23       1.0  0.27188  0.04531  0.35296  1.0000
  H   H25       1.0  0.25939  0.05517  0.37818  1.0000
  H   H26       1.0  0.06966  0.50816  0.37713  1.0000
  H   H27       1.0  0.25147  0.49269  0.13276  1.0000
  H   H28       1.0  0.44971  0.04137  0.09812  1.0000
  H   H29       1.0  0.02991  0.50207  0.14088  1.0000
  C   C24       1.0  0.51929  0.03302  0.11639  1.0000
  H   H30       1.0  0.30413  0.31414  0.03230  1.0000
  C   C25       1.0  0.31743  0.28768  0.03049  1.0000
  C   C26       1.0  0.05527  0.25151  0.38202  1.0000
  C   C27       1.0  0.03024  0.37382  0.39715  1.0000
  H   H31       1.0  0.29619  0.26397  0.03421  1.0000
  Fe  Fe7       1.0  0.02613  0.48595  0.27836  1.0000
  H   H32       1.0  0.37395  0.47344  0.01673  1.0000
  C   C28       1.0  0.05305  0.21293  0.38575  1.0000
  C   C29       1.0  0.38743  0.50083  0.01108  1.0000
  H   H33       1.0  0.49683  0.02231  0.13504  1.0000
  C   C30       1.0  0.02409  0.26854  0.37143  1.0000
  C   C31       1.0  0.40524  0.52177  0.03846  1.0000
  C   C32       1.0  0.35275  0.40236  0.98437  1.0000
  H   H34       1.0  0.05916  0.47609  0.91456  1.0000
  C   C33       1.0  0.32692  0.30477  0.96684  1.0000
  C   C34       1.0  0.40197  0.36068  0.98524  1.0000
  H   H35       1.0  0.48907  0.07637  0.62746  1.0000
  S   S14       1.0  0.18613  0.10197  0.53947  1.0000
  H   H36       1.0  0.16108  0.18318  0.60586  1.0000
  C   C35       1.0  0.12546  0.26348  0.58196  1.0000
  H   H37       1.0  0.08065  0.48166  0.60214  1.0000
  H   H38       1.0  0.19791  0.19871  0.55081  1.0000
  S   S15       1.0  0.08414  0.47328  0.81543  1.0000
  Fe  Fe8       1.0  0.48190  0.22735  0.96709  1.0000
  S   S16       1.0  0.45530  0.18825  0.92487  1.0000
  C   C36       1.0  0.37217  0.27727  0.93034  1.0000
  S   S17       1.0  0.48083  0.28937  0.96230  1.0000
  H   H39       1.0  0.43818  0.18455  0.79977  1.0000
  C   C37       1.0  0.45432  0.03932  0.59377  1.0000
  C   C38       1.0  0.11176  0.17327  0.51060  1.0000
  S   S18       1.0  0.03924  0.24504  0.54140  1.0000
  Fe  Fe9       1.0  0.04627  0.50220  0.77863  1.0000
  H   H40       1.0  0.13062  0.44629  0.86930  1.0000
  C   C39       1.0  0.34486  0.30173  0.93373  1.0000
  H   H41       1.0  0.10766  0.52160  0.93888  1.0000
  C   C40       1.0  0.46792  0.18579  0.79781  1.0000
  S   S19       1.0  0.28927  0.07359  0.52139  1.0000
  H   H42       1.0  0.46984  0.09320  0.83302  1.0000
  C   C41       1.0  0.38653  0.51570  0.97638  1.0000
  S   S20       1.0  0.32530  0.43084  0.95925  1.0000
  C   C42       1.0  0.37437  0.06575  0.63663  1.0000
  C   C43       1.0  0.15715  0.20841  0.59103  1.0000
  H   H43       1.0  0.11414  0.22500  0.62595  1.0000
  C   C44       1.0  0.04595  0.39077  0.63932  1.0000
  C   C45       1.0  0.48177  0.15935  0.89880  1.0000
  C   C46       1.0  0.46380  0.13385  0.87470  1.0000
  C   C47       1.0  0.48406  0.11221  0.85176  1.0000
  C   C48       1.0  0.02334  0.46759  0.59019  1.0000
  H   H44       1.0  0.17704  0.47775  0.91045  1.0000
  H   H45       1.0  0.02808  0.44239  0.57561  1.0000
  H   H46       1.0  0.43406  0.13121  0.87341  1.0000
  C   C49       1.0  0.52022  0.16240  0.90035  1.0000
  Fe  Fe10      1.0  0.22749  0.06568  0.51499  1.0000
  N   N2        1.0  0.14548  0.27140  0.55120  1.0000
  H   H47       1.0  0.33816  0.31895  0.91118  1.0000
  S   S21       1.0  0.46338  0.03306  0.78141  1.0000
  H   H48       1.0  0.43621  0.06054  0.58728  1.0000
  H   H49       1.0  0.47682  0.12888  0.72714  1.0000
  H   H50       1.0  0.37795  0.09582  0.63675  1.0000
  C   C50       1.0  0.13722  0.47605  0.86742  1.0000
  H   H51       1.0  0.11727  0.13207  0.55181  1.0000
  C   C51       1.0  0.48921  0.20937  0.82107  1.0000
  H   H52       1.0  0.10485  0.28146  0.59079  1.0000
  S   S22       1.0  0.05659  0.34326  0.58340  1.0000
  C   C52       1.0  0.38100  0.38539  0.96675  1.0000
  C   C53       1.0  0.16360  0.49379  0.89072  1.0000
  H   H53       1.0  0.42314  0.34724  0.97120  1.0000
  H   H54       1.0  0.47614  0.22590  0.84098  1.0000
  C   C54       1.0  0.17144  0.24875  0.54017  1.0000
  Fe  Fe11      1.0  0.28682  0.47030  0.98389  1.0000
  Fe  Fe12      1.0  0.46643  0.03746  0.72113  1.0000
  C   C55       1.0  0.05788  0.50547  0.90923  1.0000
  H   H55       1.0  0.45125  0.11284  0.76656  1.0000
  C   C56       1.0  0.46136  0.13795  0.75095  1.0000
  H   H56       1.0  0.07539  0.39156  0.64306  1.0000
  S   S23       1.0  0.42784  0.06980  0.68855  1.0000
  C   C57       1.0  0.34927  0.04720  0.61255  1.0000
  C   C58       1.0  0.11896  0.49659  0.84211  1.0000
  S   S24       1.0  0.04770  0.50288  0.71801  1.0000
  C   C59       1.0  0.17794  0.21717  0.56010  1.0000
  H   H57       1.0  0.03849  0.42946  0.68252  1.0000
  C   C60       1.0  0.02900  0.36840  0.61208  1.0000
  H   H58       1.0  0.33367  0.06297  0.59431  1.0000
  C   C61       1.0  0.13073  0.23169  0.60213  1.0000
  C   C62       1.0  0.39507  0.04561  0.66022  1.0000
  H   H59       1.0  0.38635  0.39096  0.93850  1.0000
  Fe  Fe13      1.0  0.03107  0.30590  0.53941  1.0000
  C   C63       1.0  0.48433  0.04855  0.61638  1.0000
  S   S25       1.0  0.22491  0.46624  0.97888  1.0000
  H   H60       1.0  0.43726  0.15121  0.74045  1.0000
  C   C64       1.0  0.12918  0.14481  0.52758  1.0000
  H   H61       1.0  0.38679  0.27502  0.90505  1.0000
  H   H62       1.0  0.30640  0.32458  0.96945  1.0000
  N   N3        1.0  0.33630  0.28432  0.99586  1.0000
  H   H63       1.0  0.08654  0.18211  0.52169  1.0000
  C   C65       1.0  0.05283  0.48951  0.60525  1.0000
  C   C66       1.0  0.36269  0.25991  0.99262  1.0000
  N   N4        1.0  0.48432  0.16364  0.77383  1.0000
  H   H64       1.0  0.40242  0.23712  0.95758  1.0000
  C   C67       1.0  0.38104  0.25603  0.95987  1.0000
  H   H65       1.0  0.11584  0.31862  0.53982  1.0000
  N   N5        1.0  0.03049  0.51715  0.88821  1.0000
  C   C68       1.0  0.16237  0.13346  0.51402  1.0000
  C   C69       1.0  0.02507  0.41233  0.66172  1.0000
  H   H66       1.0  0.37218  0.49939  0.95534  1.0000
  C   C70       1.0  0.13989  0.30462  0.53002  1.0000
  H   H67       1.0  0.16458  0.32486  0.53167  1.0000
  C   C71       1.0  0.04618  0.52092  0.62527  1.0000
  H   H68       1.0  0.18662  0.25451  0.51531  1.0000
  N   N6        1.0  0.24052  0.58425  0.12371  1.0000
  H   H69       1.0  0.24014  0.64143  0.10771  1.0000
  C   C72       1.0  0.14270  0.88520  0.45916  1.0000
  S   S26       1.0  0.05049  0.54547  0.27415  1.0000
  C   C73       1.0  0.04391  0.65730  0.36365  1.0000
  H   H70       1.0  0.16765  0.53974  0.07093  1.0000
  H   H71       1.0  0.50659  0.95534  0.37601  1.0000
  S   S27       1.0  0.04840  0.70564  0.42070  1.0000
  H   H72       1.0  0.27559  0.54813  0.09800  1.0000
  S   S28       1.0  0.50438  0.86885  0.03796  1.0000
  C   C74       1.0  0.42225  0.55707  0.03078  1.0000
  H   H73       1.0  0.51474  0.95126  0.14290  1.0000
  H   H74       1.0  0.17796  0.55931  0.18899  1.0000
  N   N7        1.0  0.03713  0.58131  0.42023  1.0000
  Fe  Fe14      1.0  0.22911  0.98999  0.47913  1.0000
  C   C75       1.0  0.25482  0.61641  0.10213  1.0000
  H   H75       1.0  0.35016  0.95562  0.32670  1.0000
  C   C76       1.0  0.06135  0.55658  0.40969  1.0000
  H   H76       1.0  0.07358  0.65854  0.36551  1.0000
  H   H77       1.0  0.08930  0.55908  0.41979  1.0000
  C   C77       1.0  0.31378  0.99825  0.33778  1.0000
  H   H78       1.0  0.38970  0.64028  0.06984  1.0000
  H   H79       1.0  0.42997  0.68562  0.03367  1.0000
  C   C78       1.0  0.30890  0.93812  0.36654  1.0000
  C   C79       1.0  0.02426  0.67886  0.38710  1.0000
  H   H80       1.0  0.35446  0.00390  0.43696  1.0000
  S   S29       1.0  0.29050  0.99150  0.48214  1.0000
  C   C80       1.0  0.15950  0.91884  0.47275  1.0000
  C   C81       1.0  0.04933  0.61099  0.44562  1.0000
  S   S30       1.0  0.50362  0.75228  0.03313  1.0000
  Fe  Fe15      1.0  0.04468  0.53683  0.21421  1.0000
  H   H81       1.0  0.12711  0.57708  0.10713  1.0000
  H   H82       1.0  0.31877  0.91096  0.37035  1.0000
  C   C82       1.0  0.27893  0.94844  0.38643  1.0000
  H   H83       1.0  0.24368  0.99154  0.39719  1.0000
  H   H84       1.0  0.04084  0.61730  0.32021  1.0000
  C   C83       1.0  0.25452  0.55082  0.11827  1.0000
  H   H85       1.0  0.15359  0.87322  0.43511  1.0000
  C   C84       1.0  0.11240  0.86642  0.47709  1.0000
  Fe  Fe16      1.0  0.47413  0.99598  0.29095  1.0000
  H   H86       1.0  0.43565  0.57390  0.05196  1.0000
  C   C85       1.0  0.50428  0.84870  0.10976  1.0000
  S   S31       1.0  0.08360  0.56095  0.17052  1.0000
  C   C86       1.0  0.02543  0.63394  0.33794  1.0000
  H   H87       1.0  0.20194  0.61383  0.15304  1.0000
  C   C87       1.0  0.32633  0.96303  0.34185  1.0000
  C   C88       1.0  0.21364  0.58759  0.14905  1.0000
  H   H88       1.0  0.39774  0.96646  0.40466  1.0000
  C   C89       1.0  0.15243  0.52718  0.09347  1.0000
  S   S32       1.0  0.45948  0.98410  0.23313  1.0000
  H   H89       1.0  0.10020  0.84005  0.46694  1.0000
  H   H90       1.0  0.25185  0.60995  0.07295  1.0000
  S   S33       1.0  0.51977  0.90303  0.20475  1.0000
  C   C90       1.0  0.39311  0.99382  0.39480  1.0000
  S   S34       1.0  0.32905  0.58761  0.05067  1.0000
  C   C91       1.0  0.40756  0.66890  0.02092  1.0000
  C   C92       1.0  0.35579  0.62115  0.02494  1.0000
  C   C93       1.0  0.51153  0.92276  0.13371  1.0000
  S   S35       1.0  0.43912  0.97821  0.33979  1.0000
  C   C94       1.0  0.38470  0.64326  0.04135  1.0000
  H   H91       1.0  0.28458  0.62327  0.10772  1.0000
  C   C95       1.0  0.12938  0.54828  0.11402  1.0000
  C   C96       1.0  0.50543  0.87760  0.08466  1.0000
  S   S36       1.0  0.19978  0.93978  0.45192  1.0000
  Fe  Fe17      1.0  0.51134  0.81197  0.01453  1.0000
  C   C97       1.0  0.50850  0.91461  0.09676  1.0000
  S   S37       1.0  0.22914  0.54839  0.01952  1.0000
  C   C98       1.0  0.20016  0.55692  0.16976  1.0000
  H   H92       1.0  0.26492  0.92931  0.40562  1.0000
  H   H93       1.0  0.02720  0.62931  0.45186  1.0000
  Fe  Fe18      1.0  0.51393  0.96025  0.22836  1.0000
  H   H94       1.0  0.05821  0.59906  0.47134  1.0000
  C   C99       1.0  0.50710  0.85688  0.14674  1.0000
  C   C100      1.0  0.26708  0.98385  0.38163  1.0000
  Fe  Fe19      1.0  0.29029  0.54577  0.02098  1.0000
  H   H95       1.0  0.50912  0.93703  0.07742  1.0000
  H   H96       1.0  0.07259  0.62914  0.43383  1.0000
  C   C101      1.0  0.41113  0.00745  0.36339  1.0000
  C   C102      1.0  0.05051  0.52783  0.38563  1.0000
  H   H97       1.0  0.23979  0.88375  0.50378  1.0000
  C   C103      1.0  0.10993  0.53258  0.14384  1.0000
  H   H98       1.0  0.02667  0.55982  0.10572  1.0000
  N   N8        1.0  0.28488  0.00844  0.35798  1.0000
  C   C104      1.0  0.36840  0.01493  0.41309  1.0000
  C   C105      1.0  0.14511  0.93418  0.50375  1.0000
  H   H99       1.0  0.32803  0.01774  0.31911  1.0000
  C   C106      1.0  0.51138  0.89390  0.15876  1.0000
  H   H100      1.0  0.50157  0.82012  0.10069  1.0000
  H   H101      1.0  0.50670  0.83446  0.16609  1.0000
  C   C107      1.0  0.21416  0.52269  0.16420  1.0000
  H   H102      1.0  0.51076  0.02098  0.35707  1.0000
  C   C108      1.0  0.09880  0.88128  0.50870  1.0000
  C   C109      1.0  0.49553  0.97431  0.90044  1.0000
  C   C110      1.0  0.15453  0.55270  0.86275  1.0000
  C   C111      1.0  0.40131  0.67276  0.98404  1.0000
  C   C112      1.0  0.02993  0.55400  0.87986  1.0000
  C   C113      1.0  0.41071  0.79336  0.85544  1.0000
  N   N9        1.0  0.40287  0.55051  0.96917  1.0000
  C   C114      1.0  0.47785  0.78153  0.82434  1.0000
  C   C115      1.0  0.49270  0.85734  0.88018  1.0000
  H   H103      1.0  0.11410  0.55104  0.82015  1.0000
  C   C116      1.0  0.45690  0.80840  0.80978  1.0000
  Fe  Fe20      1.0  0.48163  0.97580  0.77404  1.0000
  S   S38       1.0  0.45535  0.93111  0.81079  1.0000
  S   S39       1.0  0.04221  0.74574  0.51721  1.0000
  H   H104      1.0  0.51632  0.74423  0.87208  1.0000
  C   C117      1.0  0.21453  0.94152  0.61073  1.0000
  C   C118      1.0  0.11487  0.91546  0.52163  1.0000
  C   C119      1.0  0.48420  0.90160  0.83226  1.0000
  C   C120      1.0  0.47138  0.88265  0.86336  1.0000
  H   H105      1.0  0.44458  0.88718  0.87420  1.0000
  C   C121      1.0  0.02362  0.67443  0.60554  1.0000
  H   H106      1.0  0.46451  0.94897  0.57955  1.0000
  S   S40       1.0  0.29437  0.52913  0.96318  1.0000
  H   H107      1.0  0.43344  0.59890  0.99026  1.0000
  H   H108      1.0  0.36117  0.95818  0.63609  1.0000
  S   S41       1.0  0.05362  0.60469  0.68405  1.0000
  H   H109      1.0  0.07387  0.65582  0.62661  1.0000
  H   H110      1.0  0.40724  0.83594  0.81507  1.0000
  C   C122      1.0  0.47000  0.97707  0.58969  1.0000
  H   H111      1.0  0.40870  0.54646  0.91241  1.0000
  C   C123      1.0  0.42086  0.57107  0.99574  1.0000
  C   C124      1.0  0.50046  0.98546  0.61198  1.0000
  S   S42       1.0  0.20246  0.55615  0.91959  1.0000
  H   H112      1.0  0.38474  0.79808  0.86820  1.0000
  C   C125      1.0  0.37210  0.65100  0.96782  1.0000
  N   N10       1.0  0.20738  0.91216  0.58371  1.0000
  H   H113      1.0  0.47664  0.72079  0.89355  1.0000
  C   C126      1.0  0.39023  0.00677  0.65984  1.0000
  C   C127      1.0  0.34946  0.62523  0.98814  1.0000
  C   C128      1.0  0.17210  0.53226  0.88869  1.0000
  C   C129      1.0  0.43227  0.76656  0.86919  1.0000
  S   S43       1.0  0.48132  0.79931  0.96285  1.0000
  C   C130      1.0  0.22258  0.88386  0.52767  1.0000
  H   H114      1.0  0.19704  0.96452  0.60532  1.0000
  H   H115      1.0  0.10746  0.58833  0.92363  1.0000
  H   H116      1.0  0.24384  0.95317  0.61029  1.0000
  C   C131      1.0  0.08537  0.53103  0.92303  1.0000
  C   C132      1.0  0.19183  0.85816  0.53122  1.0000
  C   C133      1.0  0.12785  0.53499  0.83967  1.0000
  Fe  Fe21      1.0  0.28475  0.01354  0.53820  1.0000
  H   H117      1.0  0.48031  0.93844  0.94525  1.0000
  H   H118      1.0  0.48198  0.84253  0.90353  1.0000
  H   H119      1.0  0.42652  0.98878  0.52907  1.0000
  H   H120      1.0  0.10436  0.92718  0.54598  1.0000
  C   C134      1.0  0.04420  0.65378  0.62898  1.0000
  S   S44       1.0  0.22305  0.00711  0.53654  1.0000
  N   N11       1.0  0.46540  0.76102  0.85361  1.0000
  C   C135      1.0  0.23003  0.91082  0.55435  1.0000
  C   C136      1.0  0.39965  0.56606  0.93299  1.0000
  H   H121      1.0  0.32700  0.60869  0.97534  1.0000
  C   C137      1.0  0.02667  0.63066  0.65551  1.0000
  H   H122      1.0  0.37051  0.57106  0.92785  1.0000
  H   H123      1.0  0.16111  0.58245  0.86091  1.0000
  C   C138      1.0  0.34438  0.00835  0.61229  1.0000
  H   H124      1.0  0.14392  0.84096  0.56331  1.0000
  H   H125      1.0  0.05747  0.60923  0.88504  1.0000
  C   C139      1.0  0.17679  0.88748  0.58705  1.0000
  C   C140      1.0  0.42314  0.81433  0.82549  1.0000
  H   H126      1.0  0.40592  0.99097  0.67794  1.0000
  S   S45       1.0  0.06371  0.85690  0.53436  1.0000
  S   S46       1.0  0.31452  0.98377  0.58146  1.0000
  S   S47       1.0  0.47858  0.97822  0.71363  1.0000
  C   C141      1.0  0.36481  0.98825  0.63613  1.0000
  H   H127      1.0  0.20864  0.93055  0.63829  1.0000
  H   H128      1.0  0.47014  0.98777  0.90083  1.0000
  H   H129      1.0  0.36693  0.65408  0.93935  1.0000
  Fe  Fe22      1.0  0.23249  0.52651  0.96287  1.0000
  H   H130      1.0  0.50462  0.77786  0.81271  1.0000
  H   H131      1.0  0.03748  0.69226  0.58537  1.0000
  H   H132      1.0  0.25375  0.93100  0.55113  1.0000
  Fe  Fe23      1.0  0.47914  0.73923  0.97836  1.0000
  S   S48       1.0  0.42976  0.70350  0.95687  1.0000
  S   S49       1.0  0.03283  0.56134  0.78279  1.0000
  H   H133      1.0  0.39797  0.01736  0.55461  1.0000
  H   H134      1.0  0.15801  0.88936  0.60956  1.0000
  C   C142      1.0  0.16877  0.85988  0.56110  1.0000
  H   H135      1.0  0.46738  0.82550  0.78730  1.0000
  H   H136      1.0  0.48763  0.70911  0.84793  1.0000
  H   H137      1.0  0.39909  0.96968  0.56667  1.0000
  Fe  Fe24      1.0  0.02824  0.56018  0.72229  1.0000
  H   H138      1.0  0.41669  0.59301  0.92978  1.0000
  C   C143      1.0  0.48752  0.73234  0.86747  1.0000
  N   N12       1.0  0.44742  0.00389  0.58083  1.0000
  C   C144      1.0  0.50136  0.94629  0.92526  1.0000
  C   C145      1.0  0.41635  0.99450  0.55655  1.0000
  H   H139      1.0  0.06871  0.53801  0.63770  1.0000
  H   H140      1.0  0.42246  0.75045  0.89258  1.0000
  C   C146      1.0  0.05742  0.58023  0.89261  1.0000
  H   H141      1.0  0.51842  0.96424  0.61916  1.0000
  C   C147      1.0  0.08524  0.56859  0.91441  1.0000
  H   H142      1.0  0.15744  0.96028  0.51417  1.0000
  Fe  Fe25      1.0  0.03085  0.80579  0.51200  1.0000
  H   H143      1.0  0.51228  0.88312  0.95741  1.0000
  H   H144      1.0  0.51815  0.00604  0.85508  1.0000
  C   C148      1.0  0.51877  0.89544  0.81826  1.0000
  C   C149      1.0  0.50763  0.02147  0.62529  1.0000
  H   H145      1.0  0.18506  0.83785  0.51018  1.0000
  H   H146      1.0  0.61532  0.40551  0.06660  1.0000
  H   H147      1.0  0.54923  0.07781  0.34853  1.0000
  C   C150      1.0  0.97303  0.38272  0.36718  1.0000
  C   C151      1.0  0.90455  0.17377  0.48016  1.0000
  H   H148      1.0  0.87022  0.16218  0.43355  1.0000
  C   C152      1.0  0.99236  0.36475  0.39363  1.0000
  S   S50       1.0  0.96853  0.32986  0.42046  1.0000
  H   H149      1.0  0.82152  0.49066  0.10345  1.0000
  C   C153      1.0  0.52424  0.16941  0.11348  1.0000
  H   H150      1.0  0.96575  0.29506  0.34619  1.0000
  C   C154      1.0  0.98906  0.20985  0.36889  1.0000
  S   S51       1.0  0.60557  0.04883  0.29878  1.0000
  C   C155      1.0  0.65443  0.41804  0.02368  1.0000
  H   H151      1.0  0.94449  0.25086  0.33156  1.0000
  H   H152      1.0  0.59114  0.08645  0.37235  1.0000
  C   C156      1.0  0.67307  0.31878  0.03454  1.0000
  C   C157      1.0  0.62189  0.26982  0.03251  1.0000
  C   C158      1.0  0.86492  0.48162  0.14113  1.0000
  C   C159      1.0  0.98088  0.47455  0.11731  1.0000
  C   C160      1.0  0.85838  0.12069  0.47468  1.0000
  C   C161      1.0  0.87725  0.15294  0.46014  1.0000
  N   N13       1.0  0.55930  0.03645  0.38742  1.0000
  S   S52       1.0  0.68396  0.44767  0.05085  1.0000
  H   H153      1.0  0.89483  0.51546  0.24561  1.0000
  H   H154      1.0  0.91837  0.19902  0.46909  1.0000
  C   C162      1.0  0.52648  0.12109  0.15937  1.0000
  H   H155      1.0  0.54789  0.09246  0.39515  1.0000
  N   N14       1.0  0.99165  0.24764  0.36465  1.0000
  N   N15       1.0  0.64438  0.29901  0.05176  1.0000
  Fe  Fe26      1.0  0.78717  0.04856  0.47499  1.0000
  H   H156      1.0  0.00614  0.50257  0.35347  1.0000
  H   H157      1.0  0.54132  0.04688  0.13359  1.0000
  C   C163      1.0  0.54441  0.14874  0.13712  1.0000
  C   C164      1.0  0.86752  0.10898  0.50910  1.0000
  C   C165      1.0  0.89692  0.49712  0.15833  1.0000
  H   H158      1.0  0.94372  0.37578  0.36423  1.0000
  H   H159      1.0  0.54230  0.10500  0.17713  1.0000
  Fe  Fe27      1.0  0.96821  0.49692  0.22089  1.0000
  C   C166      1.0  0.65633  0.04207  0.35221  1.0000
  H   H160      1.0  0.77621  0.15355  0.48723  1.0000
  H   H161      1.0  0.57408  0.15375  0.13786  1.0000
  H   H162      1.0  0.66321  0.07161  0.34863  1.0000
  H   H163      1.0  0.82819  0.19604  0.50940  1.0000
  Fe  Fe28      1.0  0.55341  0.02329  0.27217  1.0000
  S   S53       1.0  0.91955  0.47022  0.18947  1.0000
  S   S54       1.0  0.72546  0.04794  0.47539  1.0000
  C   C167      1.0  0.95247  0.47777  0.09263  1.0000
  S   S55       1.0  0.82210  0.09716  0.45008  1.0000
  C   C168      1.0  0.65456  0.33731  0.10433  1.0000
  Fe  Fe29      1.0  0.99625  0.30000  0.46510  1.0000
  C   C169      1.0  0.63473  0.30814  0.08606  1.0000
  H   H164      1.0  0.61259  0.24639  0.05079  1.0000
  C   C170      1.0  0.62274  0.39938  0.03914  1.0000
  C   C171      1.0  0.69374  0.34781  0.05216  1.0000
  C   C172      1.0  0.68425  0.35721  0.08720  1.0000
  H   H165      1.0  0.85422  0.45338  0.14726  1.0000
  H   H166      1.0  0.69453  0.03777  0.39611  1.0000
  S   S56       1.0  0.78705  0.48258  0.02423  1.0000
  S   S57       1.0  0.54802  0.20104  0.08325  1.0000
  H   H167      1.0  0.93137  0.45479  0.08979  1.0000
  C   C173      1.0  0.99139  0.40956  0.34436  1.0000
  H   H168      1.0  0.97626  0.42306  0.32396  1.0000
  C   C174      1.0  0.56187  0.07529  0.37553  1.0000
  C   C175      1.0  0.84647  0.50260  0.11620  1.0000
  S   S58       1.0  0.00117  0.23842  0.46109  1.0000
  C   C176      1.0  0.53167  0.08311  0.07235  1.0000
  S   S59       1.0  0.96774  0.50033  0.28137  1.0000
  Fe  Fe30      1.0  0.72625  0.48911  0.02448  1.0000
  H   H169      1.0  0.96302  0.19343  0.36470  1.0000
  H   H170      1.0  0.61110  0.29326  0.09913  1.0000
  H   H171      1.0  0.98155  0.44956  0.13345  1.0000
  H   H172      1.0  0.93969  0.26575  0.37787  1.0000
  H   H173      1.0  0.69891  0.38100  0.10032  1.0000
  H   H174      1.0  0.56072  0.08360  0.07852  1.0000
  C   C177      1.0  0.95879  0.26563  0.35445  1.0000
  C   C178      1.0  0.67415  0.02295  0.37911  1.0000
  H   H175      1.0  0.57687  0.35796  0.03188  1.0000
  H   H176      1.0  0.60699  0.04444  0.42061  1.0000
  H   H177      1.0  0.54013  0.12806  0.03390  1.0000
  H   H178      1.0  0.64635  0.34511  0.13118  1.0000
  H   H179      1.0  0.89628  0.49373  0.05404  1.0000
  C   C179      1.0  0.58445  0.02518  0.41135  1.0000
  H   H180      1.0  0.93072  0.50513  0.01976  1.0000
  H   H181      1.0  0.71556  0.36445  0.03805  1.0000
  C   C180      1.0  0.60100  0.37227  0.01956  1.0000
  H   H182      1.0  0.59737  0.28165  0.02140  1.0000
  C   C181      1.0  0.92114  0.51254  0.04701  1.0000
  N   N16       1.0  0.95061  0.50986  0.07339  1.0000
  C   C182      1.0  0.00774  0.50416  0.12184  1.0000
  C   C183      1.0  0.62933  0.02329  0.33034  1.0000
  H   H183      1.0  0.01754  0.16201  0.38317  1.0000
  C   C184      1.0  0.01974  0.19190  0.37931  1.0000
  H   H184      1.0  0.63721  0.25836  0.00979  1.0000
  C   C185      1.0  0.99088  0.36743  0.60765  1.0000
  S   S60       1.0  0.98731  0.47783  0.78155  1.0000
  Fe  Fe31      1.0  0.98782  0.48318  0.72125  1.0000
  S   S61       1.0  0.96024  0.44080  0.68253  1.0000
  N   N17       1.0  0.82482  0.17478  0.56310  1.0000
  Fe  Fe32      1.0  0.53814  0.29243  0.98511  1.0000
  H   H185      1.0  0.81616  0.14773  0.61387  1.0000
  C   C186      1.0  0.85290  0.49983  0.89835  1.0000
  H   H186      1.0  0.57023  0.14377  0.87834  1.0000
  H   H187      1.0  0.90830  0.48525  0.82601  1.0000
  C   C187      1.0  0.77743  0.12542  0.57441  1.0000
  H   H188      1.0  0.54424  0.22723  0.83851  1.0000
  H   H189      1.0  0.64989  0.37618  0.94137  1.0000
  C   C188      1.0  0.89638  0.49978  0.84802  1.0000
  H   H190      1.0  0.94054  0.38819  0.62641  1.0000
  S   S62       1.0  0.72489  0.50600  0.96651  1.0000
  C   C189      1.0  0.66379  0.40995  0.98816  1.0000
  S   S63       1.0  0.79012  0.03194  0.53282  1.0000
  H   H191      1.0  0.86058  0.45211  0.86518  1.0000
  C   C190      1.0  0.94349  0.51716  0.62244  1.0000
  H   H192      1.0  0.57356  0.18596  0.79548  1.0000
  S   S64       1.0  0.52578  0.06066  0.72035  1.0000
  Fe  Fe33      1.0  0.98210  0.23636  0.51852  1.0000
  C   C191      1.0  0.86932  0.48108  0.87023  1.0000
  H   H193      1.0  0.74305  0.10854  0.52929  1.0000
  C   C192      1.0  0.98745  0.47720  0.59584  1.0000
  C   C193      1.0  0.61087  0.36353  0.98435  1.0000
  H   H194      1.0  0.53443  0.18199  0.91865  1.0000
  H   H195      1.0  0.98113  0.50272  0.85824  1.0000
  S   S65       1.0  0.58620  0.32743  0.95991  1.0000
  C   C194      1.0  0.64211  0.38274  0.96862  1.0000
  C   C195      1.0  0.98702  0.41174  0.65703  1.0000
  H   H196      1.0  0.87652  0.18395  0.58927  1.0000
  C   C196      1.0  0.96999  0.38894  0.63013  1.0000
  C   C197      1.0  0.00193  0.48964  0.87455  1.0000
  H   H197      1.0  0.68831  0.42389  0.97608  1.0000
  C   C198      1.0  0.81366  0.17676  0.52806  1.0000
  S   S66       1.0  0.97230  0.29695  0.52124  1.0000
  S   S67       1.0  0.54921  0.09200  0.82190  1.0000
  S   S68       1.0  0.54051  0.23042  0.98499  1.0000
  C   C199      1.0  0.89469  0.12982  0.52914  1.0000
  C   C200      1.0  0.61658  0.03622  0.65022  1.0000
  S   S69       1.0  0.81654  0.47627  0.92327  1.0000
  H   H198      1.0  0.60248  0.05231  0.66955  1.0000
  S   S70       1.0  0.94413  0.18967  0.54244  1.0000
  C   C201      1.0  0.91308  0.16240  0.51488  1.0000
  H   H199      1.0  0.84541  0.21968  0.59644  1.0000
  H   H200      1.0  0.67927  0.31308  0.00659  1.0000
  C   C202      1.0  0.64387  0.05385  0.62751  1.0000
  H   H201      1.0  0.96459  0.45899  0.58562  1.0000
  C   C203      1.0  0.76588  0.12729  0.53878  1.0000
  H   H202      1.0  0.97750  0.35024  0.58685  1.0000
  H   H203      1.0  0.65053  0.08358  0.62943  1.0000
  H   H204      1.0  0.90120  0.12088  0.55598  1.0000
  C   C204      1.0  0.54047  0.14071  0.87743  1.0000
  Fe  Fe34      1.0  0.72829  0.02663  0.53211  1.0000
  H   H205      1.0  0.73847  0.49971  0.87931  1.0000
  Fe  Fe35      1.0  0.78642  0.50462  0.96761  1.0000
  C   C205      1.0  0.80716  0.14951  0.58619  1.0000
  H   H206      1.0  0.76349  0.10514  0.59259  1.0000
  C   C206      1.0  0.66284  0.03322  0.60259  1.0000
  S   S71       1.0  0.69742  0.05644  0.57507  1.0000
  C   C207      1.0  0.54394  0.18704  0.79553  1.0000
  H   H207      1.0  0.98722  0.47469  0.89720  1.0000
  H   H208      1.0  0.93370  0.50445  0.64842  1.0000
  C   C208      1.0  0.85547  0.20005  0.57649  1.0000
  H   H209      1.0  0.78818  0.49126  0.83500  1.0000
  H   H210      1.0  0.53485  0.14471  0.75524  1.0000
  C   C209      1.0  0.52747  0.21002  0.81978  1.0000
  C   C210      1.0  0.52254  0.11589  0.85268  1.0000
  N   N18       1.0  0.98123  0.50816  0.61538  1.0000
  H   H211      1.0  0.01468  0.46922  0.85714  1.0000
  H   H212      1.0  0.85336  0.08417  0.52052  1.0000
  H   H213      1.0  0.53111  0.02825  0.64267  1.0000
  Fe  Fe36      1.0  0.52342  0.05162  0.78041  1.0000
  H   H214      1.0  0.86980  0.21649  0.55442  1.0000
  C   C211      1.0  0.78415  0.15294  0.51535  1.0000
  H   H215      1.0  0.92451  0.50644  0.60079  1.0000
  C   C212      1.0  0.78472  0.51868  0.84574  1.0000
  C   C213      1.0  0.52182  0.16371  0.77278  1.0000
  C   C214      1.0  0.82892  0.57552  0.18195  1.0000
  C   C215      1.0  0.00586  0.53665  0.10196  1.0000
  H   H216      1.0  0.96287  0.54880  0.37148  1.0000
  C   C216      1.0  0.96344  0.90146  0.45586  1.0000
  H   H217      1.0  0.91650  0.92837  0.43859  1.0000
  C   C217      1.0  0.63921  0.96581  0.36139  1.0000
  H   H218      1.0  0.78817  0.82082  0.50335  1.0000
  H   H219      1.0  0.56758  0.73655  0.10722  1.0000
  C   C218      1.0  0.59480  0.84588  0.08722  1.0000
  H   H220      1.0  0.89402  0.64792  0.19372  1.0000
  C   C219      1.0  0.66543  0.98475  0.38396  1.0000
  S   S72       1.0  0.90595  0.81190  0.45533  1.0000
  C   C220      1.0  0.88552  0.84814  0.47750  1.0000
  H   H221      1.0  0.60069  0.97013  0.31798  1.0000
  Fe  Fe37      1.0  0.95585  0.78727  0.47839  1.0000
  S   S73       1.0  0.96268  0.60208  0.30450  1.0000
  C   C221      1.0  0.96749  0.65420  0.35837  1.0000
  C   C222      1.0  0.88100  0.53830  0.25833  1.0000
  S   S74       1.0  0.98812  0.55676  0.21348  1.0000
  C   C223      1.0  0.83899  0.89274  0.47812  1.0000
  S   S75       1.0  0.52621  0.96756  0.28731  1.0000
  H   H222      1.0  0.59020  0.79640  0.17934  1.0000
  C   C224      1.0  0.98981  0.89924  0.48266  1.0000
  H   H223      1.0  0.58801  0.73802  0.15123  1.0000
  H   H224      1.0  0.81667  0.90516  0.46499  1.0000
  S   S76       1.0  0.83715  0.56753  0.07904  1.0000
  H   H225      1.0  0.59438  0.79094  0.06487  1.0000
  S   S77       1.0  0.54554  0.01426  0.21239  1.0000
  C   C225      1.0  0.00201  0.57848  0.40706  1.0000
  H   H226      1.0  0.90304  0.58264  0.11906  1.0000
  C   C226      1.0  0.91060  0.53349  0.14996  1.0000
  Fe  Fe38      1.0  0.99179  0.55925  0.27363  1.0000
  H   H227      1.0  0.52991  0.00915  0.10218  1.0000
  N   N19       1.0  0.86956  0.56350  0.23048  1.0000
  S   S78       1.0  0.96067  0.72557  0.47971  1.0000
  S   S79       1.0  0.78714  0.99025  0.45353  1.0000
  C   C227      1.0  0.62860  0.68611  0.01378  1.0000
  C   C228      1.0  0.89229  0.55440  0.12514  1.0000
  C   C229      1.0  0.98711  0.63228  0.33527  1.0000
  Fe  Fe39      1.0  0.72537  0.98825  0.45898  1.0000
  H   H228      1.0  0.80625  0.56619  0.16431  1.0000
  H   H229      1.0  0.96280  0.88270  0.43296  1.0000
  C   C230      1.0  0.88888  0.59737  0.22513  1.0000
  H   H230      1.0  0.55360  0.93379  0.41782  1.0000
  S   S80       1.0  0.60035  0.71690  0.03554  1.0000
  C   C231      1.0  0.52850  0.97476  0.38639  1.0000
  S   S81       1.0  0.73275  0.54792  0.04566  1.0000
  H   H231      1.0  0.97056  0.69385  0.40215  1.0000
  H   H232      1.0  0.88505  0.96935  0.47513  1.0000
  C   C232      1.0  0.59315  0.84888  0.15210  1.0000
  C   C233      1.0  0.62101  0.98502  0.33491  1.0000
  S   S82       1.0  0.68480  0.96002  0.41914  1.0000
  Fe  Fe40      1.0  0.79358  0.54262  0.04044  1.0000
  H   H233      1.0  0.63247  0.93623  0.36484  1.0000
  C   C234      1.0  0.87846  0.62124  0.19809  1.0000
  H   H234      1.0  0.61684  0.73972  0.11159  1.0000
  C   C235      1.0  0.59404  0.80715  0.08946  1.0000
  C   C236      1.0  0.84028  0.55221  0.20899  1.0000
  H   H235      1.0  0.98303  0.59862  0.41459  1.0000
  H   H236      1.0  0.59378  0.89676  0.11752  1.0000
  C   C237      1.0  0.97698  0.53901  0.07758  1.0000
  C   C238      1.0  0.64959  0.66350  0.03472  1.0000
  C   C239      1.0  0.90958  0.97696  0.49219  1.0000
  H   H237      1.0  0.93547  0.54557  0.16222  1.0000
  H   H238      1.0  0.85683  0.52609  0.27393  1.0000
  C   C240      1.0  0.99037  0.55028  0.38272  1.0000
  H   H239      1.0  0.68900  0.62216  0.03476  1.0000
  C   C241      1.0  0.85704  0.86501  0.46046  1.0000
  N   N20       1.0  0.93692  0.94973  0.48899  1.0000
  H   H240      1.0  0.84857  0.85628  0.43364  1.0000
  C   C242      1.0  0.98595  0.67727  0.38433  1.0000
  H   H241      1.0  0.64777  0.66461  0.06376  1.0000
  N   N21       1.0  0.59242  0.78975  0.12219  1.0000
  H   H242      1.0  0.59149  0.86493  0.17675  1.0000
  H   H243      1.0  0.93784  0.65314  0.35640  1.0000
  Fe  Fe41      1.0  0.01876  0.73971  0.46108  1.0000
  C   C243      1.0  0.59199  0.81006  0.15332  1.0000
  S   S83       1.0  0.01221  0.80080  0.45458  1.0000
  H   H244      1.0  0.84035  0.62788  0.15468  1.0000
  C   C244      1.0  0.01475  0.52469  0.37221  1.0000
  H   H245      1.0  0.91264  0.60602  0.24165  1.0000
  H   H246      1.0  0.82602  0.52470  0.21220  1.0000
  C   C245      1.0  0.93721  0.92724  0.45932  1.0000
  C   C246      1.0  0.59442  0.86681  0.11879  1.0000
  H   H247      1.0  0.60367  0.97902  0.44055  1.0000
  H   H248      1.0  0.59469  0.85945  0.06117  1.0000
  H   H249      1.0  0.01032  0.87941  0.48042  1.0000
  C   C247      1.0  0.59116  0.74907  0.12340  1.0000
  H   H250      1.0  0.97560  0.56440  0.06228  1.0000
  C   C248      1.0  0.86001  0.53921  0.10842  1.0000
  H   H251      1.0  0.91206  0.54114  0.04633  1.0000
  H   H252      1.0  0.92190  0.00499  0.48409  1.0000
  C   C249      1.0  0.84823  0.61019  0.17644  1.0000
  C   C250      1.0  0.58257  0.98820  0.42292  1.0000
  H   H253      1.0  0.90041  0.55289  0.27777  1.0000
  H   H254      1.0  0.83014  0.77203  0.49139  1.0000
  C   C251      1.0  0.55463  0.96279  0.40998  1.0000
  C   C252      1.0  0.67297  0.63936  0.01834  1.0000
  C   C253      1.0  0.53111  0.01199  0.37554  1.0000
  H   H255      1.0  0.88995  0.74950  0.50809  1.0000
  S   S84       1.0  0.97387  0.79593  0.53537  1.0000
  Fe  Fe42      1.0  0.98341  0.73533  0.53546  1.0000
  S   S85       1.0  0.95819  0.69797  0.57995  1.0000
  H   H256      1.0  0.96280  0.96588  0.53867  1.0000
  S   S86       1.0  0.55382  0.81785  0.88595  1.0000
  H   H257      1.0  0.66853  0.97861  0.58135  1.0000
  H   H258      1.0  0.56658  0.86482  0.82384  1.0000
  C   C254      1.0  0.87807  0.88710  0.52987  1.0000
  C   C255      1.0  0.86435  0.53726  0.90464  1.0000
  C   C256      1.0  0.89629  0.85966  0.51212  1.0000
  S   S87       1.0  0.72424  0.96644  0.51605  1.0000
  C   C257      1.0  0.96285  0.94787  0.51529  1.0000
  N   N22       1.0  0.77830  0.58801  0.87647  1.0000
  H   H259      1.0  0.78223  0.62220  0.92294  1.0000
  C   C258      1.0  0.55456  0.96631  0.87359  1.0000
  S   S88       1.0  0.82551  0.93579  0.53761  1.0000
  C   C259      1.0  0.65503  0.66066  0.95987  1.0000
  Fe  Fe43      1.0  0.53805  0.00097  0.71639  1.0000
  Fe  Fe44      1.0  0.97378  0.53708  0.78282  1.0000
  C   C260      1.0  0.85541  0.79315  0.57638  1.0000
  H   H260      1.0  0.88610  0.89535  0.55693  1.0000
  C   C261      1.0  0.63125  0.68441  0.97623  1.0000
  H   H261      1.0  0.83343  0.83529  0.60950  1.0000
  C   C262      1.0  0.67599  0.63802  0.98079  1.0000
  H   H262      1.0  0.79383  0.64662  0.88147  1.0000
  H   H263      1.0  0.86373  0.71894  0.53928  1.0000
  C   C263      1.0  0.84910  0.90342  0.51313  1.0000
  H   H264      1.0  0.58412  0.92371  0.89720  1.0000
  C   C264      1.0  0.75688  0.52339  0.87072  1.0000
  C   C265      1.0  0.62693  0.97716  0.62312  1.0000
  C   C266      1.0  0.75395  0.55849  0.88579  1.0000
  H   H265      1.0  0.90301  0.74850  0.55438  1.0000
  C   C267      1.0  0.89121  0.55602  0.88231  1.0000
  H   H266      1.0  0.73242  0.56189  0.90543  1.0000
  S   S89       1.0  0.96819  0.54059  0.72251  1.0000
  H   H267      1.0  0.89940  0.58518  0.88691  1.0000
  C   C268      1.0  0.65410  0.99480  0.60036  1.0000
  S   S90       1.0  0.93866  0.56301  0.82497  1.0000
  H   H268      1.0  0.87465  0.78586  0.59683  1.0000
  Fe  Fe45      1.0  0.55791  0.74657  0.00496  1.0000
  S   S91       1.0  0.54181  0.99396  0.77649  1.0000
  H   H269      1.0  0.93808  0.64726  0.63760  1.0000
  H   H270      1.0  0.52875  0.90967  0.79401  1.0000
  H   H271      1.0  0.00495  0.55348  0.64661  1.0000
  H   H272      1.0  0.65721  0.65989  0.93084  1.0000
  H   H273      1.0  0.61543  0.70177  0.95979  1.0000
  H   H274      1.0  0.94216  0.54777  0.62416  1.0000
  H   H275      1.0  0.01007  0.92071  0.53351  1.0000
  Fe  Fe46      1.0  0.53642  0.79159  0.93953  1.0000
  C   C269      1.0  0.00998  0.52968  0.63025  1.0000
  H   H276      1.0  0.85193  0.55199  0.92615  1.0000
  C   C270      1.0  0.87892  0.74679  0.53600  1.0000
  C   C271      1.0  0.98525  0.67221  0.60851  1.0000
  C   C272      1.0  0.96771  0.64898  0.63496  1.0000
  C   C273      1.0  0.98828  0.62831  0.65836  1.0000
  H   H277      1.0  0.62063  0.94735  0.62144  1.0000
  C   C274      1.0  0.60818  0.99771  0.64822  1.0000
  C   C275      1.0  0.54008  0.86989  0.83508  1.0000
  C   C276      1.0  0.52707  0.85067  0.86610  1.0000
  S   S92       1.0  0.56707  0.80713  0.99031  1.0000
  S   S93       1.0  0.53302  0.73031  0.95154  1.0000
  Fe  Fe47      1.0  0.78617  0.97327  0.51172  1.0000
  S   S94       1.0  0.79680  0.56438  0.98359  1.0000
  S   S95       1.0  0.57444  0.97400  0.67630  1.0000
  S   S96       1.0  0.70641  0.60951  0.95888  1.0000
  C   C277      1.0  0.77530  0.62404  0.89389  1.0000
  C   C278      1.0  0.80925  0.54898  0.83612  1.0000
  C   C279      1.0  0.55937  0.93818  0.89860  1.0000
  C   C280      1.0  0.80586  0.58360  0.85212  1.0000
  H   H278      1.0  0.97443  0.61107  0.67893  1.0000
  Fe  Fe48      1.0  0.73521  0.56456  0.98742  1.0000
  H   H279      1.0  0.91824  0.84709  0.52548  1.0000
  H   H280      1.0  0.55746  0.87950  0.94007  1.0000
  H   H281      1.0  0.82592  0.60660  0.84544  1.0000
  C   C281      1.0  0.90705  0.53748  0.85373  1.0000
  H   H282      1.0  0.74660  0.63196  0.89199  1.0000
  C   C282      1.0  0.98961  0.92254  0.51258  1.0000
  C   C283      1.0  0.53862  0.89958  0.95054  1.0000
  C   C284      1.0  0.83203  0.82090  0.58383  1.0000
  H   H283      1.0  0.57533  0.97361  0.85315  1.0000
  H   H284      1.0  0.83181  0.54529  0.81767  1.0000
  N   N23       1.0  0.53282  0.92839  0.92387  1.0000
  H   H285      1.0  0.55027  0.91243  0.97565  1.0000
  H   H286      1.0  0.89914  0.97814  0.52033  1.0000
  C   C285      1.0  0.80746  0.83070  0.55754  1.0000
  N   N24       1.0  0.85455  0.77598  0.54349  1.0000
  C   C286      1.0  0.52242  0.98445  0.87458  1.0000
  H   H287      1.0  0.00848  0.56329  0.86282  1.0000
  H   H288      1.0  0.79016  0.85316  0.56243  1.0000
  C   C287      1.0  0.80638  0.81258  0.52433  1.0000
  C   C288      1.0  0.83022  0.78508  0.51773  1.0000
