data_image0
_chemical_formula_structural       FeS2FeS2FeCFeS3FeS2FeS2FeSFeS3CHFeS2H2FeS2C10H4C6H4C6H6C2H2C3H4C2HFeCHCHCHCHC2NHCHNH2C2HC2H2S2CHCHFeH5CS2NCHSC2H3C2H2NH4CHC2N2CHCH4C4HCH6CHCHC2H3CHC2HFeSHFeS2FeSFeHS2FeS2FeS2FeNFeS3FeS2FeS3H2C4HC6H5SC2HC6H4C6H7C2H5CHCHCHNSHC2SHNC6H3C2H2FeHNHCHCHCNCSFeHC2HCHC2HC3HCHSHC3H3C4H3FeSFeSFeS3FeS2FeS2C4H3C5H4C2HC3H4CHS2FeS2FeSFeS2C2H3C5H3C7HC2HNC3NCH2CHCHC2HNCH2CHCHCHCHCH7C2H4C2HC2HC2NHC2H2CH4C4NC2H4SCH4C2H6CH3CH2CHCHFeS2FeSFeS3FeS2FeSFeS3H2C5H3C6H4C4H5FeS2FeS2HC3H2C6H4C5H5CHCHC2H2CH2C2HNC2HCHC4HNCH2C2H5CHC2HCHCHCHCNCHCH2CHC3HCHC3NHSHNHCFeS2FeS2FeSFeS3FeS2FeS2FeHFeS3HC2SFeS2CH2CFeS2HN3C8H4C6H4C6H6C6H7SNC4SC4HFeH3CSHC2HNH3C6H2CH3C2H6CH2C2H3C2H2FeC2H6C5H2CH3C2HCHCH4CHCFeS2FeS2FeSFeS3FeS2FeS2FeSFeNS2FeS2H4C2FeS2C2H2NC2H2CNHCH4C6H4C2H2FeC6H4FeCHCH3CH3C4HC2HCHC4H2SHNHCH2SCHS2CNHCHCHCNSHC2H2CHC3HCHCHC2H2CHCH2C2H2
_chemical_formula_sum              "Fe64 S128 C384 H384 N32"
_cell_length_a       47.117
_cell_length_b       43.7362
_cell_length_c       33.6758
_cell_angle_alpha    90.1347
_cell_angle_beta     89.4293
_cell_angle_gamma    89.7776

_space_group_name_H-M_alt    "P 1"
_space_group_IT_number       1

loop_
  _space_group_symop_operation_xyz
  'x, y, z'

loop_
  _atom_site_type_symbol
  _atom_site_label
  _atom_site_symmetry_multiplicity
  _atom_site_fract_x
  _atom_site_fract_y
  _atom_site_fract_z
  _atom_site_occupancy
  Fe  Fe1       1.0  0.26858  0.43782  0.37027  1.0000
  S   S1        1.0  0.26807  0.47067  0.31929  1.0000
  S   S2        1.0  0.26920  0.45225  0.43612  1.0000
  Fe  Fe2       1.0  0.27154  0.38197  0.31409  1.0000
  S   S3        1.0  0.27141  0.41192  0.25962  1.0000
  S   S4        1.0  0.27475  0.33214  0.29470  1.0000
  Fe  Fe3       1.0  0.30259  0.44107  0.29216  1.0000
  C   C1        1.0  0.35156  0.46723  0.37105  1.0000
  Fe  Fe4       1.0  0.23683  0.43816  0.29107  1.0000
  S   S5        1.0  0.19812  0.45680  0.25821  1.0000
  S   S6        1.0  0.30495  0.40975  0.34485  1.0000
  S   S7        1.0  0.23502  0.40681  0.34392  1.0000
  Fe  Fe5       1.0  0.26760  0.08948  0.34059  1.0000
  S   S8        1.0  0.26043  0.08630  0.27416  1.0000
  S   S9        1.0  0.27812  0.04673  0.37705  1.0000
  Fe  Fe6       1.0  0.26879  0.15940  0.33879  1.0000
  S   S10       1.0  0.26237  0.16068  0.27322  1.0000
  S   S11       1.0  0.27015  0.20171  0.37805  1.0000
  Fe  Fe7       1.0  0.22895  0.12485  0.28328  1.0000
  S   S12       1.0  0.18800  0.14001  0.25273  1.0000
  Fe  Fe8       1.0  0.29433  0.12246  0.26942  1.0000
  S   S13       1.0  0.32619  0.12434  0.21774  1.0000
  S   S14       1.0  0.23378  0.12550  0.34988  1.0000
  S   S15       1.0  0.30324  0.12366  0.33482  1.0000
  C   C2        1.0  0.28422  0.11817  0.44277  1.0000
  H   H1        1.0  0.06093  0.51347  0.99310  1.0000
  Fe  Fe9       1.0  0.04672  0.09331  0.14913  1.0000
  S   S16       1.0  0.08154  0.06901  0.18362  1.0000
  S   S17       1.0  0.05749  0.10963  0.08762  1.0000
  H   H2        1.0  0.32408  0.07553  0.43378  1.0000
  H   H3        1.0  0.35106  0.06903  0.15945  1.0000
  Fe  Fe10      1.0  0.05153  0.39924  0.16372  1.0000
  S   S18       1.0  0.08754  0.38470  0.20466  1.0000
  S   S19       1.0  0.05009  0.39200  0.09765  1.0000
  C   C3        1.0  0.17131  0.15501  0.14372  1.0000
  C   C4        1.0  0.05076  0.39066  0.99318  1.0000
  C   C5        1.0  0.20733  0.30590  0.28067  1.0000
  C   C6        1.0  0.04008  0.28923  0.09815  1.0000
  C   C7        1.0  0.15695  0.11962  0.23943  1.0000
  C   C8        1.0  0.15550  0.08770  0.24057  1.0000
  C   C9        1.0  0.13161  0.07252  0.22509  1.0000
  C   C10       1.0  0.10919  0.08903  0.20788  1.0000
  C   C11       1.0  0.11022  0.12098  0.20812  1.0000
  C   C12       1.0  0.13390  0.13614  0.22397  1.0000
  H   H4        1.0  0.17299  0.07467  0.25255  1.0000
  H   H5        1.0  0.13088  0.04779  0.22543  1.0000
  H   H6        1.0  0.09308  0.13401  0.19525  1.0000
  H   H7        1.0  0.13471  0.16084  0.22314  1.0000
  C   C13       1.0  0.11986  0.40375  0.21518  1.0000
  C   C14       1.0  0.13908  0.38997  0.24149  1.0000
  C   C15       1.0  0.16382  0.40532  0.25357  1.0000
  C   C16       1.0  0.16954  0.43479  0.23960  1.0000
  C   C17       1.0  0.15074  0.44821  0.21240  1.0000
  C   C18       1.0  0.12604  0.43279  0.20017  1.0000
  H   H8        1.0  0.13452  0.36749  0.25319  1.0000
  H   H9        1.0  0.17809  0.39475  0.27449  1.0000
  H   H10       1.0  0.15503  0.47095  0.20133  1.0000
  H   H11       1.0  0.11154  0.44365  0.17982  1.0000
  C   C19       1.0  0.27533  0.29666  0.31984  1.0000
  C   C20       1.0  0.27102  0.29405  0.36087  1.0000
  C   C21       1.0  0.27014  0.26485  0.37867  1.0000
  C   C22       1.0  0.27341  0.23817  0.35556  1.0000
  C   C23       1.0  0.27798  0.24098  0.31469  1.0000
  C   C24       1.0  0.27889  0.27001  0.29698  1.0000
  H   H12       1.0  0.26825  0.31443  0.37878  1.0000
  H   H13       1.0  0.26665  0.26290  0.41036  1.0000
  H   H14       1.0  0.28092  0.22079  0.29660  1.0000
  H   H15       1.0  0.28235  0.27182  0.26526  1.0000
  H   H16       1.0  0.13120  0.48238  0.28779  1.0000
  H   H17       1.0  0.18639  0.17103  0.15605  1.0000
  C   C25       1.0  0.26979  0.48951  0.45775  1.0000
  C   C26       1.0  0.04046  0.23335  0.09468  1.0000
  H   H18       1.0  0.18588  0.31310  0.27096  1.0000
  H   H19       1.0  0.20546  0.22615  0.37043  1.0000
  C   C27       1.0  0.10602  0.44260  0.30097  1.0000
  C   C28       1.0  0.03847  0.51149  0.98725  1.0000
  C   C29       1.0  0.31320  0.07425  0.46230  1.0000
  H   H20       1.0  0.11679  0.09685  0.10505  1.0000
  H   H21       1.0  0.07741  0.44757  0.98852  1.0000
  H   H22       1.0  0.23156  0.06509  0.43119  1.0000
  H   H23       1.0  0.07626  0.26081  0.11172  1.0000
  C   C30       1.0  0.12669  0.14447  0.11208  1.0000
  C   C31       1.0  0.14625  0.16548  0.12653  1.0000
  H   H24       1.0  0.20608  0.18721  0.31665  1.0000
  Fe  Fe11      1.0  0.02382  0.43544  0.09575  1.0000
  C   C32       1.0  0.20599  0.26435  0.32972  1.0000
  H   H25       1.0  0.27051  0.10790  0.41971  1.0000
  C   C33       1.0  0.11075  0.47130  0.28428  1.0000
  H   H26       1.0  0.12280  0.43136  0.31735  1.0000
  C   C34       1.0  0.03266  0.42529  0.26604  1.0000
  H   H27       1.0  0.03688  0.01744  0.03448  1.0000
  C   C35       1.0  0.20612  0.21139  0.30942  1.0000
  H   H28       1.0  0.03414  0.35013  0.02179  1.0000
  C   C36       1.0  0.06408  0.46942  0.25540  1.0000
  C   C37       1.0  0.24189  0.04506  0.44316  1.0000
  N   N1        1.0  0.20748  0.27331  0.29084  1.0000
  H   H29       1.0  0.21377  0.32036  0.30625  1.0000
  C   C38       1.0  0.13237  0.11313  0.11539  1.0000
  H   H30       1.0  0.14207  0.05742  0.14103  1.0000
  N   N2        1.0  0.15674  0.10307  0.13293  1.0000
  H   H31       1.0  0.20613  0.28118  0.35341  1.0000
  H   H32       1.0  0.30338  0.12782  0.42798  1.0000
  C   C39       1.0  0.34876  0.45602  0.40972  1.0000
  C   C40       1.0  0.20539  0.23328  0.33958  1.0000
  H   H33       1.0  0.20947  0.25908  0.23028  1.0000
  C   C41       1.0  0.08975  0.48478  0.26112  1.0000
  C   C42       1.0  0.16223  0.07013  0.13594  1.0000
  H   H34       1.0  0.22300  0.31063  0.25653  1.0000
  H   H35       1.0  0.04806  0.47984  0.23682  1.0000
  S   S20       1.0  0.03837  0.47067  0.04943  1.0000
  S   S21       1.0  0.05894  0.19850  0.10152  1.0000
  C   C43       1.0  0.17633  0.12353  0.14646  1.0000
  H   H36       1.0  0.10698  0.15247  0.09916  1.0000
  C   C44       1.0  0.08020  0.42779  0.29440  1.0000
  H   H37       1.0  0.07714  0.40492  0.30600  1.0000
  Fe  Fe12      1.0  0.03580  0.15321  0.10684  1.0000
  H   H38       1.0  0.20838  0.20372  0.24639  1.0000
  H   H39       1.0  0.02392  0.41659  0.29457  1.0000
  H   H40       1.0  0.05093  0.31042  0.10455  1.0000
  H   H41       1.0  0.09366  0.50660  0.24687  1.0000
  H   H42       1.0  0.19545  0.11562  0.16103  1.0000
  C   C45       1.0  0.26413  0.03114  0.42196  1.0000
  S   S22       1.0  0.02728  0.13763  0.16911  1.0000
  S   S23       1.0  0.34237  0.46407  0.26678  1.0000
  N   N3        1.0  0.05946  0.44146  0.27241  1.0000
  C   C46       1.0  0.20749  0.22072  0.26989  1.0000
  H   H43       1.0  0.17605  0.06490  0.16166  1.0000
  S   S24       1.0  0.02815  0.44410  0.16180  1.0000
  C   C47       1.0  0.05439  0.26110  0.10222  1.0000
  C   C48       1.0  0.20813  0.25197  0.26106  1.0000
  H   H44       1.0  0.14168  0.18978  0.12491  1.0000
  H   H45       1.0  0.04373  0.25902  0.19652  1.0000
  H   H46       1.0  0.07260  0.38499  0.00001  1.0000
  C   C49       1.0  0.02913  0.37095  0.00573  1.0000
  C   C50       1.0  0.34653  0.49813  0.36372  1.0000
  H   H47       1.0  0.35176  0.43175  0.41490  1.0000
  H   H48       1.0  0.17255  0.06166  0.10826  1.0000
  N   N4        1.0  0.34185  0.47523  0.44046  1.0000
  H   H49       1.0  0.34788  0.50681  0.33355  1.0000
  H   H50       1.0  0.03629  0.40564  0.24565  1.0000
  H   H51       1.0  0.34816  0.40137  0.23728  1.0000
  H   H52       1.0  0.02934  0.20454  0.19310  1.0000
  C   C51       1.0  0.02193  0.25310  0.18994  1.0000
  H   H53       1.0  0.27263  0.13757  0.45693  1.0000
  C   C52       1.0  0.02159  0.49256  0.01157  1.0000
  C   C53       1.0  0.33744  0.50573  0.43372  1.0000
  N   N5        1.0  0.29205  0.09463  0.47165  1.0000
  N   N6        1.0  0.04444  0.41707  0.97338  1.0000
  C   C54       1.0  0.27178  0.49237  0.49933  1.0000
  H   H54       1.0  0.21627  0.04445  0.49674  1.0000
  C   C55       1.0  0.27681  0.09163  0.50624  1.0000
  H   H55       1.0  0.27221  0.47195  0.51742  1.0000
  H   H56       1.0  0.27001  0.06471  0.55935  1.0000
  H   H57       1.0  0.30870  0.02811  0.54330  1.0000
  H   H58       1.0  0.05982  0.45702  0.94326  1.0000
  C   C56       1.0  0.30466  0.04732  0.52374  1.0000
  C   C57       1.0  0.23322  0.03324  0.48032  1.0000
  C   C58       1.0  0.33907  0.46264  0.48063  1.0000
  C   C59       1.0  0.28293  0.06799  0.53283  1.0000
  H   H59       1.0  0.08393  0.42503  0.94408  1.0000
  C   C60       1.0  0.31998  0.05046  0.48831  1.0000
  H   H60       1.0  0.18969  0.51001  0.58883  1.0000
  H   H61       1.0  0.25916  0.10684  0.51281  1.0000
  H   H62       1.0  0.33605  0.03372  0.48014  1.0000
  H   H63       1.0  0.21234  0.49648  0.54911  1.0000
  H   H64       1.0  0.32198  0.44516  0.48123  1.0000
  H   H65       1.0  0.33331  0.48052  0.50284  1.0000
  C   C61       1.0  0.06754  0.43761  0.96156  1.0000
  H   H66       1.0  0.27077  0.56553  0.43514  1.0000
  C   C62       1.0  0.27113  0.54513  0.45326  1.0000
  H   H67       1.0  0.29410  0.99375  0.42166  1.0000
  C   C63       1.0  0.27697  0.00481  0.43789  1.0000
  C   C64       1.0  0.03558  0.98586  0.98477  1.0000
  H   H68       1.0  0.04845  0.96879  0.99937  1.0000
  H   H69       1.0  0.20653  0.57448  0.45560  1.0000
  H   H70       1.0  0.33511  0.54158  0.38980  1.0000
  C   C65       1.0  0.02903  0.01347  0.00484  1.0000
  H   H71       1.0  0.33157  0.52097  0.45794  1.0000
  C   C66       1.0  0.33943  0.51758  0.39521  1.0000
  C   C67       1.0  0.26927  0.51615  0.43484  1.0000
  H   H72       1.0  0.26777  0.51442  0.40286  1.0000
  Fe  Fe13      1.0  0.25095  0.95483  0.58336  1.0000
  S   S25       1.0  0.26639  0.96421  0.64558  1.0000
  H   H73       1.0  0.09580  0.93830  0.90209  1.0000
  Fe  Fe14      1.0  0.25395  0.88496  0.59671  1.0000
  S   S26       1.0  0.26986  0.88988  0.65868  1.0000
  S   S27       1.0  0.24428  0.83852  0.56964  1.0000
  Fe  Fe15      1.0  0.23625  0.92672  0.66450  1.0000
  S   S28       1.0  0.20726  0.92370  0.71912  1.0000
  Fe  Fe16      1.0  0.29838  0.92654  0.63413  1.0000
  H   H74       1.0  0.22712  0.51912  0.58841  1.0000
  S   S29       1.0  0.21888  0.91971  0.60359  1.0000
  S   S30       1.0  0.28438  0.91928  0.57073  1.0000
  Fe  Fe17      1.0  0.27217  0.60359  0.58034  1.0000
  S   S31       1.0  0.25683  0.57807  0.63444  1.0000
  S   S32       1.0  0.27454  0.58527  0.51620  1.0000
  Fe  Fe18      1.0  0.27677  0.66491  0.62699  1.0000
  S   S33       1.0  0.26089  0.64311  0.68317  1.0000
  S   S34       1.0  0.29314  0.71341  0.63626  1.0000
  Fe  Fe19      1.0  0.29088  0.60469  0.66702  1.0000
  N   N7        1.0  0.10358  0.97612  0.86439  1.0000
  Fe  Fe20      1.0  0.22859  0.61911  0.64597  1.0000
  S   S35       1.0  0.18007  0.61919  0.65249  1.0000
  S   S36       1.0  0.30804  0.62736  0.61225  1.0000
  S   S37       1.0  0.24254  0.64369  0.59029  1.0000
  Fe  Fe21      1.0  0.04801  0.60373  0.80717  1.0000
  S   S38       1.0  0.03463  0.61473  0.87031  1.0000
  S   S39       1.0  0.09609  0.59800  0.80001  1.0000
  Fe  Fe22      1.0  0.04456  0.92774  0.77359  1.0000
  S   S40       1.0  0.06284  0.90482  0.82679  1.0000
  S   S41       1.0  0.07374  0.94939  0.72722  1.0000
  S   S42       1.0  0.31936  0.58931  0.71774  1.0000
  H   H75       1.0  0.16073  0.88651  0.61763  1.0000
  H   H76       1.0  0.09058  0.65172  0.86160  1.0000
  C   C68       1.0  0.19484  0.85052  0.66007  1.0000
  C   C69       1.0  0.18973  0.59766  0.54930  1.0000
  C   C70       1.0  0.10859  0.87244  0.68528  1.0000
  C   C71       1.0  0.27330  0.54798  0.49481  1.0000
  H   H77       1.0  0.21297  0.52566  0.49100  1.0000
  C   C72       1.0  0.15709  0.61168  0.69349  1.0000
  C   C73       1.0  0.12768  0.61613  0.68892  1.0000
  C   C74       1.0  0.10859  0.61145  0.72088  1.0000
  C   C75       1.0  0.11874  0.60213  0.75782  1.0000
  C   C76       1.0  0.14809  0.59713  0.76218  1.0000
  C   C77       1.0  0.16720  0.60201  0.73030  1.0000
  H   H78       1.0  0.11960  0.62347  0.66052  1.0000
  H   H79       1.0  0.08609  0.61528  0.71702  1.0000
  H   H80       1.0  0.15615  0.58976  0.79059  1.0000
  H   H81       1.0  0.18972  0.59833  0.73425  1.0000
  H   H82       1.0  0.18356  0.61788  0.56611  1.0000
  S   S43       1.0  0.23697  0.99587  0.54578  1.0000
  C   C78       1.0  0.02066  0.78487  0.85372  1.0000
  C   C79       1.0  0.12380  0.85361  0.71088  1.0000
  H   H83       1.0  0.03151  0.70807  0.79719  1.0000
  C   C80       1.0  0.17013  0.93062  0.71992  1.0000
  C   C81       1.0  0.15392  0.91939  0.75192  1.0000
  C   C82       1.0  0.12442  0.92453  0.75414  1.0000
  C   C83       1.0  0.11079  0.94162  0.72482  1.0000
  C   C84       1.0  0.12706  0.95319  0.69302  1.0000
  C   C85       1.0  0.15653  0.94745  0.69032  1.0000
  H   H84       1.0  0.16424  0.90644  0.77503  1.0000
  H   H85       1.0  0.11234  0.91549  0.77879  1.0000
  H   H86       1.0  0.11682  0.96656  0.67022  1.0000
  H   H87       1.0  0.16879  0.95650  0.66569  1.0000
  C   C86       1.0  0.25473  0.80348  0.59157  1.0000
  C   C87       1.0  0.27012  0.80262  0.62686  1.0000
  C   C88       1.0  0.28054  0.77457  0.64127  1.0000
  C   C89       1.0  0.27545  0.74710  0.62084  1.0000
  C   C90       1.0  0.25902  0.74778  0.58649  1.0000
  C   C91       1.0  0.24881  0.77589  0.57187  1.0000
  H   H88       1.0  0.27486  0.82361  0.64233  1.0000
  H   H89       1.0  0.29325  0.77426  0.66784  1.0000
  H   H90       1.0  0.25513  0.72683  0.57031  1.0000
  H   H91       1.0  0.23690  0.77632  0.54457  1.0000
  H   H92       1.0  0.19195  0.62112  0.49320  1.0000
  H   H93       1.0  0.16239  0.67825  0.72466  1.0000
  H   H94       1.0  0.11195  0.69218  0.71317  1.0000
  C   C92       1.0  0.31841  0.83913  0.55517  1.0000
  C   C93       1.0  0.03606  0.78446  0.81804  1.0000
  H   H95       1.0  0.19128  0.56888  0.60076  1.0000
  H   H96       1.0  0.33750  0.92341  0.72493  1.0000
  H   H97       1.0  0.17739  0.66179  0.79180  1.0000
  H   H98       1.0  0.05217  0.75611  0.77040  1.0000
  H   H99       1.0  0.33087  0.76439  0.57639  1.0000
  C   C94       1.0  0.12742  0.97583  0.84079  1.0000
  H   H100      1.0  0.05957  0.98751  0.86882  1.0000
  C   C95       1.0  0.07732  0.00057  0.81246  1.0000
  H   H101      1.0  0.08682  0.87887  0.69242  1.0000
  C   C96       1.0  0.15223  0.84668  0.70208  1.0000
  H   H102      1.0  0.20867  0.86615  0.67720  1.0000
  N   N8        1.0  0.20231  0.54439  0.54792  1.0000
  S   S44       1.0  0.03460  0.94471  0.92250  1.0000
  H   H103      1.0  0.07715  0.68932  0.76857  1.0000
  C   C97       1.0  0.12191  0.88416  0.65143  1.0000
  C   C98       1.0  0.04032  0.75653  0.79808  1.0000
  S   S45       1.0  0.05088  0.81806  0.79774  1.0000
  H   H104      1.0  0.14568  0.98785  0.78375  1.0000
  N   N9        1.0  0.10758  0.67418  0.81075  1.0000
  C   C99       1.0  0.13538  0.66685  0.81745  1.0000
  C   C100      1.0  0.09919  0.68373  0.77400  1.0000
  C   C101      1.0  0.15557  0.66866  0.78679  1.0000
  C   C102      1.0  0.11880  0.68564  0.74260  1.0000
  C   C103      1.0  0.14715  0.67796  0.74909  1.0000
  C   C104      1.0  0.12692  0.98861  0.80276  1.0000
  H   H105      1.0  0.14189  0.65874  0.84638  1.0000
  H   H106      1.0  0.08888  0.69322  0.86291  1.0000
  H   H107      1.0  0.19995  0.82652  0.66814  1.0000
  C   C105      1.0  0.07866  0.98801  0.85056  1.0000
  C   C106      1.0  0.19410  0.56986  0.56875  1.0000
  H   H108      1.0  0.14692  0.96539  0.85106  1.0000
  H   H109      1.0  0.06487  0.67142  0.83283  1.0000
  Fe  Fe23      1.0  0.02563  0.92535  0.86045  1.0000
  H   H110      1.0  0.11377  0.84509  0.73783  1.0000
  N   N10       1.0  0.16495  0.85775  0.66836  1.0000
  H   H111      1.0  0.16418  0.83268  0.72258  1.0000
  C   C107      1.0  0.33143  0.85213  0.58828  1.0000
  H   H112      1.0  0.11055  0.89974  0.63216  1.0000
  C   C108      1.0  0.08701  0.67269  0.84365  1.0000
  H   H113      1.0  0.20008  0.85300  0.62796  1.0000
  C   C109      1.0  0.26835  0.99303  0.47509  1.0000
  N   N11       1.0  0.34381  0.83405  0.61634  1.0000
  C   C110      1.0  0.15033  0.87670  0.64349  1.0000
  S   S46       1.0  0.34688  0.92784  0.63863  1.0000
  Fe  Fe24      1.0  0.03411  0.86575  0.81129  1.0000
  H   H114      1.0  0.04001  0.54225  0.93687  1.0000
  C   C111      1.0  0.02667  0.52788  0.95525  1.0000
  C   C112      1.0  0.20229  0.57325  0.48727  1.0000
  H   H115      1.0  0.09066  0.97508  0.92523  1.0000
  C   C113      1.0  0.31850  0.80742  0.55058  1.0000
  H   H116      1.0  0.27547  0.52310  0.54969  1.0000
  C   C114      1.0  0.33161  0.78914  0.57898  1.0000
  C   C115      1.0  0.24664  0.00745  0.49682  1.0000
  H   H117      1.0  0.30752  0.85348  0.53387  1.0000
  C   C116      1.0  0.19425  0.59942  0.50838  1.0000
  C   C117      1.0  0.20604  0.54569  0.50759  1.0000
  C   C118      1.0  0.10419  0.96200  0.90381  1.0000
  H   H118      1.0  0.33122  0.87678  0.59175  1.0000
  C   C119      1.0  0.34411  0.80291  0.61202  1.0000
  H   H119      1.0  0.12598  0.96131  0.91604  1.0000
  S   S47       1.0  0.02052  0.64012  0.77982  1.0000
  H   H120      1.0  0.30752  0.79702  0.52583  1.0000
  C   C120      1.0  0.02545  0.98003  0.94627  1.0000
  C   C121      1.0  0.02896  0.72924  0.81340  1.0000
  C   C122      1.0  0.20810  0.51602  0.56954  1.0000
  H   H121      1.0  0.27885  0.97316  0.48727  1.0000
  H   H122      1.0  0.05738  0.00924  0.80113  1.0000
  H   H123      1.0  0.31836  0.66935  0.69974  1.0000
  C   C123      1.0  0.34764  0.66460  0.74814  1.0000
  C   C124      1.0  0.27365  0.52135  0.51776  1.0000
  C   C125      1.0  0.34045  0.66925  0.70854  1.0000
  C   C126      1.0  0.10167  0.00101  0.78858  1.0000
  H   H124      1.0  0.34019  0.86237  0.66744  1.0000
  H   H125      1.0  0.33112  0.66054  0.77015  1.0000
  H   H126      1.0  0.10067  0.00978  0.75847  1.0000
  Fe  Fe25      1.0  0.51425  0.08887  0.08843  1.0000
  S   S48       1.0  0.50657  0.04383  0.05479  1.0000
  Fe  Fe26      1.0  0.50506  0.15796  0.10000  1.0000
  S   S49       1.0  0.48807  0.20243  0.07476  1.0000
  Fe  Fe27      1.0  0.48905  0.11400  0.16660  1.0000
  S   S50       1.0  0.45996  0.10314  0.21902  1.0000
  S   S51       1.0  0.47561  0.11747  0.10328  1.0000
  S   S52       1.0  0.50206  0.45659  0.12564  1.0000
  Fe  Fe28      1.0  0.53116  0.37440  0.10337  1.0000
  S   S53       1.0  0.52390  0.39176  0.16526  1.0000
  S   S54       1.0  0.55319  0.32814  0.10049  1.0000
  Fe  Fe29      1.0  0.48280  0.41110  0.14252  1.0000
  S   S55       1.0  0.44043  0.39542  0.16879  1.0000
  S   S56       1.0  0.48909  0.39085  0.08154  1.0000
  C   C127      1.0  0.50668  0.23713  0.08123  1.0000
  C   C128      1.0  0.53408  0.23764  0.09682  1.0000
  C   C129      1.0  0.54814  0.26569  0.10220  1.0000
  C   C130      1.0  0.53479  0.29347  0.09263  1.0000
  H   H127      1.0  0.54454  0.21639  0.10439  1.0000
  H   H128      1.0  0.56943  0.26580  0.11390  1.0000
  H   H129      1.0  0.67411  0.45014  0.23882  1.0000
  C   C131      1.0  0.37721  0.10995  0.25435  1.0000
  C   C132      1.0  0.40685  0.10518  0.25378  1.0000
  C   C133      1.0  0.42331  0.11279  0.22017  1.0000
  C   C134      1.0  0.40998  0.12610  0.18752  1.0000
  C   C135      1.0  0.38035  0.13076  0.18804  1.0000
  H   H130      1.0  0.60836  0.32702  0.15233  1.0000
  H   H131      1.0  0.41697  0.09498  0.27925  1.0000
  H   H132      1.0  0.42234  0.13213  0.16150  1.0000
  H   H133      1.0  0.37012  0.14032  0.16224  1.0000
  C   C136      1.0  0.41433  0.41478  0.19792  1.0000
  C   C137      1.0  0.38932  0.39911  0.20820  1.0000
  H   H134      1.0  0.38974  0.40945  0.05586  1.0000
  C   C138      1.0  0.36997  0.44439  0.24089  1.0000
  C   C139      1.0  0.39504  0.46010  0.23070  1.0000
  C   C140      1.0  0.41722  0.44534  0.20956  1.0000
  H   H135      1.0  0.38683  0.37547  0.19942  1.0000
  H   H136      1.0  0.36469  0.10328  0.27999  1.0000
  H   H137      1.0  0.39733  0.48379  0.23933  1.0000
  H   H138      1.0  0.43638  0.45765  0.20198  1.0000
  C   C141      1.0  0.65543  0.41908  0.12418  1.0000
  H   H139      1.0  0.61644  0.32028  0.10072  1.0000
  S   S57       1.0  0.52623  0.08310  0.15300  1.0000
  S   S58       1.0  0.51569  0.15623  0.16451  1.0000
  Fe  Fe30      1.0  0.55210  0.12584  0.14542  1.0000
  S   S59       1.0  0.59336  0.14082  0.17487  1.0000
  S   S60       1.0  0.54286  0.12995  0.07978  1.0000
  Fe  Fe31      1.0  0.51064  0.43534  0.06555  1.0000
  S   S61       1.0  0.49916  0.45444  0.00416  1.0000
  Fe  Fe32      1.0  0.54411  0.43484  0.14321  1.0000
  S   S62       1.0  0.58070  0.45803  0.17519  1.0000
  S   S63       1.0  0.55352  0.41672  0.08202  1.0000
  C   C142      1.0  0.50732  0.29300  0.07728  1.0000
  C   C143      1.0  0.49341  0.26491  0.07140  1.0000
  H   H140      1.0  0.49695  0.31421  0.06940  1.0000
  H   H141      1.0  0.47226  0.26467  0.05920  1.0000
  H   H142      1.0  0.67872  0.31952  0.35905  1.0000
  C   C144      1.0  0.66915  0.12057  0.22535  1.0000
  C   C145      1.0  0.64593  0.13613  0.20858  1.0000
  C   C146      1.0  0.62357  0.12001  0.19085  1.0000
  C   C147      1.0  0.62509  0.08809  0.18888  1.0000
  C   C148      1.0  0.64829  0.07251  0.20577  1.0000
  H   H143      1.0  0.38513  0.44971  0.13564  1.0000
  H   H144      1.0  0.64503  0.16083  0.21002  1.0000
  H   H145      1.0  0.60823  0.07540  0.17492  1.0000
  C   C149      1.0  0.67019  0.08862  0.22465  1.0000
  C   C150      1.0  0.60827  0.43760  0.19941  1.0000
  C   C151      1.0  0.63240  0.45344  0.21253  1.0000
  C   C152      1.0  0.65545  0.43772  0.22972  1.0000
  C   C153      1.0  0.65450  0.40594  0.23419  1.0000
  C   C154      1.0  0.63002  0.39023  0.22212  1.0000
  C   C155      1.0  0.60710  0.40590  0.20468  1.0000
  H   H146      1.0  0.63345  0.47798  0.20881  1.0000
  C   C156      1.0  0.52644  0.05086  0.97677  1.0000
  C   C157      1.0  0.41769  0.05918  0.12131  1.0000
  H   H147      1.0  0.58863  0.39344  0.19499  1.0000
  N   N12       1.0  0.59015  0.09674  0.27477  1.0000
  C   C158      1.0  0.60229  0.06892  0.28242  1.0000
  C   C159      1.0  0.60299  0.12311  0.28699  1.0000
  C   C160      1.0  0.62821  0.06702  0.30224  1.0000
  N   N13       1.0  0.43045  0.04645  0.15368  1.0000
  C   C161      1.0  0.64154  0.09377  0.31456  1.0000
  H   H148      1.0  0.59954  0.37512  0.09759  1.0000
  H   H149      1.0  0.59248  0.04808  0.27188  1.0000
  C   C162      1.0  0.44680  0.27897  0.15502  1.0000
  H   H150      1.0  0.63863  0.04510  0.30641  1.0000
  C   C163      1.0  0.51555  0.03117  0.00580  1.0000
  H   H151      1.0  0.59386  0.14519  0.27980  1.0000
  C   C164      1.0  0.46044  0.03746  0.15171  1.0000
  C   C165      1.0  0.36373  0.12226  0.22115  1.0000
  H   H152      1.0  0.44432  0.44035  0.03979  1.0000
  N   N14       1.0  0.47276  0.29082  0.16423  1.0000
  C   C166      1.0  0.38628  0.04858  0.18997  1.0000
  H   H153      1.0  0.63953  0.14294  0.31542  1.0000
  H   H154      1.0  0.64905  0.04779  0.20484  1.0000
  C   C167      1.0  0.36731  0.41374  0.22970  1.0000
  H   H155      1.0  0.46430  0.33465  0.13899  1.0000
  C   C168      1.0  0.44230  0.24735  0.15594  1.0000
  H   H156      1.0  0.47109  0.33462  0.19161  1.0000
  C   C169      1.0  0.43466  0.45397  0.06334  1.0000
  H   H157      1.0  0.49970  0.32942  0.15584  1.0000
  C   C170      1.0  0.49056  0.24032  0.17738  1.0000
  H   H158      1.0  0.56550  0.08493  0.22471  1.0000
  C   C171      1.0  0.49438  0.27200  0.17590  1.0000
  H   H159      1.0  0.61563  0.42911  0.09608  1.0000
  H   H160      1.0  0.46148  0.20333  0.16662  1.0000
  H   H161      1.0  0.50807  0.22536  0.18504  1.0000
  H   H162      1.0  0.42956  0.29394  0.14630  1.0000
  H   H163      1.0  0.51504  0.28137  0.18285  1.0000
  H   H164      1.0  0.42199  0.23786  0.14750  1.0000
  H   H165      1.0  0.37442  0.04538  0.21744  1.0000
  C   C172      1.0  0.47717  0.32395  0.16275  1.0000
  C   C173      1.0  0.40478  0.41027  0.08099  1.0000
  H   H166      1.0  0.42544  0.03166  0.21362  1.0000
  H   H167      1.0  0.62897  0.36569  0.22555  1.0000
  H   H168      1.0  0.54582  0.08826  0.27113  1.0000
  H   H169      1.0  0.46022  0.49355  0.04968  1.0000
  C   C174      1.0  0.62882  0.12202  0.30714  1.0000
  C   C175      1.0  0.66234  0.36627  0.14240  1.0000
  H   H170      1.0  0.55754  0.12175  0.24455  1.0000
  C   C176      1.0  0.41514  0.04102  0.18766  1.0000
  C   C177      1.0  0.46440  0.22795  0.16701  1.0000
  H   H171      1.0  0.53029  0.07457  0.98414  1.0000
  C   C178      1.0  0.38890  0.06725  0.12271  1.0000
  C   C179      1.0  0.43165  0.50177  0.09908  1.0000
  N   N15       1.0  0.41417  0.44178  0.08756  1.0000
  H   H172      1.0  0.42328  0.39516  0.07447  1.0000
  C   C180      1.0  0.62559  0.32771  0.12952  1.0000
  C   C181      1.0  0.56337  0.09797  0.25295  1.0000
  H   H173      1.0  0.66229  0.09260  0.32829  1.0000
  H   H174      1.0  0.39428  0.40077  0.10800  1.0000
  C   C182      1.0  0.62927  0.41138  0.10802  1.0000
  H   H175      1.0  0.52200  0.51346  0.03147  1.0000
  H   H176      1.0  0.64233  0.31098  0.13757  1.0000
  H   H177      1.0  0.42988  0.06360  0.09442  1.0000
  H   H178      1.0  0.37902  0.07824  0.09752  1.0000
  C   C183      1.0  0.40164  0.45921  0.11668  1.0000
  C   C184      1.0  0.50387  0.49082  0.98100  1.0000
  C   C185      1.0  0.37314  0.06185  0.15730  1.0000
  C   C186      1.0  0.62017  0.38097  0.10934  1.0000
  N   N16       1.0  0.63664  0.35891  0.12639  1.0000
  C   C187      1.0  0.67222  0.39639  0.14124  1.0000
  C   C188      1.0  0.44372  0.48411  0.06874  1.0000
  H   H179      1.0  0.66215  0.44278  0.12486  1.0000
  H   H180      1.0  0.67492  0.34917  0.15753  1.0000
  H   H181      1.0  0.47177  0.04887  0.12677  1.0000
  H   H182      1.0  0.47146  0.04421  0.17941  1.0000
  S   S64       1.0  0.68415  0.38433  0.25083  1.0000
  C   C189      1.0  0.41040  0.48933  0.12319  1.0000
  H   H183      1.0  0.40087  0.50274  0.14702  1.0000
  H   H184      1.0  0.68590  0.13324  0.23964  1.0000
  H   H185      1.0  0.35705  0.45193  0.34670  1.0000
  H   H186      1.0  0.54040  0.05550  0.91581  1.0000
  C   C190      1.0  0.49536  0.49466  0.94130  1.0000
  C   C191      1.0  0.53217  0.03992  0.93798  1.0000
  H   H187      1.0  0.48636  0.47548  0.92551  1.0000
  H   H188      1.0  0.48598  0.04315  0.86209  1.0000
  H   H189      1.0  0.48134  0.01831  0.82077  1.0000
  H   H190      1.0  0.46811  0.02940  0.92561  1.0000
  H   H191      1.0  0.45304  0.04460  0.83473  1.0000
  H   H192      1.0  0.62774  0.02942  0.69225  1.0000
  C   C192      1.0  0.46992  0.02929  0.84614  1.0000
  H   H193      1.0  0.35936  0.45189  0.48977  1.0000
  H   H194      1.0  0.55186  0.50352  0.87941  1.0000
  H   H195      1.0  0.56475  0.49489  0.80828  1.0000
  C   C193      1.0  0.51068  0.00040  0.99546  1.0000
  H   H196      1.0  0.50241  0.98488  0.01766  1.0000
  H   H197      1.0  0.52687  0.56361  0.99747  1.0000
  C   C194      1.0  0.51805  0.54439  0.98157  1.0000
  H   H198      1.0  0.43881  0.52503  0.10388  1.0000
  C   C195      1.0  0.51532  0.51592  0.00100  1.0000
  H   H199      1.0  0.46238  0.01238  0.14738  1.0000
  Fe  Fe33      1.0  0.48367  0.60694  0.77246  1.0000
  S   S65       1.0  0.46764  0.62524  0.83093  1.0000
  S   S66       1.0  0.45514  0.59154  0.72180  1.0000
  Fe  Fe34      1.0  0.49428  0.66646  0.81626  1.0000
  S   S67       1.0  0.47531  0.71420  0.81266  1.0000
  Fe  Fe35      1.0  0.50759  0.60432  0.85636  1.0000
  S   S68       1.0  0.51430  0.58468  0.91891  1.0000
  S   S69       1.0  0.50845  0.64912  0.75675  1.0000
  S   S70       1.0  0.52237  0.58318  0.79844  1.0000
  Fe  Fe36      1.0  0.48047  0.91983  0.79218  1.0000
  S   S71       1.0  0.49283  0.91498  0.85663  1.0000
  S   S72       1.0  0.43213  0.92142  0.78530  1.0000
  Fe  Fe37      1.0  0.52469  0.95211  0.84506  1.0000
  S   S73       1.0  0.53320  0.99735  0.87751  1.0000
  Fe  Fe38      1.0  0.52608  0.88218  0.83354  1.0000
  S   S74       1.0  0.53860  0.83687  0.86120  1.0000
  S   S75       1.0  0.51050  0.95893  0.78184  1.0000
  S   S76       1.0  0.51202  0.88456  0.77020  1.0000
  H   H200      1.0  0.66196  0.00520  0.76476  1.0000
  H   H201      1.0  0.44113  0.65935  0.71807  1.0000
  C   C196      1.0  0.50946  0.54826  0.94192  1.0000
  C   C197      1.0  0.49257  0.74799  0.82820  1.0000
  C   C198      1.0  0.51691  0.74720  0.85163  1.0000
  C   C199      1.0  0.53043  0.77466  0.86234  1.0000
  C   C200      1.0  0.51993  0.80304  0.84941  1.0000
  H   H202      1.0  0.52519  0.72550  0.86172  1.0000
  H   H203      1.0  0.54923  0.77393  0.88051  1.0000
  H   H204      1.0  0.61421  0.99156  0.68181  1.0000
  C   C201      1.0  0.37129  0.58859  0.75473  1.0000
  C   C202      1.0  0.40120  0.58960  0.75648  1.0000
  C   C203      1.0  0.41736  0.59195  0.72153  1.0000
  C   C204      1.0  0.40320  0.59405  0.68502  1.0000
  C   C205      1.0  0.37327  0.59390  0.68338  1.0000
  C   C206      1.0  0.58343  0.79492  0.78997  1.0000
  H   H205      1.0  0.41176  0.58761  0.78475  1.0000
  H   H206      1.0  0.41547  0.59563  0.65779  1.0000
  H   H207      1.0  0.49143  0.52562  0.89139  1.0000
  H   H208      1.0  0.44793  0.98979  0.96951  1.0000
  C   C207      1.0  0.39965  0.92648  0.67300  1.0000
  C   C208      1.0  0.41899  0.92483  0.70470  1.0000
  C   C209      1.0  0.40897  0.92282  0.74385  1.0000
  C   C210      1.0  0.37944  0.92225  0.75076  1.0000
  H   H209      1.0  0.37388  0.86409  0.64189  1.0000
  H   H210      1.0  0.61230  0.59628  0.89778  1.0000
  H   H211      1.0  0.44160  0.92532  0.69885  1.0000
  H   H212      1.0  0.37143  0.92066  0.78089  1.0000
  H   H213      1.0  0.44367  0.97840  0.82364  1.0000
  Fe  Fe39      1.0  0.54545  0.62760  0.78751  1.0000
  S   S77       1.0  0.53258  0.64771  0.84657  1.0000
  S   S78       1.0  0.59189  0.63962  0.77435  1.0000
  Fe  Fe40      1.0  0.54350  0.92331  0.76552  1.0000
  S   S79       1.0  0.55941  0.91892  0.82759  1.0000
  S   S80       1.0  0.57334  0.92770  0.71186  1.0000
  H   H214      1.0  0.67032  0.55206  0.50228  1.0000
  C   C211      1.0  0.56382  0.52058  0.86296  1.0000
  C   C212      1.0  0.49546  0.80380  0.82628  1.0000
  C   C213      1.0  0.48178  0.77640  0.81592  1.0000
  H   H215      1.0  0.48705  0.82550  0.81639  1.0000
  H   H216      1.0  0.46283  0.77723  0.79806  1.0000
  C   C214      1.0  0.65972  0.60360  0.68560  1.0000
  C   C215      1.0  0.66565  0.62769  0.71157  1.0000
  C   C216      1.0  0.64458  0.63841  0.73834  1.0000
  C   C217      1.0  0.61733  0.62531  0.73944  1.0000
  C   C218      1.0  0.61139  0.60114  0.71358  1.0000
  C   C219      1.0  0.63249  0.59037  0.68688  1.0000
  H   H217      1.0  0.56038  0.99542  0.79983  1.0000
  H   H218      1.0  0.64947  0.65704  0.75828  1.0000
  H   H219      1.0  0.59055  0.59086  0.71394  1.0000
  H   H220      1.0  0.62763  0.57176  0.66688  1.0000
  C   C220      1.0  0.43381  0.96150  0.92101  1.0000
  C   C221      1.0  0.65610  0.93369  0.74660  1.0000
  C   C222      1.0  0.62636  0.92976  0.74782  1.0000
  C   C223      1.0  0.61112  0.92721  0.71251  1.0000
  C   C224      1.0  0.62616  0.92690  0.67620  1.0000
  H   H221      1.0  0.36528  0.83158  0.67237  1.0000
  H   H222      1.0  0.66704  0.93107  0.64677  1.0000
  H   H223      1.0  0.61517  0.92992  0.77601  1.0000
  H   H224      1.0  0.61461  0.92491  0.64871  1.0000
  H   H225      1.0  0.59604  0.99651  0.85320  1.0000
  C   C225      1.0  0.37012  0.92609  0.67996  1.0000
  H   H226      1.0  0.59230  0.53463  0.77162  1.0000
  C   C226      1.0  0.63958  0.00340  0.77236  1.0000
  H   H227      1.0  0.56708  0.70315  0.75003  1.0000
  C   C227      1.0  0.58218  0.76300  0.79233  1.0000
  C   C228      1.0  0.43249  0.95852  0.87983  1.0000
  H   H228      1.0  0.52404  0.80674  0.73575  1.0000
  H   H229      1.0  0.65912  0.90202  0.53466  1.0000
  C   C229      1.0  0.55912  0.71394  0.77792  1.0000
  H   H230      1.0  0.36274  0.59539  0.65507  1.0000
  H   H231      1.0  0.57496  0.60634  0.90049  1.0000
  C   C230      1.0  0.65594  0.93028  0.67502  1.0000
  C   C231      1.0  0.56259  0.81072  0.76913  1.0000
  H   H232      1.0  0.64734  0.00148  0.83551  1.0000
  N   N17       1.0  0.39714  0.66753  0.73067  1.0000
  C   C232      1.0  0.37627  0.66410  0.75883  1.0000
  C   C233      1.0  0.54082  0.79454  0.75092  1.0000
  H   H233      1.0  0.57195  0.70510  0.80297  1.0000
  C   C234      1.0  0.51659  0.98941  0.95674  1.0000
  H   H234      1.0  0.42274  0.93852  0.86656  1.0000
  C   C235      1.0  0.39026  0.67227  0.69176  1.0000
  C   C236      1.0  0.67213  0.85925  0.56070  1.0000
  C   C237      1.0  0.62839  0.00507  0.70135  1.0000
  C   C238      1.0  0.59262  0.59902  0.88031  1.0000
  H   H235      1.0  0.60569  0.58231  0.80583  1.0000
  N   N18       1.0  0.58560  0.57015  0.86060  1.0000
  C   C239      1.0  0.67523  0.88424  0.53533  1.0000
  H   H236      1.0  0.59565  0.61776  0.85839  1.0000
  H   H237      1.0  0.65359  0.85742  0.57993  1.0000
  C   C240      1.0  0.44647  0.98730  0.93753  1.0000
  C   C241      1.0  0.36182  0.67320  0.68011  1.0000
  H   H238      1.0  0.59990  0.80747  0.80520  1.0000
  H   H239      1.0  0.53692  0.70649  0.78355  1.0000
  H   H240      1.0  0.52256  0.75024  0.74108  1.0000
  H   H241      1.0  0.66754  0.93677  0.77400  1.0000
  H   H242      1.0  0.59827  0.75092  0.80899  1.0000
  C   C242      1.0  0.44449  0.98112  0.85566  1.0000
  H   H243      1.0  0.43042  0.65130  0.76761  1.0000
  C   C243      1.0  0.42699  0.66739  0.74262  1.0000
  C   C244      1.0  0.57107  0.51578  0.82315  1.0000
  H   H244      1.0  0.56598  0.55148  0.91242  1.0000
  C   C245      1.0  0.59378  0.56514  0.82201  1.0000
  H   H245      1.0  0.40680  0.67481  0.66943  1.0000
  C   C246      1.0  0.58644  0.53803  0.80258  1.0000
  H   H246      1.0  0.56281  0.83554  0.76827  1.0000
  C   C247      1.0  0.57165  0.54790  0.88144  1.0000
  H   H247      1.0  0.38173  0.66011  0.78961  1.0000
  C   C248      1.0  0.54008  0.76264  0.75413  1.0000
  N   N19       1.0  0.56047  0.74734  0.77495  1.0000
  C   C249      1.0  0.67102  0.93446  0.71020  1.0000
  H   H248      1.0  0.51275  0.96569  0.94940  1.0000
  C   C250      1.0  0.35712  0.59083  0.71824  1.0000
  H   H249      1.0  0.43354  0.69064  0.75215  1.0000
  H   H250      1.0  0.40765  0.92822  0.64287  1.0000
  C   C251      1.0  0.35646  0.84851  0.65125  1.0000
  H   H251      1.0  0.42518  0.94373  0.93999  1.0000
  C   C252      1.0  0.59147  0.99950  0.75261  1.0000
  C   C253      1.0  0.60279  0.99834  0.82233  1.0000
  C   C254      1.0  0.49819  0.52311  0.92182  1.0000
  H   H252      1.0  0.35904  0.58598  0.78185  1.0000
  C   C255      1.0  0.63148  0.00120  0.81238  1.0000
  H   H253      1.0  0.65024  0.99596  0.69645  1.0000
  C   C256      1.0  0.36011  0.92378  0.71906  1.0000
  C   C257      1.0  0.52721  0.00919  0.92763  1.0000
  C   C258      1.0  0.58267  0.99764  0.79230  1.0000
  N   N20       1.0  0.61965  0.00219  0.74308  1.0000
  H   H254      1.0  0.57567  0.99805  0.72945  1.0000
  S   S81       1.0  0.68540  0.58896  0.65122  1.0000
  H   H255      1.0  0.35623  0.67648  0.64922  1.0000
  N   N21       1.0  0.45747  0.00596  0.87211  1.0000
  H   H256      1.0  0.35339  0.78843  0.63455  1.0000
  C   C259      1.0  0.45798  0.00961  0.91247  1.0000
  Fe  Fe41      1.0  0.75861  0.43939  0.34123  1.0000
  S   S82       1.0  0.75187  0.44289  0.27484  1.0000
  S   S83       1.0  0.75307  0.48472  0.37527  1.0000
  Fe  Fe42      1.0  0.76821  0.37009  0.33529  1.0000
  S   S84       1.0  0.76252  0.36946  0.26943  1.0000
  S   S85       1.0  0.77339  0.32624  0.37096  1.0000
  Fe  Fe43      1.0  0.78988  0.41151  0.26935  1.0000
  S   S86       1.0  0.82156  0.41942  0.21860  1.0000
  Fe  Fe44      1.0  0.72510  0.40064  0.28037  1.0000
  S   S87       1.0  0.69688  0.06790  0.25008  1.0000
  S   S88       1.0  0.79823  0.41047  0.33507  1.0000
  S   S89       1.0  0.72927  0.39900  0.34685  1.0000
  Fe  Fe45      1.0  0.76615  0.09098  0.35985  1.0000
  S   S90       1.0  0.76732  0.05793  0.30898  1.0000
  S   S91       1.0  0.76702  0.07648  0.42548  1.0000
  Fe  Fe46      1.0  0.76787  0.14661  0.30357  1.0000
  S   S92       1.0  0.76907  0.11640  0.24906  1.0000
  S   S93       1.0  0.76865  0.19667  0.28466  1.0000
  Fe  Fe47      1.0  0.73530  0.08921  0.28019  1.0000
  H   H257      1.0  0.86457  0.48807  0.35411  1.0000
  Fe  Fe48      1.0  0.80099  0.08840  0.28219  1.0000
  S   S94       1.0  0.84089  0.06586  0.25581  1.0000
  S   S95       1.0  0.73193  0.12080  0.33286  1.0000
  S   S96       1.0  0.80195  0.11992  0.33490  1.0000
  H   H258      1.0  0.71557  0.33000  0.35362  1.0000
  C   C260      1.0  0.87201  0.10630  0.12317  1.0000
  C   C261      1.0  0.01191  0.28982  0.08548  1.0000
  S   S97       1.0  0.99304  0.32456  0.08027  1.0000
  Fe  Fe49      1.0  0.98600  0.11922  0.14597  1.0000
  S   S98       1.0  0.94427  0.13605  0.17380  1.0000
  S   S99       1.0  0.99358  0.13785  0.08452  1.0000
  C   C262      1.0  0.89913  0.05839  0.11632  1.0000
  H   H259      1.0  0.82663  0.08903  0.44397  1.0000
  H   H260      1.0  0.87888  0.12957  0.13228  1.0000
  C   C263      1.0  0.99464  0.40581  0.97869  1.0000
  Fe  Fe50      1.0  0.98789  0.41646  0.16838  1.0000
  S   S100      1.0  0.95696  0.42533  0.21987  1.0000
  S   S101      1.0  0.98182  0.41120  0.10232  1.0000
  H   H261      1.0  0.97642  0.26239  0.06713  1.0000
  N   N22       1.0  0.70119  0.29784  0.31141  1.0000
  N   N23       1.0  0.89619  0.08874  0.10733  1.0000
  N   N24       1.0  0.97486  0.26855  0.17156  1.0000
  C   C264      1.0  0.95438  0.29256  0.16138  1.0000
  C   C265      1.0  0.85853  0.10487  0.40246  1.0000
  C   C266      1.0  0.87043  0.08591  0.23591  1.0000
  C   C267      1.0  0.87055  0.11777  0.23284  1.0000
  C   C268      1.0  0.89383  0.13274  0.21499  1.0000
  C   C269      1.0  0.91724  0.11610  0.20004  1.0000
  C   C270      1.0  0.91751  0.08429  0.20416  1.0000
  C   C271      1.0  0.89417  0.06929  0.22193  1.0000
  H   H262      1.0  0.85248  0.13087  0.24355  1.0000
  H   H263      1.0  0.89341  0.15737  0.21206  1.0000
  H   H264      1.0  0.93545  0.07122  0.19301  1.0000
  H   H265      1.0  0.89436  0.04463  0.22443  1.0000
  C   C272      1.0  0.91949  0.42056  0.21847  1.0000
  C   C273      1.0  0.90440  0.42263  0.18300  1.0000
  C   C274      1.0  0.87448  0.42145  0.18353  1.0000
  C   C275      1.0  0.85927  0.41750  0.21930  1.0000
  C   C276      1.0  0.87438  0.41438  0.25465  1.0000
  C   C277      1.0  0.90429  0.41640  0.25427  1.0000
  H   H266      1.0  0.91574  0.42607  0.15528  1.0000
  H   H267      1.0  0.86303  0.42395  0.15603  1.0000
  H   H268      1.0  0.86299  0.41098  0.28230  1.0000
  H   H269      1.0  0.91574  0.41465  0.28185  1.0000
  C   C278      1.0  0.77424  0.28993  0.34736  1.0000
  C   C279      1.0  0.77087  0.26320  0.37012  1.0000
  C   C280      1.0  0.77028  0.23413  0.35179  1.0000
  C   C281      1.0  0.77327  0.23163  0.31052  1.0000
  C   C282      1.0  0.77738  0.25830  0.28803  1.0000
  C   C283      1.0  0.77773  0.28725  0.30625  1.0000
  H   H270      1.0  0.76836  0.26503  0.40200  1.0000
  H   H271      1.0  0.76699  0.21380  0.36945  1.0000
  H   H272      1.0  0.77981  0.25661  0.25612  1.0000
  H   H273      1.0  0.78089  0.30746  0.28842  1.0000
  H   H274      1.0  0.01615  0.44028  0.25279  1.0000
  H   H275      1.0  0.87987  0.06582  0.32032  1.0000
  C   C284      1.0  0.93723  0.08594  0.06455  1.0000
  C   C285      1.0  0.99815  0.26211  0.07721  1.0000
  C   C286      1.0  0.76419  0.49776  0.42281  1.0000
  C   C287      1.0  0.70610  0.24346  0.30334  1.0000
  C   C288      1.0  0.76288  0.03973  0.44803  1.0000
  C   C289      1.0  0.87345  0.09822  0.36747  1.0000
  H   H276      1.0  0.85526  0.10828  0.10038  1.0000
  H   H277      1.0  0.82781  0.49619  0.20349  1.0000
  H   H278      1.0  0.85459  0.45005  0.33835  1.0000
  H   H279      1.0  0.86269  0.09533  0.15005  1.0000
  H   H280      1.0  0.88827  0.11464  0.35505  1.0000
  H   H281      1.0  0.86163  0.12653  0.41756  1.0000
  H   H282      1.0  0.96322  0.31587  0.16575  1.0000
  S   S102      1.0  0.01163  0.37222  0.17445  1.0000
  N   N25       1.0  0.84030  0.48580  0.30127  1.0000
  C   C290      1.0  0.94066  0.05513  0.07393  1.0000
  C   C291      1.0  0.77898  0.47905  0.44920  1.0000
  C   C292      1.0  0.84306  0.02188  0.34082  1.0000
  C   C293      1.0  0.82424  0.49703  0.23536  1.0000
  S   S103      1.0  0.00443  0.07275  0.13126  1.0000
  C   C294      1.0  0.81493  0.49573  0.31673  1.0000
  C   C295      1.0  0.99254  0.49044  0.00367  1.0000
  C   C296      1.0  0.79831  0.50719  0.25086  1.0000
  C   C297      1.0  0.01216  0.03570  0.98664  1.0000
  H   H283      1.0  0.71717  0.22774  0.24457  1.0000
  Fe  Fe51      1.0  0.00849  0.36851  0.10857  1.0000
  H   H284      1.0  0.86017  0.01618  0.31904  1.0000
  H   H285      1.0  0.88431  0.04741  0.13658  1.0000
  H   H286      1.0  0.70702  0.22074  0.31618  1.0000
  C   C298      1.0  0.01386  0.22250  0.18793  1.0000
  S   S104      1.0  0.00245  0.07072  0.01074  1.0000
  H   H287      1.0  0.97921  0.47610  0.02209  1.0000
  C   C299      1.0  0.83898  0.08384  0.41737  1.0000
  C   C300      1.0  0.70111  0.26911  0.32737  1.0000
  H   H288      1.0  0.97964  0.19133  0.17595  1.0000
  N   N26       1.0  0.84926  0.05006  0.36267  1.0000
  H   H289      1.0  0.00136  0.21275  0.07615  1.0000
  H   H290      1.0  0.93492  0.29060  0.18009  1.0000
  H   H291      1.0  0.69783  0.26595  0.35901  1.0000
  C   C301      1.0  0.00207  0.27599  0.18154  1.0000
  C   C302      1.0  0.01222  0.23396  0.08229  1.0000
  C   C303      1.0  0.98605  0.21511  0.17798  1.0000
  C   C304      1.0  0.96671  0.23857  0.16978  1.0000
  C   C305      1.0  0.91492  0.10258  0.08188  1.0000
  C   C306      1.0  0.69595  0.32431  0.33725  1.0000
  H   H292      1.0  0.94866  0.29063  0.12952  1.0000
  H   H293      1.0  0.91278  0.12669  0.07500  1.0000
  C   C307      1.0  0.83445  0.05648  0.39683  1.0000
  H   H294      1.0  0.00884  0.29967  0.18180  1.0000
  H   H295      1.0  0.82307  0.02486  0.32399  1.0000
  H   H296      1.0  0.78420  0.45579  0.44078  1.0000
  C   C308      1.0  0.00090  0.37879  0.99880  1.0000
  C   C309      1.0  0.92159  0.04122  0.10013  1.0000
  H   H297      1.0  0.81857  0.04068  0.40801  1.0000
  H   H298      1.0  0.95190  0.09689  0.04406  1.0000
  H   H299      1.0  0.94526  0.23259  0.16141  1.0000
  H   H300      1.0  0.98396  0.36409  0.00953  1.0000
  H   H301      1.0  0.95819  0.04216  0.06096  1.0000
  H   H302      1.0  0.71846  0.28026  0.21626  1.0000
  C   C310      1.0  0.86855  0.07053  0.34788  1.0000
  H   H303      1.0  0.86508  0.47823  0.24864  1.0000
  H   H304      1.0  0.81080  0.49465  0.34848  1.0000
  C   C311      1.0  0.71192  0.24743  0.26301  1.0000
  C   C312      1.0  0.79368  0.50686  0.29183  1.0000
  H   H305      1.0  0.69204  0.40235  0.15546  1.0000
  H   H306      1.0  0.75241  0.01539  0.39459  1.0000
  H   H307      1.0  0.88260  0.47015  0.31286  1.0000
  C   C313      1.0  0.84520  0.48656  0.26115  1.0000
  C   C314      1.0  0.86163  0.47293  0.32794  1.0000
  H   H308      1.0  0.92422  0.01731  0.10782  1.0000
  H   H309      1.0  0.68937  0.34474  0.31997  1.0000
  Fe  Fe52      1.0  0.01438  0.09222  0.07070  1.0000
  C   C315      1.0  0.70748  0.30201  0.27204  1.0000
  C   C316      1.0  0.71282  0.27688  0.24722  1.0000
  H   H310      1.0  0.97275  0.41240  0.97367  1.0000
  H   H311      1.0  0.70881  0.32487  0.25978  1.0000
  H   H312      1.0  0.77259  0.05671  0.50648  1.0000
  H   H313      1.0  0.79816  0.47562  0.50705  1.0000
  H   H314      1.0  0.95832  0.50476  0.96558  1.0000
  H   H315      1.0  0.73580  0.48133  0.61616  1.0000
  C   C317      1.0  0.78689  0.49039  0.48680  1.0000
  C   C318      1.0  0.71660  0.50032  0.52235  1.0000
  C   C319      1.0  0.76706  0.03675  0.48922  1.0000
  C   C320      1.0  0.72816  0.48307  0.55320  1.0000
  C   C321      1.0  0.72627  0.49404  0.59208  1.0000
  H   H316      1.0  0.71891  0.49198  0.49210  1.0000
  H   H317      1.0  0.98907  0.04689  0.93362  1.0000
  C   C322      1.0  0.00215  0.02992  0.94804  1.0000
  H   H318      1.0  0.73937  0.46190  0.54675  1.0000
  H   H319      1.0  0.89899  0.50347  0.71724  1.0000
  H   H320      1.0  0.01174  0.44570  0.95039  1.0000
  C   C323      1.0  0.01681  0.42463  0.96575  1.0000
  C   C324      1.0  0.98077  0.50669  0.97149  1.0000
  H   H321      1.0  0.74650  0.96526  0.42838  1.0000
  C   C325      1.0  0.75763  0.52796  0.43446  1.0000
  H   H322      1.0  0.74634  0.54272  0.41422  1.0000
  C   C326      1.0  0.75238  0.98513  0.44557  1.0000
  H   H323      1.0  0.74356  0.88396  0.46425  1.0000
  H   H324      1.0  0.84067  0.00226  0.36147  1.0000
  H   H325      1.0  0.77342  0.51427  0.30423  1.0000
  H   H326      1.0  0.78162  0.51471  0.23116  1.0000
  C   C327      1.0  0.76550  0.53929  0.47208  1.0000
  H   H327      1.0  0.69562  0.53521  0.46816  1.0000
  C   C328      1.0  0.75575  0.01360  0.42624  1.0000
  Fe  Fe53      1.0  0.75900  0.92998  0.57385  1.0000
  S   S105      1.0  0.77019  0.95812  0.62744  1.0000
  S   S106      1.0  0.75098  0.94572  0.50971  1.0000
  Fe  Fe54      1.0  0.75930  0.86980  0.62247  1.0000
  S   S107      1.0  0.77154  0.89430  0.67855  1.0000
  S   S108      1.0  0.74513  0.82045  0.63103  1.0000
  Fe  Fe55      1.0  0.73851  0.92898  0.66114  1.0000
  S   S109      1.0  0.70748  0.94495  0.70963  1.0000
  Fe  Fe56      1.0  0.80207  0.92064  0.64021  1.0000
  S   S110      1.0  0.84799  0.93473  0.65204  1.0000
  S   S111      1.0  0.72506  0.90359  0.60690  1.0000
  S   S112      1.0  0.79224  0.89360  0.58490  1.0000
  Fe  Fe57      1.0  0.77791  0.57609  0.58295  1.0000
  S   S113      1.0  0.76538  0.56787  0.64684  1.0000
  S   S114      1.0  0.78892  0.53267  0.54748  1.0000
  Fe  Fe58      1.0  0.77286  0.64571  0.59456  1.0000
  S   S115      1.0  0.75906  0.64189  0.65845  1.0000
  S   S116      1.0  0.78358  0.69050  0.56356  1.0000
  Fe  Fe59      1.0  0.79432  0.60683  0.66245  1.0000
  S   S117      1.0  0.82295  0.60802  0.71706  1.0000
  Fe  Fe60      1.0  0.73125  0.60328  0.63752  1.0000
  N   N27       1.0  0.96161  0.80151  0.78780  1.0000
  S   S118      1.0  0.80947  0.61257  0.59965  1.0000
  S   S119      1.0  0.74254  0.60965  0.57262  1.0000
  Fe  Fe61      1.0  0.98608  0.60421  0.77874  1.0000
  S   S120      1.0  0.96915  0.61533  0.83943  1.0000
  S   S121      1.0  0.95788  0.59740  0.72450  1.0000
  H   H328      1.0  0.72924  0.75972  0.65155  1.0000
  H   H329      1.0  0.79182  0.97187  0.75227  1.0000
  H   H330      1.0  0.74350  0.70863  0.62591  1.0000
  H   H331      1.0  0.80640  0.94132  0.72186  1.0000
  C   C329      1.0  0.77213  0.72655  0.58169  1.0000
  C   C330      1.0  0.78368  0.75335  0.56514  1.0000
  Fe  Fe62      1.0  0.98340  0.90810  0.79519  1.0000
  S   S122      1.0  0.99867  0.88354  0.84996  1.0000
  S   S123      1.0  0.93579  0.89968  0.78737  1.0000
  C   C331      1.0  0.83091  0.67884  0.66312  1.0000
  C   C332      1.0  0.77608  0.78239  0.58019  1.0000
  H   H332      1.0  0.79881  0.75157  0.54086  1.0000
  H   H333      1.0  0.85253  0.99679  0.69925  1.0000
  N   N28       1.0  0.83959  0.69775  0.63315  1.0000
  C   C333      1.0  0.75636  0.78481  0.61137  1.0000
  C   C334      1.0  0.81338  0.73938  0.66269  1.0000
  H   H334      1.0  0.99656  0.82160  0.75804  1.0000
  H   H335      1.0  0.78532  0.80283  0.56757  1.0000
  C   C335      1.0  0.74460  0.75804  0.62751  1.0000
  N   N29       1.0  0.90729  0.53561  0.76284  1.0000
  H   H336      1.0  0.76030  0.56252  0.48057  1.0000
  C   C336      1.0  0.75259  0.72903  0.61301  1.0000
  H   H337      1.0  0.95475  0.72705  0.81353  1.0000
  H   H338      1.0  0.82763  0.94224  0.79802  1.0000
  H   H339      1.0  0.86398  0.54511  0.77770  1.0000
  H   H340      1.0  0.96433  0.84404  0.75667  1.0000
  C   C337      1.0  0.86067  0.60817  0.71755  1.0000
  C   C338      1.0  0.87696  0.60262  0.68330  1.0000
  C   C339      1.0  0.90680  0.60067  0.68568  1.0000
  C   C340      1.0  0.92071  0.60428  0.72220  1.0000
  C   C341      1.0  0.90448  0.61101  0.75613  1.0000
  C   C342      1.0  0.87463  0.61285  0.75379  1.0000
  H   H341      1.0  0.86657  0.59887  0.65521  1.0000
  H   H342      1.0  0.91916  0.59547  0.65923  1.0000
  H   H343      1.0  0.91483  0.61391  0.78441  1.0000
  H   H344      1.0  0.86226  0.61737  0.78041  1.0000
  C   C343      1.0  0.69319  0.54680  0.49745  1.0000
  C   C344      1.0  0.95079  0.81502  0.82141  1.0000
  H   H345      1.0  0.80578  0.97959  0.70339  1.0000
  H   H346      1.0  0.91258  0.97675  0.79059  1.0000
  Fe  Fe63      1.0  0.00010  0.58003  0.86232  1.0000
  C   C345      1.0  0.87309  0.92090  0.68682  1.0000
  C   C346      1.0  0.90121  0.93161  0.68454  1.0000
  C   C347      1.0  0.92111  0.92425  0.71410  1.0000
  C   C348      1.0  0.91299  0.90626  0.74650  1.0000
  C   C349      1.0  0.88513  0.89474  0.74813  1.0000
  C   C350      1.0  0.86530  0.90188  0.71840  1.0000
  H   H347      1.0  0.90746  0.94630  0.66020  1.0000
  H   H348      1.0  0.94243  0.93328  0.71239  1.0000
  H   H349      1.0  0.87864  0.88075  0.77304  1.0000
  H   H350      1.0  0.84381  0.89340  0.72052  1.0000
  Fe  Fe64      1.0  0.00525  0.64885  0.84218  1.0000
  C   C351      1.0  0.00879  0.00236  0.92791  1.0000
  H   H351      1.0  0.69150  0.56052  0.57425  1.0000
  C   C352      1.0  0.99771  0.52553  0.94704  1.0000
  H   H352      1.0  0.83724  0.65502  0.66314  1.0000
  H   H353      1.0  0.96218  0.53711  0.82678  1.0000
  H   H354      1.0  0.99838  0.75783  0.89747  1.0000
  C   C353      1.0  0.83094  0.72764  0.63251  1.0000
  H   H355      1.0  0.95011  0.83976  0.82413  1.0000
  H   H356      1.0  0.87588  0.94667  0.82617  1.0000
  H   H357      1.0  0.84250  0.67643  0.57680  1.0000
  C   C354      1.0  0.80442  0.72022  0.69337  1.0000
  C   C355      1.0  0.84332  0.95626  0.78300  1.0000
  C   C356      1.0  0.97310  0.82039  0.75559  1.0000
  C   C357      1.0  0.76392  0.00823  0.50850  1.0000
  H   H358      1.0  0.69185  0.81810  0.58280  1.0000
  C   C358      1.0  0.95288  0.75178  0.81550  1.0000
  C   C359      1.0  0.88441  0.99008  0.74350  1.0000
  H   H359      1.0  0.93263  0.80795  0.87980  1.0000
  C   C360      1.0  0.71773  0.84032  0.53827  1.0000
  H   H360      1.0  0.79017  0.72880  0.71635  1.0000
  C   C361      1.0  0.85674  0.68534  0.60025  1.0000
  C   C362      1.0  0.87048  0.95878  0.79917  1.0000
  C   C363      1.0  0.94177  0.76533  0.84985  1.0000
  C   C364      1.0  0.81337  0.68977  0.69379  1.0000
  H   H361      1.0  0.87061  0.70316  0.58701  1.0000
  H   H362      1.0  0.73458  0.82346  0.54061  1.0000
  S   S124      1.0  0.00870  0.95101  0.80781  1.0000
  H   H363      1.0  0.92348  0.55200  0.87324  1.0000
  N   N30       1.0  0.83697  0.97022  0.74786  1.0000
  H   H364      1.0  0.83683  0.74233  0.60790  1.0000
  C   C365      1.0  0.96316  0.77033  0.78483  1.0000
  H   H365      1.0  0.97291  0.75963  0.75898  1.0000
  H   H366      1.0  0.96761  0.81068  0.72617  1.0000
  S   S125      1.0  0.01750  0.88784  0.75617  1.0000
  C   C366      1.0  0.69349  0.83712  0.56222  1.0000
  H   H367      1.0  0.87063  0.66636  0.61044  1.0000
  S   S126      1.0  0.98177  0.54469  0.90608  1.0000
  S   S127      1.0  0.01509  0.56671  0.80077  1.0000
  C   C367      1.0  0.94073  0.79715  0.85294  1.0000
  N   N31       1.0  0.70386  0.52792  0.53002  1.0000
  H   H368      1.0  0.80631  0.67443  0.71718  1.0000
  C   C368      1.0  0.89101  0.54932  0.82843  1.0000
  H   H369      1.0  0.00076  0.99831  0.89839  1.0000
  C   C369      1.0  0.93453  0.53339  0.77628  1.0000
  H   H370      1.0  0.01750  0.80621  0.86952  1.0000
  C   C370      1.0  0.94060  0.53893  0.81618  1.0000
  N   N32       1.0  0.72051  0.86475  0.51324  1.0000
  S   S128      1.0  0.99806  0.69612  0.86870  1.0000
  H   H371      1.0  0.93483  0.75108  0.87443  1.0000
  C   C371      1.0  0.88557  0.54309  0.78841  1.0000
  C   C372      1.0  0.89112  0.97574  0.77918  1.0000
  H   H372      1.0  0.87388  0.55599  0.84843  1.0000
  H   H373      1.0  0.80591  0.76289  0.66147  1.0000
  C   C373      1.0  0.91875  0.54717  0.84232  1.0000
  H   H374      1.0  0.88153  0.54007  0.71125  1.0000
  C   C374      1.0  0.01391  0.72955  0.84937  1.0000
  C   C375      1.0  0.75635  0.98220  0.48684  1.0000
  C   C376      1.0  0.00999  0.75743  0.86958  1.0000
  H   H375      1.0  0.76704  0.00651  0.54019  1.0000
  C   C377      1.0  0.80883  0.96566  0.73062  1.0000
  H   H376      1.0  0.95184  0.52791  0.75596  1.0000
  C   C378      1.0  0.85710  0.98695  0.72806  1.0000
  H   H377      1.0  0.90060  0.00238  0.72699  1.0000
  C   C379      1.0  0.69979  0.88675  0.51184  1.0000
  C   C380      1.0  0.90129  0.52853  0.72120  1.0000
  H   H378      1.0  0.75400  0.84583  0.47775  1.0000
  H   H379      1.0  0.76352  0.87810  0.50863  1.0000
  C   C381      1.0  0.78006  0.52048  0.49863  1.0000
  H   H380      1.0  0.91874  0.53687  0.70154  1.0000
  C   C382      1.0  0.70155  0.53861  0.56812  1.0000
  H   H381      1.0  0.71096  0.53059  0.62982  1.0000
  H   H382      1.0  0.70528  0.56857  0.49608  1.0000
  C   C383      1.0  0.71257  0.52178  0.59971  1.0000
  C   C384      1.0  0.74666  0.86821  0.48975  1.0000
  H   H383      1.0  0.70249  0.90678  0.49320  1.0000
  H   H384      1.0  0.68644  0.63808  0.71103  1.0000
