data_image0
_chemical_formula_structural       FeS2FeS2FeSFeS3FeS2FeS2FeSFeHS2FeS2NS2FeSCSFeS2FeS2FeSFeS3FeS2FeS2FeSFeSHFeS2HCFeS2CH4S2HFeC3HFeS2C4SHCHSC3HCH4CH3CH2CHSC2NCNH2NC6HSH3CH2SC6H4C6H4C6H4C6H5C2SHC7H4C2NH2CHNSH2C6H4C6H4C6H4C6H4FeHCHC3FeCHNCHC2H5NC6H8C3H2CHCSC3NC2NC6H8CSHC2H3CNS2HSH5C2HC4H3CHC2H2CHCH3CHCHFeCH3FeCH2NCH2FeCH3CH2SC2H3SH2NCH4C2HC4HC2HC2HC3HCHSNCHCFeSFeSCH2C2H4FeHCSC3HC2H3CH3NHC2FeSH5SHSHCHCS2HCS3HC2FeHCFeCHSFeSCH3CHCFeCH2CH3NSH2C2HFeCHSC2FeH3C2HC3HCHSC2HC6NCHC3SHSHCHCFeCSHSHC2H2CH2SHC3HCHC2HSH2CH2FeCNCH3C3Fe2SHFeS2FeSFeSCSH3FeS2FeSCFeSFeS3HC2H2NCHCFeSC2HFeCSHCH6C2FeS2CH4FeSHSH4SCHC3H2CH2C2HNH2C2HC2H3C2H3C2H2SC3HC3H4CH3FeH2CH2C13H6CHCHC2HNCHC2HCHC8H4NCH2C3N2C7H2CH2CSH3C2SC4H2CHC2HC3H5CHCHSC2H2CHSCSHCHCHNCSC2FeHSFeSFeS2FeS2FeSFeS3FeS2FeS2FeSFeCS2FeS2FeSFeS2FeS2FeSFeS3FeS2FeS2FeSFeS3FeS2NSCFeSFeHS2FeS2FeHS3FeSHSH6CH3CSHSH2CHC7H3CH2CFeH9C4SC6H4C6H4C6H4C3H2C6H4C6H4C6H6C2HSCHFeC6H4C6H4C6H4C7H3CNC7NC2H4NC6H2CH5SH2SHC4HC2H3NHFeHC2HFeHSHC3H2CHNSNH2CH3NCHCH6C4HFeHCH5C2HC6HCHCH2C4HC2HNC6H6C2NC6H3CSH3NC5H3C2NC2SH2C2SH2CHC2HCHCNHC3H2CSHSCHNC3SC2H3SHCHSNHC2H2C3H3CH2C3NCH3FeSH4CH2C2HCH2C2H5C2H2SH5C2HC2H2CSHFeHCH4CHC2H2CH2CHSCSC2FeCH4SHCHCHCHC2FeS2FeSH2S2CFeS2CNHFeS2H2CHSHFeSFeS2FeS2FeSFeS3FeS2FeS2FeSFeS3FeS2FeS2FeCFeCSFeS2FeS2FeCS2FeS2FeS2FeSFeS3FeS2FeS2FeSFeS4H2CH3SNHSFeSH3C2HCHFeCH3CSCNC3HC2H2CHC7H4C6H4C6H5CH5C4NCH2C6H4C2HCHSCHS2C6H4C6H4C6H4CH2SHC6H4CNH4SC3SC6H6SH2FeHCSH2CHFeHC6H4C6H5C4HCH2CNC2H4NC6H8NHCHSC2H4FeH3CH2C4H2CNC2H5NC6H3CH4CHN2C6H10C5H2C3HCH3NHC2H2C5FeHC2HSC2H2C4HC2SHCHC2HSCHC2NSCH2CH4SHCH4CHC2HC2HNH2CHC2HC4HC2H2NC2H3CHCH2C2HSH2SC2H2CH5FeC4NHNC7NCHSH2CHCH2CHCFeNHCH3C2HFeHCNH3C2H4SHSH4FeHCHCHFeC2H3CSH3C2H2CSCH3CFeH2CNH2FeSC2H2CSC4HCH2S2FeSH2CH3SNHCFeSCHFeS2FeS2FeSFeS3FeS2FeS2FeSH2SFe2S3FeSFeS2FeS2FeS2FeSFeS3FeS2FeS2FeSFeS3FeS2FeSFeSFeS3FeHFeS2FeSCHSHC6H4C6H4C6H4C6H4C6H3C6H4C6H4C6H4C6H7CH2SCHNC6H4C6H4SC6H6C6H4CH2SHC3HS2CHCH3CH2NCHCH4NHSFeCH2NSH2CH5NC6H11C4FeHCNHCH2CH2CHCHC3H2CNC6H8CHNC6H7CFeHCH2C2H2CHCH2CH5SHCHNCHCSCNC2HFeH2NH2SH2SHC3HFeH3C3HC2SCNCHCHCHC3HCSC2HNHCFeSCH2CSHC2H3SHCFeHC2SHCNHC2H2C2SCH3C2HCHCFeHC2HSC2HC2FeCH5C4H2SH2CFeH2CHFeS2FeCSFeSFeHS2FeS2FeS2FeSFeS3FeS2FeS2FeSFeS3FeSFeS2FeSFeS3FeS2FeS2FeSFeS3FeS2FeS2FeSFeS3FeS2FeS2FeSFeS3FeS2H4NFeSHSCHC2HC6H4C6H5C6H4C6H4C6H4C6H4C6H4C6H4C6H5C2HC4H4CSC6H4C6H4C6H4C4H3C6H5C4H4C4H2C2HCH2C3NC2HCH4NC6H2CH2CH2NC6H8NC6H8NC6H7CNC6H6C2H2C2SC2H4C2H2CHFeHCH3SH3CHC3HNH3CHCH2SHCHC2N3HCHC2H4SC2HSNCH3CHC2HCH2C2NH7CSHSHC2HCHC2H3NCH3CSHNHCH2NC2FeHCHCH2CHC2HC2HC2H2FeH2CFeHNC4H3CHCH2NHC2H3C3HC2H2CH2CHCSC6SHNHC2H3NH2SH5FeH3CHCHCSCFeS2FeS2FeSFeS3NHCHCH2C2FeS2FeS2FeSFeS3HFeS2FeS2FeSFeS3FeHFeS2CFeS3FeS2FeS2FeSFeS3HSHNSHFeS2C2HFeS2FeS2FeSFeS3FeS2FeS2FeHFeS3HFeHC2HNHC6H5SCH3C3HSH2C6H4C6H4C4HCH4C6H4C6H4C6H5C4HCHCH3CFeHCH2C7H4C6H4C6HCH4C4H2CHC6H4C6H4C6H5C2HCSH4C6SH3NC5H7NC6H8CH2C5H5NCNC6H8NC2HCHSC3HNHNCH3C3H2S2HSCSC5SH5CHCHC2HCHCHC2HCHCHCH2CH4CH2SHCHCHCH3SC5N2C2HSCHC3HCHSH2FeCHC2HCH2CH2SC2HCFeC3SH4FeHFeH4CH2C4N2SCHCHC4FeSCHCHNH3NCNFeCNHCH3NCHCFeHC5FeCH3SH2SCHCFeSC2SCHC2H4C2NHC2SCNHCH2CHFeHNCH4C3HCSH3CHSH2C2HC3HCHCH2C4H5CH2CSHSCHCHC2H3C3HC2FeCH2NHCSHCH2SH4CH2CH5SC3FeCH2CSCSFeS2FeSFeS2HFeS2FeS2FeSFeS3HSH2FeS2CHCFeSFeCSHFeS2FeS2FeSFeS3FeS2FeS2FeSFeS3FeS2FeS2FeSFeS3C6H4C6H5C4HS2NC6H4C6H4C3SCHC6H4C6H4C6H4C6H4C6H4C6H4C6HNH2C6SH3SH2CHCFeNC6H5NC6HCH2CH3NC6H8NHC3HCSHC3HFeNC2H3CH2FeHCHCNCSHCHC3HCHC2H2C2HNC2HSH2CSC2HCHSHC2NH4SH2FeH3NCNHC3HCHCSHNC6H3CH4FeH6CH2CHCH2CHCH4NHC2SCHCHCH3SCH2FeCSHC6HCH2CH4C2H2SH2SNH2C3H3CS2NCHSHC2H2CHCHCHCH3CFeH3CHCFeH2C3HFeHCNHCHFeC2HCH2FeS2FeHFeS3HCHFeS2HC2H2SFeHC6H2CH3S2C3H2C4HSHCH2C6HCSHSNCH2FeHCH3C2HSC2H2CH3C2H2SNCHNHSH2C3NCH3C3FeHFeCHC3FeCNC4H3SHC2H2FeHCFeS2FeHFeS3FeS2FeCFeSFeHS2FeSCFeS2FeSFeCS2FeS2CHCHFeCSHSCNH5SHFeSCH3FeS2FeS2FeSFeS4H2CH3CH2CFeS2CHCFeSC2SHFeS2FeS2FeSFeS3H2SH3CNHC2HC4H5C6H5CSHCHCH2C6H4C6H5NC5H5C6H4C7H5C2H2CSCSHCHC2H2CHN2C2SH2CH5CN2SC3HNHCHCHC6H4C6H4C6HCH2C7H3CFeCSH3NC6H9CH2C2HCHCNC3HNC6H10CSC2H3CH3CFeC3HNCHC2H5CS2C2HSFeH2CHCH2CNCHC2H2CH2CHFeS2FeS2FeSFeS4FeS2FeS2FeSFeS4FeSCH2CHSHC2NCFeH2SFeHCHC2HCHCNC5H2S2C9H4C6H4C6H4C7H4C6H4C6H5FeC7H3S2CH4SFe2HSH2CH2NHC2H2CH2C2FeHS2CSCFeCHC2HC2SCH3CHC2H4CNCSH2C2H3NC6H8S2C6H4CH5CFeH4C2NFeHNCH2C6NSCHNH2CSC2HC3H3FeHCH2N2CH2SCHCH3SHCHCH2FeHSC2HC3HS4H2C3HCH2CHCSCH2FeC2HNH2SHCFeH2CH3CH2CSFeCHSH3CH2C2HCHC2H5CHC2HSFeCHC2HCSC3HC
_chemical_formula_sum              "Fe336 S672 H2016 N168 C2016"
_cell_length_a       145.916
_cell_length_b       145.435
_cell_length_c       36.0386
_cell_angle_alpha    74.4765
_cell_angle_beta     74.5897
_cell_angle_gamma    98.911

_space_group_name_H-M_alt    "P 1"
_space_group_IT_number       1

loop_
  _space_group_symop_operation_xyz
  'x, y, z'

loop_
  _atom_site_type_symbol
  _atom_site_label
  _atom_site_symmetry_multiplicity
  _atom_site_fract_x
  _atom_site_fract_y
  _atom_site_fract_z
  _atom_site_occupancy
  Fe  Fe1       1.0  0.07809  0.51310  0.21551  1.0000
  S   S1        1.0  0.07832  0.50264  0.27293  1.0000
  S   S2        1.0  0.07378  0.52705  0.21932  1.0000
  Fe  Fe2       1.0  0.08348  0.49975  0.16587  1.0000
  S   S3        1.0  0.08437  0.48811  0.22027  1.0000
  S   S4        1.0  0.08744  0.50180  0.09780  1.0000
  Fe  Fe3       1.0  0.07027  0.49101  0.25455  1.0000
  S   S5        1.0  0.05672  0.48146  0.30733  1.0000
  Fe  Fe4       1.0  0.09233  0.50073  0.23494  1.0000
  S   S6        1.0  0.10541  0.50010  0.25945  1.0000
  S   S7        1.0  0.06901  0.50186  0.19964  1.0000
  S   S8        1.0  0.09254  0.51200  0.17801  1.0000
  Fe  Fe5       1.0  0.14807  0.53806  0.41351  1.0000
  S   S9        1.0  0.16103  0.55064  0.37724  1.0000
  S   S10       1.0  0.14358  0.53238  0.48275  1.0000
  Fe  Fe6       1.0  0.14213  0.53664  0.33789  1.0000
  S   S11       1.0  0.15493  0.54927  0.29587  1.0000
  S   S12       1.0  0.12965  0.53210  0.31326  1.0000
  Fe  Fe7       1.0  0.16396  0.54254  0.33230  1.0000
  S   S13       1.0  0.17971  0.54290  0.29929  1.0000
  Fe  Fe8       1.0  0.15127  0.55653  0.34324  1.0000
  H   H1        1.0  0.15909  0.52104  0.44376  1.0000
  S   S14       1.0  0.15153  0.52911  0.37114  1.0000
  S   S15       1.0  0.13790  0.54466  0.38316  1.0000
  Fe  Fe9       1.0  0.10279  0.56473  0.26645  1.0000
  S   S16       1.0  0.09928  0.57212  0.31369  1.0000
  S   S17       1.0  0.10487  0.54948  0.27737  1.0000
  N   N1        1.0  0.17850  0.56633  0.86256  1.0000
  S   S18       1.0  0.02196  0.49997  0.79234  1.0000
  S   S19       1.0  0.03779  0.53880  0.83329  1.0000
  Fe  Fe10      1.0  0.08866  0.57717  0.28171  1.0000
  S   S20       1.0  0.07264  0.57604  0.31521  1.0000
  C   C1        1.0  0.11409  0.59976  0.99484  1.0000
  S   S21       1.0  0.09154  0.56878  0.23780  1.0000
  Fe  Fe11      1.0  0.06876  0.48542  0.93384  1.0000
  S   S22       1.0  0.07136  0.47975  0.87991  1.0000
  S   S23       1.0  0.06981  0.47823  0.99656  1.0000
  Fe  Fe12      1.0  0.06390  0.50349  0.88875  1.0000
  S   S24       1.0  0.06616  0.49976  0.83137  1.0000
  S   S25       1.0  0.05983  0.51745  0.89239  1.0000
  Fe  Fe13      1.0  0.05765  0.48439  0.87157  1.0000
  S   S26       1.0  0.04376  0.47838  0.85764  1.0000
  Fe  Fe14      1.0  0.07957  0.49555  0.84327  1.0000
  S   S27       1.0  0.09399  0.50177  0.79126  1.0000
  S   S28       1.0  0.05452  0.48871  0.92863  1.0000
  S   S29       1.0  0.07791  0.50061  0.89720  1.0000
  Fe  Fe15      1.0  0.16021  0.54644  0.66138  1.0000
  S   S30       1.0  0.14534  0.54828  0.69234  1.0000
  S   S31       1.0  0.16563  0.54751  0.59409  1.0000
  Fe  Fe16      1.0  0.16790  0.54760  0.73350  1.0000
  S   S32       1.0  0.15343  0.54927  0.76883  1.0000
  S   S33       1.0  0.18014  0.54698  0.76310  1.0000
  Fe  Fe17      1.0  0.14611  0.53754  0.74881  1.0000
  S   S34       1.0  0.13288  0.52678  0.80049  1.0000
  Fe  Fe18      1.0  0.15382  0.55964  0.71002  1.0000
  S   S35       1.0  0.16063  0.53492  0.71724  1.0000
  H   H2        1.0  0.21107  0.58657  0.05898  1.0000
  Fe  Fe19      1.0  0.09028  0.55570  0.93296  1.0000
  S   S36       1.0  0.09454  0.56509  0.86804  1.0000
  S   S37       1.0  0.09110  0.53996  0.94891  1.0000
  H   H3        1.0  0.23345  0.58181  0.96627  1.0000
  C   C2        1.0  0.17189  0.52768  0.54045  1.0000
  Fe  Fe20      1.0  0.08068  0.56995  0.88858  1.0000
  S   S38       1.0  0.07131  0.57121  0.84589  1.0000
  S   S39       1.0  0.07606  0.55983  0.95318  1.0000
  C   C3        1.0  0.09419  0.52460  0.34844  1.0000
  H   H4        1.0  0.12043  0.57755  0.78331  1.0000
  H   H5        1.0  0.07770  0.56303  0.19256  1.0000
  H   H6        1.0  0.09608  0.49180  0.40251  1.0000
  H   H7        1.0  0.00687  0.47086  0.76755  1.0000
  S   S40       1.0  0.23334  0.59410  0.80239  1.0000
  S   S41       1.0  0.02102  0.44904  0.31365  1.0000
  H   H8        1.0  0.15906  0.59969  0.76545  1.0000
  Fe  Fe21      1.0  0.23849  0.58622  0.85313  1.0000
  C   C4        1.0  0.06870  0.57110  0.22223  1.0000
  C   C5        1.0  0.18067  0.53689  0.42639  1.0000
  C   C6        1.0  0.17466  0.58435  0.62599  1.0000
  H   H9        1.0  0.13053  0.56117  0.73881  1.0000
  Fe  Fe22      1.0  0.00924  0.44970  0.75919  1.0000
  S   S42       1.0  0.00794  0.46136  0.70678  1.0000
  S   S43       1.0  0.02391  0.45100  0.77273  1.0000
  C   C7        1.0  0.22574  0.58976  0.06243  1.0000
  C   C8        1.0  0.14470  0.56888  0.43585  1.0000
  C   C9        1.0  0.20118  0.57049  0.78721  1.0000
  C   C10       1.0  0.21091  0.59884  0.31185  1.0000
  S   S44       1.0  0.11831  0.58364  0.85458  1.0000
  H   H10       1.0  0.00608  0.49360  0.68270  1.0000
  C   C11       1.0  0.00445  0.54922  0.65225  1.0000
  H   H11       1.0  0.16145  0.56588  0.44402  1.0000
  S   S45       1.0  0.22883  0.59958  0.16181  1.0000
  C   C12       1.0  0.01243  0.49270  0.78386  1.0000
  C   C13       1.0  0.01342  0.48370  0.77868  1.0000
  C   C14       1.0  0.00361  0.48508  0.56728  1.0000
  H   H12       1.0  0.03808  0.54740  0.26778  1.0000
  C   C15       1.0  0.12483  0.56633  0.33106  1.0000
  H   H13       1.0  0.17178  0.57856  0.61545  1.0000
  H   H14       1.0  0.01992  0.48126  0.78065  1.0000
  H   H15       1.0  0.16281  0.59143  0.62345  1.0000
  H   H16       1.0  0.19393  0.54566  0.80773  1.0000
  C   C16       1.0  0.10346  0.51361  0.37466  1.0000
  H   H17       1.0  0.13775  0.58027  0.26541  1.0000
  H   H18       1.0  0.14486  0.57891  0.19732  1.0000
  H   H19       1.0  0.12853  0.59289  0.96105  1.0000
  C   C17       1.0  0.00341  0.49249  0.40470  1.0000
  H   H20       1.0  0.12025  0.60083  0.00598  1.0000
  H   H21       1.0  0.21171  0.58403  0.16075  1.0000
  C   C18       1.0  0.01110  0.52926  0.64004  1.0000
  H   H22       1.0  0.20492  0.55808  0.82262  1.0000
  S   S46       1.0  0.23407  0.59561  0.89115  1.0000
  C   C19       1.0  0.16106  0.59365  0.75618  1.0000
  C   C20       1.0  0.16512  0.52506  0.44989  1.0000
  N   N2        1.0  0.15063  0.57416  0.45049  1.0000
  C   C21       1.0  0.10134  0.48875  0.02574  1.0000
  N   N3        1.0  0.17221  0.52919  0.49816  1.0000
  H   H23       1.0  0.20006  0.59449  0.37121  1.0000
  H   H24       1.0  0.21354  0.56327  0.23188  1.0000
  N   N4        1.0  0.18817  0.57169  0.21417  1.0000
  C   C22       1.0  0.06151  0.56237  0.84428  1.0000
  C   C23       1.0  0.05777  0.56463  0.81150  1.0000
  C   C24       1.0  0.05046  0.55761  0.80769  1.0000
  C   C25       1.0  0.04672  0.54822  0.83687  1.0000
  C   C26       1.0  0.05031  0.54606  0.87005  1.0000
  C   C27       1.0  0.05760  0.55307  0.87384  1.0000
  H   H25       1.0  0.06063  0.57182  0.78855  1.0000
  S   S47       1.0  0.16866  0.55876  0.67535  1.0000
  H   H26       1.0  0.04748  0.53887  0.89304  1.0000
  H   H27       1.0  0.06022  0.55126  0.89965  1.0000
  H   H28       1.0  0.19598  0.58107  0.74867  1.0000
  C   C28       1.0  0.18924  0.56628  0.75353  1.0000
  H   H29       1.0  0.03089  0.45292  0.48597  1.0000
  H   H30       1.0  0.18501  0.56857  0.73381  1.0000
  S   S48       1.0  0.03332  0.52869  0.74501  1.0000
  C   C29       1.0  0.03805  0.46987  0.83776  1.0000
  C   C30       1.0  0.04273  0.46328  0.82280  1.0000
  C   C31       1.0  0.03816  0.45731  0.80432  1.0000
  C   C32       1.0  0.02883  0.45776  0.80086  1.0000
  C   C33       1.0  0.02396  0.46397  0.81773  1.0000
  C   C34       1.0  0.02857  0.47005  0.83561  1.0000
  H   H31       1.0  0.04994  0.46291  0.82468  1.0000
  H   H32       1.0  0.04196  0.45242  0.79203  1.0000
  H   H33       1.0  0.01667  0.46416  0.81652  1.0000
  H   H34       1.0  0.02479  0.47502  0.84744  1.0000
  C   C35       1.0  0.10459  0.50904  0.79411  1.0000
  C   C36       1.0  0.11247  0.51421  0.75825  1.0000
  C   C37       1.0  0.12112  0.51984  0.75945  1.0000
  C   C38       1.0  0.12203  0.52021  0.79671  1.0000
  C   C39       1.0  0.11410  0.51515  0.83253  1.0000
  C   C40       1.0  0.10541  0.50965  0.83126  1.0000
  H   H35       1.0  0.11193  0.51378  0.72936  1.0000
  H   H36       1.0  0.12716  0.52367  0.73166  1.0000
  H   H37       1.0  0.11474  0.51542  0.86146  1.0000
  H   H38       1.0  0.09945  0.50570  0.85908  1.0000
  C   C41       1.0  0.06751  0.52345  0.91314  1.0000
  C   C42       1.0  0.06965  0.53367  0.90183  1.0000
  C   C43       1.0  0.07677  0.53875  0.91344  1.0000
  C   C44       1.0  0.08183  0.53356  0.93627  1.0000
  C   C45       1.0  0.07949  0.52328  0.94869  1.0000
  C   C46       1.0  0.07217  0.51822  0.93789  1.0000
  H   H39       1.0  0.06607  0.53767  0.88267  1.0000
  H   H40       1.0  0.07848  0.54668  0.90367  1.0000
  H   H41       1.0  0.08330  0.51922  0.96669  1.0000
  H   H42       1.0  0.07010  0.51028  0.94893  1.0000
  C   C47       1.0  0.06348  0.56495  0.32961  1.0000
  C   C48       1.0  0.06574  0.55691  0.31816  1.0000
  C   C49       1.0  0.05829  0.54855  0.32615  1.0000
  C   C50       1.0  0.04845  0.54801  0.34617  1.0000
  C   C51       1.0  0.04616  0.55591  0.35889  1.0000
  C   C52       1.0  0.05364  0.56436  0.35046  1.0000
  H   H43       1.0  0.07321  0.55728  0.30208  1.0000
  H   H44       1.0  0.06014  0.54252  0.31627  1.0000
  H   H45       1.0  0.10879  0.49735  0.37159  1.0000
  H   H46       1.0  0.05178  0.57053  0.35952  1.0000
  H   H47       1.0  0.10025  0.57431  0.01956  1.0000
  C   C53       1.0  0.16573  0.56184  0.83553  1.0000
  C   C54       1.0  0.07368  0.54769  0.79316  1.0000
  S   S49       1.0  0.08861  0.58270  0.90286  1.0000
  H   H48       1.0  0.08585  0.58334  0.14207  1.0000
  C   C55       1.0  0.03740  0.51265  0.89167  1.0000
  C   C56       1.0  0.14924  0.53757  0.51301  1.0000
  C   C57       1.0  0.15819  0.54463  0.49587  1.0000
  C   C58       1.0  0.16292  0.54786  0.52114  1.0000
  C   C59       1.0  0.15871  0.54420  0.56381  1.0000
  C   C60       1.0  0.14961  0.53738  0.58088  1.0000
  C   C61       1.0  0.14495  0.53403  0.55560  1.0000
  H   H49       1.0  0.16166  0.54731  0.46326  1.0000
  H   H50       1.0  0.17000  0.55308  0.50763  1.0000
  H   H51       1.0  0.14631  0.53442  0.61363  1.0000
  H   H52       1.0  0.13805  0.52854  0.56924  1.0000
  C   C62       1.0  0.18957  0.55281  0.29149  1.0000
  C   C63       1.0  0.18833  0.55961  0.31234  1.0000
  N   N5        1.0  0.00186  0.49246  0.63185  1.0000
  H   H53       1.0  0.03106  0.54493  0.56419  1.0000
  H   H54       1.0  0.03550  0.49515  0.84744  1.0000
  C   C64       1.0  0.19877  0.55409  0.26296  1.0000
  H   H55       1.0  0.18139  0.55869  0.33472  1.0000
  N   N6        1.0  0.09748  0.48459  0.95962  1.0000
  S   S50       1.0  0.21316  0.59247  0.87346  1.0000
  H   H56       1.0  0.19985  0.54882  0.24695  1.0000
  H   H57       1.0  0.17562  0.52183  0.55026  1.0000
  C   C65       1.0  0.04662  0.47328  0.30533  1.0000
  C   C66       1.0  0.03756  0.47093  0.33620  1.0000
  C   C67       1.0  0.02950  0.46395  0.33764  1.0000
  C   C68       1.0  0.03050  0.45899  0.30898  1.0000
  C   C69       1.0  0.03952  0.46145  0.27776  1.0000
  C   C70       1.0  0.04751  0.46866  0.27559  1.0000
  H   H58       1.0  0.03679  0.47443  0.35943  1.0000
  H   H59       1.0  0.02262  0.46217  0.36179  1.0000
  H   H60       1.0  0.04040  0.45765  0.25551  1.0000
  H   H61       1.0  0.05446  0.47035  0.25183  1.0000
  C   C71       1.0  0.08123  0.49555  0.07199  1.0000
  C   C72       1.0  0.07506  0.48608  0.09109  1.0000
  C   C73       1.0  0.07129  0.48097  0.06794  1.0000
  C   C74       1.0  0.07344  0.48536  0.02575  1.0000
  C   C75       1.0  0.07931  0.49496  0.00708  1.0000
  C   C76       1.0  0.08327  0.49995  0.02994  1.0000
  H   H62       1.0  0.07349  0.48254  0.12335  1.0000
  H   H63       1.0  0.06682  0.47352  0.08272  1.0000
  H   H64       1.0  0.08118  0.49840  0.97468  1.0000
  H   H65       1.0  0.08822  0.50715  0.01465  1.0000
  C   C77       1.0  0.11291  0.50941  0.26994  1.0000
  C   C78       1.0  0.11115  0.51875  0.26512  1.0000
  C   C79       1.0  0.11657  0.52564  0.27737  1.0000
  C   C80       1.0  0.12387  0.52335  0.29459  1.0000
  C   C81       1.0  0.12585  0.51407  0.29843  1.0000
  C   C82       1.0  0.12041  0.50717  0.28610  1.0000
  H   H66       1.0  0.10540  0.52053  0.25300  1.0000
  H   H67       1.0  0.11489  0.53273  0.27452  1.0000
  H   H68       1.0  0.13144  0.51214  0.31146  1.0000
  H   H69       1.0  0.12191  0.49998  0.28982  1.0000
  C   C83       1.0  0.08252  0.53359  0.23401  1.0000
  C   C84       1.0  0.09224  0.53285  0.22244  1.0000
  C   C85       1.0  0.09916  0.53788  0.23516  1.0000
  C   C86       1.0  0.09631  0.54337  0.26061  1.0000
  C   C87       1.0  0.08657  0.54403  0.27255  1.0000
  C   C88       1.0  0.07972  0.53932  0.25854  1.0000
  H   H70       1.0  0.09454  0.52859  0.20298  1.0000
  H   H71       1.0  0.10676  0.53764  0.22472  1.0000
  H   H72       1.0  0.08434  0.54810  0.29299  1.0000
  H   H73       1.0  0.07224  0.53994  0.26739  1.0000
  Fe  Fe23      1.0  0.24178  0.59578  0.12502  1.0000
  H   H74       1.0  0.19838  0.59482  0.78430  1.0000
  C   C89       1.0  0.03497  0.49848  0.87127  1.0000
  H   H75       1.0  0.18456  0.55473  0.88851  1.0000
  C   C90       1.0  0.19670  0.57886  0.20050  1.0000
  C   C91       1.0  0.02009  0.53626  0.62157  1.0000
  C   C92       1.0  0.18479  0.57386  0.87098  1.0000
  Fe  Fe24      1.0  0.02231  0.53494  0.71886  1.0000
  C   C93       1.0  0.17177  0.56889  0.84418  1.0000
  H   H76       1.0  0.16459  0.57624  0.45957  1.0000
  N   N7        1.0  0.04781  0.51262  0.31971  1.0000
  C   C94       1.0  0.05028  0.50719  0.29457  1.0000
  H   H77       1.0  0.18046  0.57897  0.36405  1.0000
  C   C95       1.0  0.04344  0.49903  0.29664  1.0000
  C   C96       1.0  0.05504  0.52128  0.31623  1.0000
  H   H78       1.0  0.05760  0.50912  0.27285  1.0000
  H   H79       1.0  0.04546  0.49466  0.27701  1.0000
  H   H80       1.0  0.05555  0.52749  0.28942  1.0000
  H   H81       1.0  0.05303  0.52360  0.34377  1.0000
  H   H82       1.0  0.06240  0.51971  0.31230  1.0000
  N   N8        1.0  0.08016  0.53057  0.06625  1.0000
  C   C97       1.0  0.07898  0.53960  0.04726  1.0000
  C   C98       1.0  0.08381  0.52928  0.09801  1.0000
  C   C99       1.0  0.08129  0.54759  0.06062  1.0000
  C   C100      1.0  0.08620  0.53711  0.11216  1.0000
  C   C101      1.0  0.08491  0.54631  0.09332  1.0000
  C   C102      1.0  0.07809  0.52236  0.05103  1.0000
  H   H83       1.0  0.07631  0.54068  0.02140  1.0000
  H   H84       1.0  0.08492  0.52215  0.11242  1.0000
  H   H85       1.0  0.08031  0.55472  0.04555  1.0000
  H   H86       1.0  0.08902  0.53602  0.13760  1.0000
  H   H87       1.0  0.08675  0.55246  0.10388  1.0000
  H   H88       1.0  0.07289  0.52340  0.03349  1.0000
  H   H89       1.0  0.08503  0.52177  0.03084  1.0000
  H   H90       1.0  0.07478  0.51530  0.07651  1.0000
  C   C103      1.0  0.13739  0.57263  0.42291  1.0000
  C   C104      1.0  0.19552  0.57334  0.76189  1.0000
  C   C105      1.0  0.13611  0.58179  0.42546  1.0000
  H   H91       1.0  0.08764  0.52373  0.85855  1.0000
  H   H92       1.0  0.12551  0.54307  0.76854  1.0000
  C   C106      1.0  0.08968  0.52648  0.82485  1.0000
  H   H93       1.0  0.10660  0.49889  0.92381  1.0000
  C   C107      1.0  0.22143  0.58398  0.01013  1.0000
  S   S51       1.0  0.01378  0.49377  0.45692  1.0000
  C   C108      1.0  0.01925  0.53582  0.55495  1.0000
  C   C109      1.0  0.18848  0.55624  0.77041  1.0000
  C   C110      1.0  0.03094  0.49660  0.94272  1.0000
  N   N9        1.0  0.08430  0.53387  0.81274  1.0000
  C   C111      1.0  0.03142  0.49240  0.91189  1.0000
  C   C112      1.0  0.19608  0.56772  0.30397  1.0000
  N   N10       1.0  0.03926  0.48091  0.71760  1.0000
  C   C113      1.0  0.03980  0.48878  0.73165  1.0000
  C   C114      1.0  0.04610  0.47546  0.71834  1.0000
  C   C115      1.0  0.04728  0.49131  0.74726  1.0000
  C   C116      1.0  0.05383  0.47794  0.73278  1.0000
  C   C117      1.0  0.05434  0.48585  0.74777  1.0000
  C   C118      1.0  0.03096  0.47783  0.70433  1.0000
  H   H94       1.0  0.03432  0.49303  0.73172  1.0000
  H   H95       1.0  0.04538  0.46893  0.70913  1.0000
  H   H96       1.0  0.04743  0.49728  0.75992  1.0000
  H   H97       1.0  0.05907  0.47344  0.73439  1.0000
  H   H98       1.0  0.05998  0.48753  0.76110  1.0000
  H   H99       1.0  0.02535  0.47174  0.72969  1.0000
  H   H100      1.0  0.02751  0.48397  0.69496  1.0000
  H   H101      1.0  0.03333  0.47512  0.67811  1.0000
  C   C119      1.0  0.15495  0.58842  0.74071  1.0000
  S   S52       1.0  0.01033  0.53619  0.41871  1.0000
  H   H102      1.0  0.01103  0.55367  0.62744  1.0000
  C   C120      1.0  0.18750  0.56414  0.19829  1.0000
  C   C121      1.0  0.01389  0.43038  0.44891  1.0000
  H   H103      1.0  0.11146  0.54576  0.88496  1.0000
  H   H104      1.0  0.12877  0.56315  0.35181  1.0000
  H   H105      1.0  0.14576  0.56184  0.43306  1.0000
  C   C122      1.0  0.13603  0.59676  0.82890  1.0000
  N   N11       1.0  0.02258  0.44388  0.46256  1.0000
  S   S53       1.0  0.00217  0.43734  0.74055  1.0000
  S   S54       1.0  0.12485  0.59365  0.27301  1.0000
  H   H106      1.0  0.17546  0.53457  0.54413  1.0000
  S   S55       1.0  0.02258  0.52060  0.45587  1.0000
  H   H107      1.0  0.02241  0.53845  0.52213  1.0000
  H   H108      1.0  0.08800  0.52009  0.81427  1.0000
  H   H109      1.0  0.16420  0.52555  0.56128  1.0000
  H   H110      1.0  0.18601  0.53971  0.47339  1.0000
  H   H111      1.0  0.11673  0.56390  0.85406  1.0000
  C   C123      1.0  0.16956  0.59087  0.76054  1.0000
  C   C124      1.0  0.09330  0.47784  0.99776  1.0000
  H   H112      1.0  0.02425  0.50017  0.37147  1.0000
  C   C125      1.0  0.18011  0.53557  0.46697  1.0000
  C   C126      1.0  0.13983  0.60155  0.29712  1.0000
  C   C127      1.0  0.07604  0.53127  0.80297  1.0000
  C   C128      1.0  0.17917  0.55676  0.87419  1.0000
  H   H113      1.0  0.19732  0.58474  0.21356  1.0000
  H   H114      1.0  0.18689  0.54200  0.40157  1.0000
  H   H115      1.0  0.09176  0.59531  0.95817  1.0000
  C   C129      1.0  0.10554  0.49562  0.98678  1.0000
  H   H116      1.0  0.14114  0.59417  0.44320  1.0000
  C   C130      1.0  0.16480  0.52391  0.49005  1.0000
  C   C131      1.0  0.17325  0.54953  0.86605  1.0000
  H   H117      1.0  0.15844  0.51897  0.51465  1.0000
  H   H118      1.0  0.16060  0.56394  0.81981  1.0000
  C   C132      1.0  0.20428  0.57084  0.15421  1.0000
  H   H119      1.0  0.18723  0.58088  0.84518  1.0000
  C   C133      1.0  0.16655  0.55213  0.84628  1.0000
  H   H120      1.0  0.21061  0.57045  0.13112  1.0000
  H   H121      1.0  0.09772  0.52964  0.81143  1.0000
  H   H122      1.0  0.07343  0.52377  0.80413  1.0000
  C   C134      1.0  0.17312  0.53158  0.41791  1.0000
  H   H123      1.0  0.02870  0.49001  0.32709  1.0000
  C   C135      1.0  0.09520  0.47979  0.03132  1.0000
  H   H124      1.0  0.16222  0.54665  0.83835  1.0000
  Fe  Fe25      1.0  0.02069  0.51561  0.78078  1.0000
  C   C136      1.0  0.01505  0.43570  0.47515  1.0000
  H   H125      1.0  0.02939  0.48447  0.91915  1.0000
  H   H126      1.0  0.08410  0.55755  0.80591  1.0000
  H   H127      1.0  0.06949  0.55304  0.78587  1.0000
  Fe  Fe26      1.0  0.02390  0.53097  0.39474  1.0000
  C   C137      1.0  0.08312  0.57877  0.09278  1.0000
  H   H128      1.0  0.17345  0.53253  0.38659  1.0000
  H   H129      1.0  0.02849  0.49196  0.97429  1.0000
  N   N12       1.0  0.09880  0.50641  0.36345  1.0000
  C   C138      1.0  0.08198  0.55024  0.80396  1.0000
  H   H130      1.0  0.03511  0.45346  0.41378  1.0000
  H   H131      1.0  0.09427  0.47473  0.92782  1.0000
  Fe  Fe27      1.0  0.21863  0.58312  0.83554  1.0000
  C   C139      1.0  0.09493  0.48260  0.92534  1.0000
  H   H132      1.0  0.10528  0.52866  0.37435  1.0000
  H   H133      1.0  0.03861  0.55565  0.37409  1.0000
  H   H134      1.0  0.10055  0.48707  0.89562  1.0000
  C   C140      1.0  0.08723  0.54318  0.81383  1.0000
  H   H135      1.0  0.09347  0.54509  0.82360  1.0000
  H   H136      1.0  0.13216  0.57730  0.79086  1.0000
  S   S56       1.0  0.02597  0.54179  0.65040  1.0000
  C   C141      1.0  0.07060  0.53813  0.79312  1.0000
  C   C142      1.0  0.17174  0.58263  0.75080  1.0000
  H   H137      1.0  0.00530  0.48858  0.87563  1.0000
  H   H138      1.0  0.08830  0.50242  0.33565  1.0000
  H   H139      1.0  0.10022  0.49331  0.34874  1.0000
  S   S57       1.0  0.10685  0.58617  0.12738  1.0000
  H   H140      1.0  0.06388  0.53600  0.78670  1.0000
  H   H141      1.0  0.16957  0.57006  0.33603  1.0000
  N   N13       1.0  0.03798  0.50846  0.86164  1.0000
  C   C143      1.0  0.03388  0.50680  0.93261  1.0000
  H   H142      1.0  0.19497  0.57298  0.32003  1.0000
  H   H143      1.0  0.03373  0.44392  0.36725  1.0000
  H   H144      1.0  0.21199  0.59150  0.31483  1.0000
  H   H145      1.0  0.07479  0.57711  0.21732  1.0000
  C   C144      1.0  0.17956  0.57229  0.24482  1.0000
  C   C145      1.0  0.07032  0.56317  0.20872  1.0000
  H   H146      1.0  0.03963  0.51146  0.79866  1.0000
  C   C146      1.0  0.03853  0.51027  0.34665  1.0000
  C   C147      1.0  0.17213  0.58985  0.36891  1.0000
  C   C148      1.0  0.20653  0.56228  0.25430  1.0000
  C   C149      1.0  0.16964  0.59162  0.63023  1.0000
  H   H147      1.0  0.03381  0.51018  0.95611  1.0000
  C   C150      1.0  0.06239  0.55532  0.21697  1.0000
  C   C151      1.0  0.10701  0.59513  0.94831  1.0000
  H   H148      1.0  0.06373  0.54911  0.20686  1.0000
  C   C152      1.0  0.03404  0.49642  0.32469  1.0000
  C   C153      1.0  0.04271  0.51456  0.81901  1.0000
  H   H149      1.0  0.05796  0.57710  0.25543  1.0000
  C   C154      1.0  0.05921  0.57113  0.24348  1.0000
  C   C155      1.0  0.10106  0.49673  0.37224  1.0000
  C   C156      1.0  0.09183  0.50808  0.34523  1.0000
  H   H150      1.0  0.03648  0.51469  0.36607  1.0000
  C   C157      1.0  0.11815  0.54320  0.82873  1.0000
  H   H151      1.0  0.19504  0.55752  0.15608  1.0000
  S   S58       1.0  0.09892  0.56677  0.95106  1.0000
  N   N14       1.0  0.05311  0.55539  0.23804  1.0000
  C   C158      1.0  0.08947  0.51722  0.33713  1.0000
  H   H152      1.0  0.08422  0.51868  0.32123  1.0000
  C   C159      1.0  0.20517  0.56918  0.27460  1.0000
  Fe  Fe28      1.0  0.10204  0.57682  0.88747  1.0000
  S   S59       1.0  0.15087  0.57240  0.32556  1.0000
  Fe  Fe29      1.0  0.08516  0.57191  0.96600  1.0000
  S   S60       1.0  0.03938  0.53788  0.34933  1.0000
  C   C160      1.0  0.05144  0.56317  0.25119  1.0000
  H   H153      1.0  0.04777  0.55948  0.78211  1.0000
  H   H154      1.0  0.04155  0.52210  0.81411  1.0000
  C   C161      1.0  0.03154  0.50210  0.34972  1.0000
  C   C162      1.0  0.10126  0.52282  0.36712  1.0000
  H   H155      1.0  0.10917  0.51240  0.38816  1.0000
  H   H156      1.0  0.09254  0.53177  0.34195  1.0000
  H   H157      1.0  0.04007  0.52055  0.88403  1.0000
  H   H158      1.0  0.11013  0.50270  0.98236  1.0000
  Fe  Fe30      1.0  0.02802  0.53486  0.79589  1.0000
  H   H159      1.0  0.05071  0.51508  0.81051  1.0000
  C   C163      1.0  0.17333  0.59896  0.64443  1.0000
  S   S61       1.0  0.01549  0.51939  0.37702  1.0000
  C   C164      1.0  0.16790  0.57637  0.34397  1.0000
  C   C165      1.0  0.10348  0.49343  0.95386  1.0000
  C   C166      1.0  0.09701  0.57607  0.04663  1.0000
  H   H160      1.0  0.04414  0.56312  0.26887  1.0000
  C   C167      1.0  0.20057  0.56044  0.80349  1.0000
  C   C168      1.0  0.14920  0.58298  0.45447  1.0000
  H   H161      1.0  0.10253  0.49052  0.05183  1.0000
  H   H162      1.0  0.16735  0.57090  0.72860  1.0000
  H   H163      1.0  0.17117  0.57646  0.83539  1.0000
  C   C169      1.0  0.19432  0.55339  0.79489  1.0000
  H   H164      1.0  0.14844  0.59069  0.73695  1.0000
  H   H165      1.0  0.07552  0.57914  0.10128  1.0000
  H   H166      1.0  0.09157  0.47457  0.06171  1.0000
  N   N15       1.0  0.11483  0.59653  0.96204  1.0000
  H   H167      1.0  0.13051  0.57686  0.74367  1.0000
  C   C170      1.0  0.02414  0.53949  0.57890  1.0000
  C   C171      1.0  0.09889  0.58114  0.10436  1.0000
  Fe  Fe31      1.0  0.01322  0.50960  0.43994  1.0000
  S   S62       1.0  0.20858  0.57982  0.79814  1.0000
  H   H168      1.0  0.08811  0.47106  0.00268  1.0000
  H   H169      1.0  0.15384  0.58709  0.46653  1.0000
  H   H170      1.0  0.18078  0.57513  0.89923  1.0000
  H   H171      1.0  0.08777  0.48431  0.92538  1.0000
  H   H172      1.0  0.00056  0.50094  0.90711  1.0000
  S   S63       1.0  0.22427  0.57434  0.88336  1.0000
  H   H173      1.0  0.04661  0.54005  0.25938  1.0000
  S   S64       1.0  0.21276  0.58129  0.98609  1.0000
  H   H174      1.0  0.11694  0.56242  0.34377  1.0000
  C   C172      1.0  0.23126  0.58412  0.99276  1.0000
  H   H175      1.0  0.19159  0.57168  0.87439  1.0000
  C   C173      1.0  0.02849  0.44152  0.39772  1.0000
  S   S65       1.0  0.01769  0.54207  0.76746  1.0000
  S   S66       1.0  0.07991  0.57505  0.02582  1.0000
  H   H176      1.0  0.01963  0.45605  0.48108  1.0000
  C   C174      1.0  0.15959  0.57948  0.33870  1.0000
  S   S67       1.0  0.01608  0.52105  0.83337  1.0000
  S   S68       1.0  0.11481  0.57735  0.22189  1.0000
  S   S69       1.0  0.14977  0.57389  0.70995  1.0000
  H   H177      1.0  0.00423  0.45891  0.53917  1.0000
  C   C175      1.0  0.16555  0.57725  0.73617  1.0000
  C   C176      1.0  0.17415  0.58151  0.35927  1.0000
  Fe  Fe32      1.0  0.21972  0.58452  0.91844  1.0000
  H   H178      1.0  0.01975  0.42948  0.38865  1.0000
  C   C177      1.0  0.04492  0.54712  0.24570  1.0000
  Fe  Fe33      1.0  0.22912  0.58733  0.21457  1.0000
  C   C178      1.0  0.15836  0.57022  0.46322  1.0000
  H   H179      1.0  0.24596  0.58771  0.99480  1.0000
  S   S70       1.0  0.24139  0.58273  0.17647  1.0000
  Fe  Fe34      1.0  0.00627  0.52765  0.80124  1.0000
  S   S71       1.0  0.21434  0.57991  0.26409  1.0000
  C   C179      1.0  0.08893  0.58106  0.11621  1.0000
  H   H180      1.0  0.00767  0.42412  0.45871  1.0000
  H   H181      1.0  0.04350  0.54720  0.21686  1.0000
  H   H182      1.0  0.18714  0.57877  0.63342  1.0000
  C   C180      1.0  0.11860  0.55935  0.83512  1.0000
  H   H183      1.0  0.19350  0.59207  0.65757  1.0000
  C   C181      1.0  0.21865  0.58663  0.04551  1.0000
  Fe  Fe35      1.0  0.10322  0.58210  0.19632  1.0000
  C   C182      1.0  0.08717  0.57650  0.05733  1.0000
  H   H184      1.0  0.01931  0.44549  0.52173  1.0000
  H   H185      1.0  0.14040  0.56292  0.18537  1.0000
  C   C183      1.0  0.11562  0.54910  0.85277  1.0000
  H   H186      1.0  0.11055  0.57854  0.06035  1.0000
  H   H187      1.0  0.17526  0.56482  0.26554  1.0000
  H   H188      1.0  0.17830  0.58051  0.75420  1.0000
  N   N16       1.0  0.12383  0.56358  0.79462  1.0000
  S   S72       1.0  0.24493  0.59522  0.06085  1.0000
  H   H189      1.0  0.15141  0.59041  0.34279  1.0000
  H   H190      1.0  0.11613  0.53524  0.84208  1.0000
  C   C184      1.0  0.12688  0.57434  0.77715  1.0000
  C   C185      1.0  0.10285  0.57846  0.06987  1.0000
  H   H191      1.0  0.12527  0.57416  0.32917  1.0000
  Fe  Fe36      1.0  0.11068  0.58540  0.26695  1.0000
  C   C186      1.0  0.12418  0.59492  0.94043  1.0000
  H   H192      1.0  0.18080  0.55836  0.20966  1.0000
  S   S73       1.0  0.09977  0.59121  0.23787  1.0000
  C   C187      1.0  0.13093  0.55556  0.24697  1.0000
  C   C188      1.0  0.15785  0.58804  0.34665  1.0000
  Fe  Fe37      1.0  0.00872  0.52510  0.47930  1.0000
  H   H193      1.0  0.00434  0.48219  0.54207  1.0000
  H   H194      1.0  0.12189  0.55026  0.30946  1.0000
  H   H195      1.0  0.15537  0.56543  0.49557  1.0000
  C   C189      1.0  0.23563  0.59027  0.04390  1.0000
  C   C190      1.0  0.15722  0.58022  0.73056  1.0000
  H   H196      1.0  0.17478  0.57600  0.22982  1.0000
  C   C191      1.0  0.20489  0.57850  0.17055  1.0000
  C   C192      1.0  0.13986  0.57257  0.22177  1.0000
  C   C193      1.0  0.12628  0.55785  0.77081  1.0000
  H   H197      1.0  0.17413  0.54205  0.87336  1.0000
  C   C194      1.0  0.14200  0.58698  0.44158  1.0000
  H   H198      1.0  0.13297  0.56859  0.40987  1.0000
  S   S74       1.0  0.01022  0.52137  0.75072  1.0000
  C   C195      1.0  0.12345  0.54759  0.78745  1.0000
  C   C196      1.0  0.12694  0.55658  0.28501  1.0000
  H   H199      1.0  0.12891  0.54853  0.24243  1.0000
  C   C197      1.0  0.00602  0.47784  0.77114  1.0000
  C   C198      1.0  0.19554  0.56360  0.16813  1.0000
  C   C199      1.0  0.13737  0.56363  0.21510  1.0000
  C   C200      1.0  0.13574  0.57333  0.26028  1.0000
  C   C201      1.0  0.16405  0.59318  0.36198  1.0000
  C   C202      1.0  0.23834  0.58737  0.00926  1.0000
  N   N17       1.0  0.12919  0.56544  0.29098  1.0000
  C   C203      1.0  0.01010  0.52909  0.57348  1.0000
  H   H200      1.0  0.11571  0.59669  0.35119  1.0000
  C   C204      1.0  0.00626  0.48737  0.43674  1.0000
  C   C205      1.0  0.00379  0.49566  0.78303  1.0000
  C   C206      1.0  0.02315  0.44988  0.48911  1.0000
  S   S75       1.0  0.17773  0.59769  0.77700  1.0000
  H   H201      1.0  0.13904  0.59040  0.82909  1.0000
  S   S76       1.0  0.17941  0.59576  0.39144  1.0000
  H   H202      1.0  0.13068  0.58492  0.41442  1.0000
  C   C207      1.0  0.00513  0.49881  0.59275  1.0000
  H   H203      1.0  0.00978  0.43330  0.50546  1.0000
  C   C208      1.0  0.02065  0.43336  0.40985  1.0000
  Fe  Fe38      1.0  0.00556  0.44581  0.35732  1.0000
  C   C209      1.0  0.00607  0.52584  0.61611  1.0000
  S   S77       1.0  0.23955  0.59705  0.23248  1.0000
  H   H204      1.0  0.00866  0.50027  0.52898  1.0000
  S   S78       1.0  0.00232  0.45158  0.40969  1.0000
  H   H205      1.0  0.10760  0.59257  0.92231  1.0000
  C   C210      1.0  0.00313  0.47711  0.45247  1.0000
  C   C211      1.0  0.02924  0.44685  0.42429  1.0000
  H   H206      1.0  0.18175  0.57642  0.26423  1.0000
  H   H207      1.0  0.01033  0.55149  0.69872  1.0000
  C   C212      1.0  0.12584  0.59562  0.84032  1.0000
  H   H208      1.0  0.00777  0.52685  0.67263  1.0000
  H   H209      1.0  0.22364  0.59212  0.08880  1.0000
  S   S79       1.0  0.00354  0.45258  0.62227  1.0000
  H   H210      1.0  0.12294  0.58881  0.92784  1.0000
  C   C213      1.0  0.18680  0.59201  0.64982  1.0000
  C   C214      1.0  0.20428  0.60053  0.34364  1.0000
  C   C215      1.0  0.18327  0.58450  0.63602  1.0000
  H   H211      1.0  0.00570  0.50038  0.39252  1.0000
  C   C216      1.0  0.00605  0.49522  0.55994  1.0000
  H   H212      1.0  0.00258  0.50217  0.79016  1.0000
  C   C217      1.0  0.00407  0.54795  0.69242  1.0000
  C   C218      1.0  0.12960  0.59817  0.30745  1.0000
  H   H213      1.0  0.14460  0.60074  0.27014  1.0000
  S   S80       1.0  0.00310  0.52494  0.54509  1.0000
  H   H214      1.0  0.00520  0.47310  0.47764  1.0000
  H   H215      1.0  0.16229  0.59948  0.36994  1.0000
  C   C219      1.0  0.09807  0.59676  0.96813  1.0000
  H   H216      1.0  0.21591  0.60220  0.74370  1.0000
  H   H217      1.0  0.00707  0.50671  0.58659  1.0000
  Fe  Fe39      1.0  0.00180  0.52356  0.40574  1.0000
  C   C220      1.0  0.09719  0.59987  0.00205  1.0000
  N   N18       1.0  0.18181  0.59910  0.65399  1.0000
  C   C221      1.0  0.12358  0.59920  0.34274  1.0000
  H   H218      1.0  0.09018  0.60077  0.01863  1.0000
  H   H219      1.0  0.00293  0.50438  0.65631  1.0000
  H   H220      1.0  0.12853  0.60172  0.91487  1.0000
  C   C222      1.0  0.10525  0.60142  0.01550  1.0000
  C   C223      1.0  0.00104  0.49620  0.66623  1.0000
  C   C224      1.0  0.20198  0.60192  0.78426  1.0000
  Fe  Fe40      1.0  0.22808  0.60269  0.84326  1.0000
  Fe  Fe41      1.0  0.17488  0.60956  0.39607  1.0000
  S   S81       1.0  0.17235  0.61946  0.34246  1.0000
  H   H221      1.0  0.23869  0.67199  0.13494  1.0000
  Fe  Fe42      1.0  0.16824  0.62156  0.45140  1.0000
  S   S82       1.0  0.16477  0.63223  0.40146  1.0000
  S   S83       1.0  0.16380  0.61998  0.51926  1.0000
  Fe  Fe43      1.0  0.15809  0.61893  0.38714  1.0000
  S   S84       1.0  0.14266  0.61495  0.38164  1.0000
  Fe  Fe44      1.0  0.17941  0.63166  0.36101  1.0000
  S   S85       1.0  0.19104  0.64390  0.30782  1.0000
  C   C225      1.0  0.24934  0.62778  0.87507  1.0000
  S   S86       1.0  0.18309  0.62162  0.41149  1.0000
  H   H222      1.0  0.23511  0.68856  0.16891  1.0000
  H   H223      1.0  0.23554  0.63612  0.23338  1.0000
  H   H224      1.0  0.21611  0.67990  0.30612  1.0000
  Fe  Fe45      1.0  0.17991  0.63230  0.69731  1.0000
  S   S87       1.0  0.17520  0.64056  0.74150  1.0000
  S   S88       1.0  0.18458  0.63815  0.62794  1.0000
  Fe  Fe46      1.0  0.17656  0.61339  0.76514  1.0000
  S   S89       1.0  0.17158  0.61984  0.81450  1.0000
  C   C226      1.0  0.25036  0.64425  0.21924  1.0000
  Fe  Fe47      1.0  0.16298  0.62680  0.77657  1.0000
  S   S90       1.0  0.14677  0.62613  0.80117  1.0000
  Fe  Fe48      1.0  0.18429  0.63303  0.77651  1.0000
  S   S91       1.0  0.19370  0.63770  0.81406  1.0000
  S   S92       1.0  0.16711  0.61941  0.72983  1.0000
  S   S93       1.0  0.18986  0.62579  0.72958  1.0000
  H   H225      1.0  0.14768  0.62572  0.22869  1.0000
  C   C227      1.0  0.13795  0.60766  0.35485  1.0000
  C   C228      1.0  0.14538  0.62591  0.65139  1.0000
  H   H226      1.0  0.20051  0.67194  0.24974  1.0000
  H   H227      1.0  0.15508  0.64349  0.72905  1.0000
  N   N19       1.0  0.15156  0.63426  0.65574  1.0000
  C   C229      1.0  0.16514  0.64849  0.62711  1.0000
  H   H228      1.0  0.24160  0.64882  0.85059  1.0000
  C   C230      1.0  0.21938  0.61989  0.93599  1.0000
  Fe  Fe49      1.0  0.23988  0.60897  0.17773  1.0000
  S   S94       1.0  0.23652  0.62289  0.18739  1.0000
  C   C231      1.0  0.23167  0.62723  0.95999  1.0000
  C   C232      1.0  0.15889  0.64084  0.62266  1.0000
  H   H229      1.0  0.24363  0.64590  0.09284  1.0000
  Fe  Fe50      1.0  0.24570  0.67470  0.25040  1.0000
  C   C233      1.0  0.24872  0.68599  0.03525  1.0000
  S   S95       1.0  0.23137  0.66898  0.30335  1.0000
  H   H230      1.0  0.18985  0.61375  0.64004  1.0000
  C   C234      1.0  0.22376  0.68440  0.22727  1.0000
  H   H231      1.0  0.22346  0.63260  0.76349  1.0000
  H   H232      1.0  0.21864  0.60467  0.94044  1.0000
  H   H233      1.0  0.19060  0.60501  0.68514  1.0000
  H   H234      1.0  0.20678  0.67271  0.17775  1.0000
  H   H235      1.0  0.13751  0.62555  0.66525  1.0000
  H   H236      1.0  0.13034  0.62976  0.33579  1.0000
  C   C235      1.0  0.15618  0.64284  0.69892  1.0000
  C   C236      1.0  0.12230  0.62290  0.30427  1.0000
  Fe  Fe51      1.0  0.23605  0.66944  0.87071  1.0000
  S   S96       1.0  0.23390  0.65602  0.92340  1.0000
  S   S97       1.0  0.22638  0.67052  0.82922  1.0000
  C   C237      1.0  0.21620  0.61551  0.76006  1.0000
  H   H237      1.0  0.22112  0.60535  0.25094  1.0000
  H   H238      1.0  0.13270  0.61745  0.21921  1.0000
  H   H239      1.0  0.21363  0.62046  0.92225  1.0000
  H   H240      1.0  0.22862  0.68752  0.24133  1.0000
  Fe  Fe52      1.0  0.23836  0.66651  0.95492  1.0000
  S   S98       1.0  0.23135  0.66324  0.02223  1.0000
  H   H241      1.0  0.14445  0.62988  0.71995  1.0000
  S   S99       1.0  0.23913  0.68003  0.90483  1.0000
  H   H242      1.0  0.14667  0.62647  0.61890  1.0000
  H   H243      1.0  0.21346  0.63330  0.28208  1.0000
  H   H244      1.0  0.20463  0.67263  0.31041  1.0000
  H   H245      1.0  0.14702  0.61895  0.66683  1.0000
  S   S100      1.0  0.23018  0.61910  0.82035  1.0000
  C   C238      1.0  0.24019  0.67424  0.10241  1.0000
  H   H246      1.0  0.24446  0.61477  0.86136  1.0000
  C   C239      1.0  0.24220  0.64137  0.85319  1.0000
  C   C240      1.0  0.23657  0.63569  0.83739  1.0000
  C   C241      1.0  0.23719  0.62599  0.84100  1.0000
  H   H247      1.0  0.23780  0.70362  0.84520  1.0000
  H   H248      1.0  0.15270  0.63999  0.26251  1.0000
  C   C242      1.0  0.24581  0.63105  0.19320  1.0000
  H   H249      1.0  0.23167  0.63882  0.82267  1.0000
  H   H250      1.0  0.20399  0.62865  0.33030  1.0000
  C   C243      1.0  0.13089  0.62741  0.30928  1.0000
  C   C244      1.0  0.21025  0.67960  0.29167  1.0000
  H   H251      1.0  0.16021  0.63999  0.59278  1.0000
  N   N20       1.0  0.21101  0.62038  0.78244  1.0000
  H   H252      1.0  0.24644  0.61228  0.97785  1.0000
  H   H253      1.0  0.16928  0.60445  0.64841  1.0000
  C   C245      1.0  0.13213  0.62051  0.24389  1.0000
  C   C246      1.0  0.24515  0.69156  0.77842  1.0000
  H   H254      1.0  0.23981  0.61594  0.01899  1.0000
  C   C247      1.0  0.23724  0.67107  0.04306  1.0000
  C   C248      1.0  0.23526  0.66830  0.08531  1.0000
  H   H255      1.0  0.10455  0.60352  0.04266  1.0000
  H   H256      1.0  0.22200  0.63495  0.93528  1.0000
  H   H257      1.0  0.11640  0.61549  0.26813  1.0000
  C   C249      1.0  0.21178  0.60617  0.76087  1.0000
  C   C250      1.0  0.21605  0.60662  0.27611  1.0000
  H   H258      1.0  0.15184  0.60894  0.31158  1.0000
  H   H259      1.0  0.22546  0.66223  0.24149  1.0000
  H   H260      1.0  0.23544  0.63364  0.96478  1.0000
  C   C251      1.0  0.20657  0.62754  0.30024  1.0000
  C   C252      1.0  0.14398  0.60622  0.32063  1.0000
  H   H261      1.0  0.11522  0.62182  0.32649  1.0000
  H   H262      1.0  0.21199  0.63572  0.76295  1.0000
  S   S101      1.0  0.16045  0.60849  0.43999  1.0000
  C   C253      1.0  0.24269  0.61797  0.98532  1.0000
  C   C254      1.0  0.12207  0.60392  0.84013  1.0000
  C   C255      1.0  0.12850  0.61327  0.82836  1.0000
  H   H263      1.0  0.17125  0.65339  0.60121  1.0000
  C   C256      1.0  0.23884  0.69472  0.80611  1.0000
  C   C257      1.0  0.22134  0.68080  0.16845  1.0000
  C   C258      1.0  0.24956  0.65246  0.08228  1.0000
  H   H264      1.0  0.21433  0.63101  0.81042  1.0000
  H   H265      1.0  0.17972  0.60917  0.68693  1.0000
  H   H266      1.0  0.11424  0.60318  0.84830  1.0000
  H   H267      1.0  0.24941  0.65207  0.14239  1.0000
  C   C259      1.0  0.12773  0.60399  0.36601  1.0000
  H   H268      1.0  0.24833  0.62508  0.97256  1.0000
  H   H269      1.0  0.19811  0.64771  0.37248  1.0000
  H   H270      1.0  0.23004  0.66145  0.10474  1.0000
  Fe  Fe53      1.0  0.25004  0.65781  0.89682  1.0000
  H   H271      1.0  0.20695  0.68594  0.29270  1.0000
  H   H272      1.0  0.16873  0.65523  0.66955  1.0000
  C   C260      1.0  0.13871  0.61436  0.81681  1.0000
  H   H273      1.0  0.14734  0.63464  0.31705  1.0000
  H   H274      1.0  0.23098  0.69176  0.81544  1.0000
  C   C261      1.0  0.24360  0.62207  0.85984  1.0000
  C   C262      1.0  0.18574  0.60716  0.66699  1.0000
  C   C263      1.0  0.24403  0.67989  0.01801  1.0000
  C   C264      1.0  0.14056  0.62511  0.24964  1.0000
  C   C265      1.0  0.19684  0.60682  0.80777  1.0000
  C   C266      1.0  0.20296  0.61003  0.33939  1.0000
  C   C267      1.0  0.24857  0.63740  0.87215  1.0000
  C   C268      1.0  0.20293  0.64695  0.81696  1.0000
  C   C269      1.0  0.20686  0.64462  0.84913  1.0000
  C   C270      1.0  0.21416  0.65161  0.85288  1.0000
  C   C271      1.0  0.21756  0.66116  0.82483  1.0000
  C   C272      1.0  0.21366  0.66347  0.79256  1.0000
  C   C273      1.0  0.20647  0.65642  0.78842  1.0000
  H   H275      1.0  0.20420  0.63734  0.87149  1.0000
  H   H276      1.0  0.21703  0.64968  0.87791  1.0000
  H   H277      1.0  0.21618  0.67080  0.77065  1.0000
  H   H278      1.0  0.20357  0.65837  0.76349  1.0000
  H   H279      1.0  0.24559  0.68208  0.98538  1.0000
  H   H280      1.0  0.12296  0.60508  0.39228  1.0000
  C   C274      1.0  0.21456  0.61604  0.27290  1.0000
  H   H281      1.0  0.22382  0.61878  0.74184  1.0000
  C   C275      1.0  0.21158  0.67610  0.19132  1.0000
  H   H282      1.0  0.12557  0.61968  0.82787  1.0000
  C   C276      1.0  0.22749  0.68496  0.18648  1.0000
  C   C277      1.0  0.14886  0.63302  0.28782  1.0000
  H   H283      1.0  0.20094  0.62867  0.28502  1.0000
  N   N21       1.0  0.21417  0.67980  0.24945  1.0000
  C   C278      1.0  0.22407  0.62802  0.94333  1.0000
  H   H284      1.0  0.19766  0.61123  0.36405  1.0000
  C   C279      1.0  0.22994  0.61060  0.96194  1.0000
  C   C280      1.0  0.21543  0.63043  0.77950  1.0000
  H   H285      1.0  0.15380  0.62792  0.28904  1.0000
  C   C281      1.0  0.20808  0.67573  0.23196  1.0000
  H   H286      1.0  0.22414  0.68121  0.13681  1.0000
  C   C282      1.0  0.16378  0.64947  0.66553  1.0000
  C   C283      1.0  0.20152  0.61607  0.80671  1.0000
  C   C284      1.0  0.17028  0.62474  0.54814  1.0000
  C   C285      1.0  0.17868  0.63253  0.53033  1.0000
  C   C286      1.0  0.18310  0.63644  0.55508  1.0000
  C   C287      1.0  0.17926  0.63255  0.59780  1.0000
  C   C288      1.0  0.17099  0.62463  0.61546  1.0000
  C   C289      1.0  0.16650  0.62082  0.59082  1.0000
  H   H287      1.0  0.18166  0.63566  0.49754  1.0000
  H   H288      1.0  0.18948  0.64258  0.54098  1.0000
  H   H289      1.0  0.16787  0.62162  0.64811  1.0000
  H   H290      1.0  0.15999  0.61482  0.60486  1.0000
  N   N22       1.0  0.13987  0.62844  0.28216  1.0000
  C   C290      1.0  0.12296  0.61939  0.27147  1.0000
  H   H291      1.0  0.19748  0.61979  0.82523  1.0000
  H   H292      1.0  0.21396  0.65758  0.36955  1.0000
  C   C291      1.0  0.22224  0.61108  0.94580  1.0000
  C   C292      1.0  0.24317  0.63700  0.21702  1.0000
  C   C293      1.0  0.14242  0.60605  0.81755  1.0000
  N   N23       1.0  0.20819  0.61766  0.30459  1.0000
  N   N24       1.0  0.23464  0.61864  0.96831  1.0000
  C   C294      1.0  0.15016  0.63517  0.69353  1.0000
  C   C295      1.0  0.20266  0.64957  0.30848  1.0000
  C   C296      1.0  0.21050  0.65360  0.27172  1.0000
  C   C297      1.0  0.21958  0.65899  0.27018  1.0000
  C   C298      1.0  0.22083  0.66064  0.30525  1.0000
  C   C299      1.0  0.21308  0.65635  0.34222  1.0000
  C   C300      1.0  0.20408  0.65075  0.34397  1.0000
  H   H293      1.0  0.20950  0.65271  0.24409  1.0000
  H   H294      1.0  0.21854  0.62204  0.24491  1.0000
  C   C301      1.0  0.24275  0.70141  0.82281  1.0000
  H   H295      1.0  0.15023  0.60678  0.80965  1.0000
  H   H296      1.0  0.24220  0.68615  0.76618  1.0000
  C   C302      1.0  0.24686  0.68315  0.07745  1.0000
  S   S102      1.0  0.24769  0.66849  0.19912  1.0000
  H   H297      1.0  0.23227  0.60381  0.96859  1.0000
  H   H298      1.0  0.18924  0.60355  0.82630  1.0000
  H   H299      1.0  0.24826  0.64874  0.23806  1.0000
  C   C303      1.0  0.48368  0.02259  0.78448  1.0000
  C   C304      1.0  0.48744  0.02759  0.28276  1.0000
  S   S103      1.0  0.47364  0.00717  0.76817  1.0000
  C   C305      1.0  0.46731  0.02266  0.87982  1.0000
  C   C306      1.0  0.48153  0.01234  0.79182  1.0000
  C   C307      1.0  0.48219  0.00962  0.34596  1.0000
  C   C308      1.0  0.49140  0.02683  0.31453  1.0000
  H   H300      1.0  0.47030  0.02963  0.88291  1.0000
  H   H301      1.0  0.49783  0.03097  0.05975  1.0000
  C   C309      1.0  0.46238  0.00670  0.44353  1.0000
  H   H302      1.0  0.48587  0.02761  0.12785  1.0000
  C   C310      1.0  0.47785  0.01047  0.31531  1.0000
  C   C311      1.0  0.48469  0.00647  0.82123  1.0000
  H   H303      1.0  0.49151  0.00605  0.86786  1.0000
  C   C312      1.0  0.48943  0.01074  0.84428  1.0000
  C   C313      1.0  0.48863  0.02689  0.80687  1.0000
  C   C314      1.0  0.48877  0.01779  0.34596  1.0000
  H   H304      1.0  0.49170  0.03056  0.18360  1.0000
  H   H305      1.0  0.46873  0.01239  0.43900  1.0000
  H   H306      1.0  0.47718  0.02026  0.25995  1.0000
  H   H307      1.0  0.49240  0.05227  0.08400  1.0000
  H   H308      1.0  0.49171  0.01715  0.37088  1.0000
  C   C315      1.0  0.49131  0.02095  0.83778  1.0000
  H   H309      1.0  0.48128  0.02723  0.76191  1.0000
  C   C316      1.0  0.49691  0.03184  0.15381  1.0000
  H   H310      1.0  0.48999  0.03474  0.80136  1.0000
  S   S104      1.0  0.49617  0.02565  0.87159  1.0000
  C   C317      1.0  0.48058  0.01948  0.28352  1.0000
  C   C318      1.0  0.46268  0.02241  0.85071  1.0000
  H   H311      1.0  0.46201  0.02919  0.83105  1.0000
  H   H312      1.0  0.48926  0.03457  0.25882  1.0000
  C   C319      1.0  0.45917  0.00622  0.41080  1.0000
  H   H313      1.0  0.46293  0.01156  0.38079  1.0000
  S   S105      1.0  0.49837  0.05158  0.00193  1.0000
  C   C320      1.0  0.49364  0.03015  0.12262  1.0000
  S   S106      1.0  0.49875  0.03716  0.31893  1.0000
  H   H314      1.0  0.45621  0.01334  0.82167  1.0000
  C   C321      1.0  0.45937  0.01340  0.84569  1.0000
  H   H315      1.0  0.48016  0.00281  0.37076  1.0000
  C   C322      1.0  0.46849  0.01393  0.90374  1.0000
  H   H316      1.0  0.47244  0.01413  0.92526  1.0000
  N   N25       1.0  0.46059  0.00487  0.86923  1.0000
  C   C323      1.0  0.46504  0.00504  0.89810  1.0000
  S   S107      1.0  0.50034  0.05395  0.88417  1.0000
  C   C324      1.0  0.50025  0.05523  0.07123  1.0000
  C   C325      1.0  0.50045  0.03202  0.08421  1.0000
  Fe  Fe54      1.0  0.48012  0.55346  0.31055  1.0000
  H   H317      1.0  0.38950  0.60121  0.71396  1.0000
  S   S108      1.0  0.46718  0.54102  0.32613  1.0000
  Fe  Fe55      1.0  0.48704  0.57252  0.32441  1.0000
  S   S109      1.0  0.47803  0.56858  0.28719  1.0000
  Fe  Fe56      1.0  0.42219  0.52104  0.21373  1.0000
  S   S110      1.0  0.42925  0.53475  0.16036  1.0000
  S   S111      1.0  0.40834  0.52141  0.25992  1.0000
  Fe  Fe57      1.0  0.43876  0.51117  0.18774  1.0000
  S   S112      1.0  0.44691  0.52443  0.13291  1.0000
  S   S113      1.0  0.44777  0.49974  0.19160  1.0000
  Fe  Fe58      1.0  0.44293  0.53305  0.17493  1.0000
  S   S114      1.0  0.45382  0.54625  0.17095  1.0000
  Fe  Fe59      1.0  0.43239  0.52474  0.12333  1.0000
  S   S115      1.0  0.43153  0.53077  0.05972  1.0000
  S   S116      1.0  0.43584  0.51984  0.23059  1.0000
  S   S117      1.0  0.42424  0.51088  0.17573  1.0000
  Fe  Fe60      1.0  0.37229  0.56772  0.32532  1.0000
  S   S118      1.0  0.36993  0.57193  0.38213  1.0000
  S   S119      1.0  0.36255  0.56733  0.28617  1.0000
  Fe  Fe61      1.0  0.39323  0.56626  0.31862  1.0000
  S   S120      1.0  0.39292  0.57100  0.37321  1.0000
  S   S121      1.0  0.40698  0.56303  0.28337  1.0000
  Fe  Fe62      1.0  0.37807  0.56058  0.40166  1.0000
  S   S122      1.0  0.37640  0.55040  0.46357  1.0000
  Fe  Fe63      1.0  0.38492  0.58193  0.34943  1.0000
  C   C326      1.0  0.39914  0.60194  0.44989  1.0000
  S   S123      1.0  0.37884  0.55517  0.34821  1.0000
  S   S124      1.0  0.38685  0.57846  0.29139  1.0000
  Fe  Fe64      1.0  0.48043  0.55647  0.93849  1.0000
  S   S125      1.0  0.48861  0.56828  0.87888  1.0000
  S   S126      1.0  0.46783  0.54415  0.94944  1.0000
  Fe  Fe65      1.0  0.48821  0.57830  0.91648  1.0000
  S   S127      1.0  0.47887  0.56666  0.97508  1.0000
  Fe  Fe66      1.0  0.38326  0.57289  0.68893  1.0000
  S   S128      1.0  0.37741  0.56132  0.75041  1.0000
  S   S129      1.0  0.39601  0.58592  0.66995  1.0000
  Fe  Fe67      1.0  0.36779  0.56364  0.65919  1.0000
  S   S130      1.0  0.36088  0.55111  0.71799  1.0000
  S   S131      1.0  0.36118  0.56682  0.60871  1.0000
  Fe  Fe68      1.0  0.36259  0.56279  0.74750  1.0000
  S   S132      1.0  0.35173  0.56294  0.80511  1.0000
  Fe  Fe69      1.0  0.37644  0.55082  0.71520  1.0000
  S   S133      1.0  0.38183  0.53691  0.72943  1.0000
  S   S134      1.0  0.36849  0.57533  0.68903  1.0000
  S   S135      1.0  0.38320  0.56239  0.65352  1.0000
  Fe  Fe70      1.0  0.43131  0.51659  0.86737  1.0000
  S   S136      1.0  0.42312  0.51410  0.82443  1.0000
  S   S137      1.0  0.42577  0.50840  0.93518  1.0000
  Fe  Fe71      1.0  0.44858  0.53117  0.79924  1.0000
  S   S138      1.0  0.44210  0.53010  0.75066  1.0000
  S   S139      1.0  0.46333  0.54091  0.78489  1.0000
  Fe  Fe72      1.0  0.42810  0.53055  0.79410  1.0000
  S   S140      1.0  0.42036  0.54260  0.77824  1.0000
  Fe  Fe73      1.0  0.43788  0.51385  0.78436  1.0000
  S   S141      1.0  0.44108  0.50376  0.74700  1.0000
  S   S142      1.0  0.43499  0.53297  0.84035  1.0000
  S   S143      1.0  0.44554  0.51498  0.82974  1.0000
  Fe  Fe74      1.0  0.48321  0.46050  0.39216  1.0000
  S   S144      1.0  0.47305  0.45598  0.35925  1.0000
  S   S145      1.0  0.48454  0.45260  0.45289  1.0000
  N   N26       1.0  0.38154  0.58974  0.77002  1.0000
  S   S146      1.0  0.48587  0.47613  0.28207  1.0000
  C   C327      1.0  0.48958  0.43482  0.60275  1.0000
  Fe  Fe75      1.0  0.47294  0.47206  0.33870  1.0000
  S   S147      1.0  0.45874  0.47691  0.34293  1.0000
  Fe  Fe76      1.0  0.48668  0.46038  0.30473  1.0000
  H   H318      1.0  0.33935  0.55129  0.76254  1.0000
  S   S148      1.0  0.48189  0.47609  0.37666  1.0000
  S   S149      1.0  0.33250  0.59464  0.29078  1.0000
  Fe  Fe77      1.0  0.47881  0.47206  0.72388  1.0000
  S   S150      1.0  0.48453  0.48149  0.65856  1.0000
  S   S151      1.0  0.46984  0.47644  0.77481  1.0000
  Fe  Fe78      1.0  0.48934  0.45607  0.70689  1.0000
  H   H319      1.0  0.27842  0.58955  0.97274  1.0000
  S   S152      1.0  0.49185  0.44102  0.73373  1.0000
  S   S153      1.0  0.45927  0.59992  0.77750  1.0000
  S   S154      1.0  0.48802  0.55705  0.35252  1.0000
  Fe  Fe79      1.0  0.48089  0.46740  0.64525  1.0000
  S   S155      1.0  0.47182  0.46725  0.60348  1.0000
  H   H320      1.0  0.41053  0.59547  0.42400  1.0000
  S   S156      1.0  0.47414  0.45810  0.71102  1.0000
  H   H321      1.0  0.46891  0.47199  0.17056  1.0000
  H   H322      1.0  0.49322  0.43607  0.65589  1.0000
  H   H323      1.0  0.49349  0.57814  0.04087  1.0000
  H   H324      1.0  0.26332  0.58399  0.13495  1.0000
  H   H325      1.0  0.33037  0.60058  0.97252  1.0000
  H   H326      1.0  0.41677  0.59916  0.73918  1.0000
  C   C328      1.0  0.45339  0.51325  0.96570  1.0000
  H   H327      1.0  0.49396  0.55629  0.46400  1.0000
  H   H328      1.0  0.39393  0.53953  0.41750  1.0000
  H   H329      1.0  0.44972  0.53152  0.31547  1.0000
  C   C329      1.0  0.33652  0.55736  0.74893  1.0000
  S   S157      1.0  0.32207  0.60028  0.19399  1.0000
  H   H330      1.0  0.31930  0.57037  0.81361  1.0000
  S   S158      1.0  0.25410  0.58424  0.84138  1.0000
  H   H331      1.0  0.48394  0.51847  0.86426  1.0000
  H   H332      1.0  0.39407  0.58582  0.83719  1.0000
  C   C330      1.0  0.47029  0.60087  0.86961  1.0000
  H   H333      1.0  0.43499  0.58215  0.71079  1.0000
  C   C331      1.0  0.48230  0.45861  0.48949  1.0000
  C   C332      1.0  0.48775  0.45797  0.51642  1.0000
  C   C333      1.0  0.48494  0.46114  0.55041  1.0000
  C   C334      1.0  0.47658  0.46483  0.55782  1.0000
  C   C335      1.0  0.47143  0.46593  0.52976  1.0000
  C   C336      1.0  0.47432  0.46288  0.49552  1.0000
  C   C337      1.0  0.49735  0.44411  0.26343  1.0000
  H   H334      1.0  0.48900  0.46032  0.57170  1.0000
  H   H335      1.0  0.46497  0.46882  0.53527  1.0000
  H   H336      1.0  0.47003  0.46333  0.47504  1.0000
  C   C338      1.0  0.47630  0.58881  0.84138  1.0000
  H   H337      1.0  0.43333  0.59631  0.65918  1.0000
  H   H338      1.0  0.43672  0.55505  0.78822  1.0000
  C   C339      1.0  0.27896  0.58752  0.10679  1.0000
  Fe  Fe80      1.0  0.42464  0.59729  0.79870  1.0000
  H   H339      1.0  0.48148  0.53221  0.27088  1.0000
  H   H340      1.0  0.38108  0.56366  0.24518  1.0000
  H   H341      1.0  0.46025  0.51879  0.20174  1.0000
  H   H342      1.0  0.27500  0.60060  0.28013  1.0000
  H   H343      1.0  0.34545  0.55961  0.68744  1.0000
  H   H344      1.0  0.36755  0.54714  0.29638  1.0000
  H   H345      1.0  0.36497  0.55137  0.24944  1.0000
  H   H346      1.0  0.45611  0.47928  0.62748  1.0000
  H   H347      1.0  0.46609  0.44268  0.64701  1.0000
  C   C340      1.0  0.37359  0.57440  0.82392  1.0000
  C   C341      1.0  0.36871  0.54635  0.26571  1.0000
  C   C342      1.0  0.38458  0.55832  0.23485  1.0000
  C   C343      1.0  0.45650  0.46950  0.22383  1.0000
  S   S159      1.0  0.49055  0.45311  0.25645  1.0000
  C   C344      1.0  0.45058  0.49799  0.75352  1.0000
  C   C345      1.0  0.45688  0.49641  0.72017  1.0000
  C   C346      1.0  0.46326  0.49023  0.72595  1.0000
  C   C347      1.0  0.46329  0.48554  0.76522  1.0000
  C   C348      1.0  0.45740  0.48758  0.79826  1.0000
  C   C349      1.0  0.45108  0.49380  0.79245  1.0000
  H   H348      1.0  0.45660  0.49972  0.68993  1.0000
  H   H349      1.0  0.46784  0.48880  0.70022  1.0000
  H   H350      1.0  0.45743  0.48401  0.82870  1.0000
  H   H351      1.0  0.44618  0.49489  0.81842  1.0000
  C   C350      1.0  0.39297  0.53848  0.74000  1.0000
  C   C351      1.0  0.39703  0.54739  0.74359  1.0000
  C   C352      1.0  0.40547  0.54852  0.75503  1.0000
  C   C353      1.0  0.41009  0.54079  0.76207  1.0000
  C   C354      1.0  0.40622  0.53187  0.75760  1.0000
  C   C355      1.0  0.39764  0.53072  0.74659  1.0000
  H   H352      1.0  0.39358  0.55338  0.73794  1.0000
  H   H353      1.0  0.40836  0.55539  0.75877  1.0000
  H   H354      1.0  0.40979  0.52588  0.76286  1.0000
  H   H355      1.0  0.39457  0.52381  0.74348  1.0000
  C   C356      1.0  0.34590  0.57271  0.80353  1.0000
  C   C357      1.0  0.34678  0.57959  0.76651  1.0000
  C   C358      1.0  0.34135  0.58677  0.76577  1.0000
  C   C359      1.0  0.33513  0.58722  0.80201  1.0000
  C   C360      1.0  0.33452  0.58057  0.83919  1.0000
  C   C361      1.0  0.33985  0.57329  0.83988  1.0000
  H   H356      1.0  0.35131  0.57916  0.73832  1.0000
  H   H357      1.0  0.34180  0.59187  0.73691  1.0000
  H   H358      1.0  0.32966  0.58081  0.86726  1.0000
  H   H359      1.0  0.33912  0.56797  0.86865  1.0000
  C   C362      1.0  0.40070  0.57587  0.73532  1.0000
  C   C363      1.0  0.40201  0.58497  0.70651  1.0000
  C   C364      1.0  0.40797  0.59335  0.70750  1.0000
  H   H360      1.0  0.39659  0.56936  0.73330  1.0000
  H   H361      1.0  0.44342  0.48853  0.64474  1.0000
  C   C365      1.0  0.46685  0.54316  0.90356  1.0000
  C   C366      1.0  0.45811  0.53778  0.90335  1.0000
  C   C367      1.0  0.45717  0.53682  0.86696  1.0000
  C   C368      1.0  0.46485  0.54155  0.83049  1.0000
  C   C369      1.0  0.47367  0.54683  0.83067  1.0000
  C   C370      1.0  0.47473  0.54748  0.86744  1.0000
  H   H362      1.0  0.45212  0.53423  0.93147  1.0000
  H   H363      1.0  0.45055  0.53231  0.86748  1.0000
  H   H364      1.0  0.47972  0.55030  0.80256  1.0000
  H   H365      1.0  0.48171  0.55108  0.86785  1.0000
  C   C371      1.0  0.37175  0.55459  0.50466  1.0000
  C   C372      1.0  0.37462  0.55180  0.53941  1.0000
  C   C373      1.0  0.37134  0.55543  0.57174  1.0000
  C   C374      1.0  0.36501  0.56172  0.56977  1.0000
  C   C375      1.0  0.36194  0.56431  0.53546  1.0000
  C   C376      1.0  0.36536  0.56082  0.50284  1.0000
  H   H366      1.0  0.37950  0.54692  0.54110  1.0000
  H   H367      1.0  0.37370  0.55334  0.59818  1.0000
  H   H368      1.0  0.35701  0.56914  0.53385  1.0000
  H   H369      1.0  0.36301  0.56291  0.47639  1.0000
  C   C377      1.0  0.35419  0.57492  0.28773  1.0000
  C   C378      1.0  0.35037  0.57742  0.32260  1.0000
  C   C379      1.0  0.34357  0.58331  0.32339  1.0000
  C   C380      1.0  0.34074  0.58695  0.28906  1.0000
  C   C381      1.0  0.34469  0.58460  0.25393  1.0000
  C   C382      1.0  0.35129  0.57848  0.25350  1.0000
  H   H370      1.0  0.35247  0.57464  0.34928  1.0000
  H   H371      1.0  0.34053  0.58510  0.35067  1.0000
  H   H372      1.0  0.34250  0.58731  0.22741  1.0000
  H   H373      1.0  0.35417  0.57653  0.22652  1.0000
  H   H374      1.0  0.37904  0.59335  0.71279  1.0000
  H   H375      1.0  0.38100  0.57787  0.46441  1.0000
  C   C383      1.0  0.26031  0.59619  0.88323  1.0000
  C   C384      1.0  0.43666  0.47387  0.78265  1.0000
  H   H376      1.0  0.49621  0.43271  0.58986  1.0000
  S   S160      1.0  0.49367  0.55275  0.95181  1.0000
  C   C385      1.0  0.37403  0.58144  0.78795  1.0000
  H   H377      1.0  0.45041  0.57875  0.35389  1.0000
  Fe  Fe81      1.0  0.25183  0.59374  0.18935  1.0000
  C   C386      1.0  0.45156  0.49507  0.23400  1.0000
  C   C387      1.0  0.44553  0.49334  0.27369  1.0000
  C   C388      1.0  0.44808  0.48819  0.30698  1.0000
  C   C389      1.0  0.45673  0.48484  0.30085  1.0000
  C   C390      1.0  0.46302  0.48707  0.26120  1.0000
  C   C391      1.0  0.46040  0.49208  0.22791  1.0000
  H   H378      1.0  0.43866  0.49554  0.27872  1.0000
  H   H379      1.0  0.44316  0.48648  0.33760  1.0000
  H   H380      1.0  0.46969  0.48453  0.25607  1.0000
  H   H381      1.0  0.46511  0.49341  0.19726  1.0000
  C   C392      1.0  0.43041  0.52419  0.02581  1.0000
  C   C393      1.0  0.43260  0.52955  0.98457  1.0000
  C   C394      1.0  0.43146  0.52475  0.95647  1.0000
  C   C395      1.0  0.42786  0.51455  0.96950  1.0000
  C   C396      1.0  0.42571  0.50915  0.01076  1.0000
  C   C397      1.0  0.42708  0.51394  0.03882  1.0000
  H   H382      1.0  0.43521  0.53747  0.97428  1.0000
  H   H383      1.0  0.43324  0.52900  0.92488  1.0000
  H   H384      1.0  0.42290  0.50125  0.02116  1.0000
  H   H385      1.0  0.42530  0.50976  0.07062  1.0000
  C   C398      1.0  0.40800  0.53291  0.26713  1.0000
  C   C399      1.0  0.41630  0.54079  0.24953  1.0000
  C   C400      1.0  0.41586  0.54994  0.25491  1.0000
  C   C401      1.0  0.40714  0.55131  0.27819  1.0000
  C   C402      1.0  0.39884  0.54341  0.29638  1.0000
  C   C403      1.0  0.39928  0.53423  0.29094  1.0000
  H   H386      1.0  0.42314  0.53981  0.23219  1.0000
  H   H387      1.0  0.42234  0.55598  0.24099  1.0000
  H   H388      1.0  0.39207  0.54435  0.31436  1.0000
  H   H389      1.0  0.39284  0.52815  0.30488  1.0000
  C   C404      1.0  0.40482  0.57516  0.76653  1.0000
  C   C405      1.0  0.46290  0.54308  0.28429  1.0000
  C   C406      1.0  0.46849  0.55040  0.24745  1.0000
  C   C407      1.0  0.46547  0.55157  0.21309  1.0000
  C   C408      1.0  0.45685  0.54539  0.21541  1.0000
  C   C409      1.0  0.45104  0.53836  0.25261  1.0000
  C   C410      1.0  0.45410  0.53713  0.28697  1.0000
  H   H390      1.0  0.47533  0.55498  0.24478  1.0000
  H   H391      1.0  0.46999  0.55708  0.18450  1.0000
  H   H392      1.0  0.44418  0.53390  0.25509  1.0000
  C   C411      1.0  0.46130  0.59582  0.38739  1.0000
  N   N27       1.0  0.42390  0.58748  0.63904  1.0000
  C   C412      1.0  0.41925  0.57817  0.64310  1.0000
  C   C413      1.0  0.42963  0.58893  0.66249  1.0000
  C   C414      1.0  0.26749  0.60131  0.89473  1.0000
  C   C415      1.0  0.43061  0.58093  0.69172  1.0000
  C   C416      1.0  0.42583  0.57140  0.69629  1.0000
  C   C417      1.0  0.49655  0.48769  0.47616  1.0000
  C   C418      1.0  0.48793  0.43673  0.63963  1.0000
  N   N28       1.0  0.44202  0.47541  0.73997  1.0000
  C   C419      1.0  0.46497  0.52176  0.21665  1.0000
  C   C420      1.0  0.31893  0.59360  0.03008  1.0000
  H   H393      1.0  0.47013  0.44015  0.54479  1.0000
  H   H394      1.0  0.49399  0.45474  0.51157  1.0000
  H   H395      1.0  0.45073  0.46534  0.75477  1.0000
  H   H396      1.0  0.25989  0.58606  0.06997  1.0000
  N   N29       1.0  0.38738  0.58234  0.54274  1.0000
  C   C421      1.0  0.39554  0.57866  0.53899  1.0000
  C   C422      1.0  0.38220  0.58210  0.51635  1.0000
  C   C423      1.0  0.28447  0.59130  0.03380  1.0000
  C   C424      1.0  0.38507  0.57797  0.48555  1.0000
  C   C425      1.0  0.26742  0.58721  0.06975  1.0000
  C   C426      1.0  0.38447  0.58712  0.57355  1.0000
  H   H397      1.0  0.39984  0.57915  0.55903  1.0000
  H   H398      1.0  0.37581  0.58512  0.51898  1.0000
  C   C427      1.0  0.38085  0.57595  0.84171  1.0000
  H   H399      1.0  0.44943  0.57974  0.84516  1.0000
  H   H400      1.0  0.49292  0.48168  0.50440  1.0000
  H   H401      1.0  0.41469  0.57703  0.62461  1.0000
  H   H402      1.0  0.38775  0.58497  0.59813  1.0000
  H   H403      1.0  0.49907  0.42469  0.77163  1.0000
  S   S161      1.0  0.26519  0.58979  0.20479  1.0000
  H   H404      1.0  0.47770  0.46184  0.20954  1.0000
  H   H405      1.0  0.42650  0.56510  0.71884  1.0000
  S   S162      1.0  0.31018  0.58932  0.00930  1.0000
  H   H406      1.0  0.45997  0.60191  0.39816  1.0000
  C   C428      1.0  0.38184  0.59702  0.73237  1.0000
  C   C429      1.0  0.49381  0.56419  0.14861  1.0000
  C   C430      1.0  0.47908  0.59322  0.23943  1.0000
  C   C431      1.0  0.36824  0.59856  0.30123  1.0000
  H   H407      1.0  0.40704  0.55617  0.18488  1.0000
  C   C432      1.0  0.47112  0.59075  0.81359  1.0000
  C   C433      1.0  0.43876  0.57530  0.81838  1.0000
  H   H408      1.0  0.45574  0.59211  0.24166  1.0000
  H   H409      1.0  0.30921  0.58722  0.09195  1.0000
  H   H410      1.0  0.46065  0.57087  0.86218  1.0000
  N   N30       1.0  0.47428  0.43844  0.59853  1.0000
  H   H411      1.0  0.43457  0.48601  0.71690  1.0000
  Fe  Fe82      1.0  0.49871  0.47750  0.65925  1.0000
  H   H412      1.0  0.46617  0.57406  0.34835  1.0000
  C   C434      1.0  0.40988  0.52413  0.90828  1.0000
  C   C435      1.0  0.27954  0.59387  0.86186  1.0000
  H   H413      1.0  0.49528  0.59355  0.76612  1.0000
  Fe  Fe83      1.0  0.49299  0.56401  0.98379  1.0000
  H   H414      1.0  0.46353  0.44522  0.58032  1.0000
  S   S163      1.0  0.30577  0.59153  0.90398  1.0000
  H   H415      1.0  0.44236  0.46658  0.31713  1.0000
  C   C436      1.0  0.39737  0.51455  0.89218  1.0000
  C   C437      1.0  0.41227  0.59264  0.73832  1.0000
  C   C438      1.0  0.32332  0.59502  0.08931  1.0000
  H   H416      1.0  0.49155  0.57109  0.41737  1.0000
  H   H417      1.0  0.27427  0.58399  0.83249  1.0000
  C   C439      1.0  0.39117  0.59872  0.39039  1.0000
  H   H418      1.0  0.28049  0.58663  0.13527  1.0000
  N   N31       1.0  0.39577  0.52299  0.86974  1.0000
  S   S164      1.0  0.41496  0.58270  0.80939  1.0000
  N   N32       1.0  0.47042  0.52014  0.89885  1.0000
  H   H419      1.0  0.45961  0.46761  0.68282  1.0000
  H   H420      1.0  0.44664  0.50794  0.92650  1.0000
  C   C440      1.0  0.43508  0.56832  0.80259  1.0000
  H   H421      1.0  0.44126  0.47313  0.26965  1.0000
  H   H422      1.0  0.38944  0.51757  0.83066  1.0000
  H   H423      1.0  0.46803  0.51719  0.30966  1.0000
  N   N33       1.0  0.27496  0.58976  0.03399  1.0000
  C   C441      1.0  0.40827  0.53270  0.88505  1.0000
  H   H424      1.0  0.49495  0.55191  0.12656  1.0000
  C   C442      1.0  0.38366  0.54219  0.23063  1.0000
  H   H425      1.0  0.39639  0.54996  0.37270  1.0000
  H   H426      1.0  0.49687  0.50575  0.77333  1.0000
  H   H427      1.0  0.49922  0.54572  0.88315  1.0000
  H   H428      1.0  0.36768  0.56776  0.83762  1.0000
  H   H429      1.0  0.40353  0.56812  0.78941  1.0000
  H   H430      1.0  0.39892  0.56836  0.20832  1.0000
  C   C443      1.0  0.27655  0.59812  0.19407  1.0000
  C   C444      1.0  0.28661  0.59016  0.07019  1.0000
  C   C445      1.0  0.49308  0.48849  0.44320  1.0000
  C   C446      1.0  0.47263  0.44036  0.63459  1.0000
  H   H431      1.0  0.45662  0.55788  0.87321  1.0000
  Fe  Fe84      1.0  0.49219  0.57113  0.23819  1.0000
  H   H432      1.0  0.25299  0.59720  0.89166  1.0000
  C   C447      1.0  0.49431  0.55944  0.11932  1.0000
  H   H433      1.0  0.47761  0.52558  0.83450  1.0000
  H   H434      1.0  0.41590  0.59448  0.60277  1.0000
  H   H435      1.0  0.37638  0.58499  0.58798  1.0000
  H   H436      1.0  0.48373  0.53095  0.86301  1.0000
  H   H437      1.0  0.40497  0.57139  0.50610  1.0000
  C   C448      1.0  0.40110  0.53199  0.86605  1.0000
  C   C449      1.0  0.40383  0.59760  0.42235  1.0000
  H   H438      1.0  0.38069  0.57049  0.86925  1.0000
  C   C450      1.0  0.27233  0.58877  0.85013  1.0000
  C   C451      1.0  0.45337  0.51166  0.92922  1.0000
  C   C452      1.0  0.32836  0.59905  0.00498  1.0000
  C   C453      1.0  0.49331  0.57402  0.13913  1.0000
  C   C454      1.0  0.46532  0.59759  0.81421  1.0000
  C   C455      1.0  0.38851  0.59147  0.78798  1.0000
  H   H439      1.0  0.43019  0.46754  0.79404  1.0000
  C   C456      1.0  0.45728  0.45969  0.28671  1.0000
  H   H440      1.0  0.46104  0.43200  0.59159  1.0000
  C   C457      1.0  0.39319  0.57393  0.48226  1.0000
  H   H441      1.0  0.47011  0.45382  0.28385  1.0000
  H   H442      1.0  0.49403  0.56030  0.17816  1.0000
  C   C458      1.0  0.46257  0.59410  0.24746  1.0000
  C   C459      1.0  0.27285  0.59142  0.99547  1.0000
  C   C460      1.0  0.42305  0.59594  0.60828  1.0000
  C   C461      1.0  0.44492  0.48328  0.66870  1.0000
  H   H443      1.0  0.47593  0.58853  0.17437  1.0000
  C   C462      1.0  0.47694  0.52911  0.25562  1.0000
  C   C463      1.0  0.46566  0.46843  0.20318  1.0000
  H   H444      1.0  0.47719  0.52553  0.93713  1.0000
  N   N34       1.0  0.40841  0.54355  0.37413  1.0000
  C   C464      1.0  0.40783  0.53433  0.37085  1.0000
  C   C465      1.0  0.41703  0.55062  0.35545  1.0000
  C   C466      1.0  0.41609  0.53194  0.34915  1.0000
  C   C467      1.0  0.42546  0.54845  0.33383  1.0000
  C   C468      1.0  0.42496  0.53904  0.33075  1.0000
  C   C469      1.0  0.39960  0.54613  0.39523  1.0000
  H   H445      1.0  0.40090  0.52885  0.38408  1.0000
  H   H446      1.0  0.41737  0.55807  0.35633  1.0000
  H   H447      1.0  0.41553  0.52471  0.34552  1.0000
  H   H448      1.0  0.43226  0.55410  0.31872  1.0000
  H   H449      1.0  0.43138  0.53733  0.31325  1.0000
  H   H450      1.0  0.42886  0.56900  0.79179  1.0000
  C   C470      1.0  0.44279  0.46622  0.28626  1.0000
  C   C471      1.0  0.48260  0.43564  0.58263  1.0000
  N   N35       1.0  0.46380  0.55644  0.07413  1.0000
  C   C472      1.0  0.46831  0.54943  0.06451  1.0000
  C   C473      1.0  0.45495  0.55700  0.06860  1.0000
  C   C474      1.0  0.46410  0.54288  0.04810  1.0000
  C   C475      1.0  0.45045  0.55047  0.05273  1.0000
  C   C476      1.0  0.45514  0.54346  0.04199  1.0000
  C   C477      1.0  0.46878  0.56378  0.08791  1.0000
  H   H451      1.0  0.47534  0.54902  0.06851  1.0000
  H   H452      1.0  0.45133  0.56249  0.07652  1.0000
  H   H453      1.0  0.46785  0.53755  0.03915  1.0000
  C   C478      1.0  0.47009  0.58491  0.20434  1.0000
  S   S165      1.0  0.44330  0.59452  0.37473  1.0000
  H   H454      1.0  0.46343  0.56654  0.10765  1.0000
  H   H455      1.0  0.47314  0.56049  0.10655  1.0000
  H   H456      1.0  0.47377  0.57001  0.06126  1.0000
  N   N36       1.0  0.45073  0.56641  0.83204  1.0000
  C   C479      1.0  0.44664  0.57424  0.83304  1.0000
  C   C480      1.0  0.44731  0.55964  0.81576  1.0000
  C   C481      1.0  0.45402  0.47155  0.69018  1.0000
  C   C482      1.0  0.43943  0.56048  0.80087  1.0000
  C   C483      1.0  0.39852  0.57432  0.50895  1.0000
  H   H457      1.0  0.43551  0.58150  0.81932  1.0000
  H   H458      1.0  0.39537  0.57058  0.45884  1.0000
  H   H459      1.0  0.45067  0.55353  0.81433  1.0000
  C   C484      1.0  0.47035  0.59325  0.38343  1.0000
  C   C485      1.0  0.46635  0.45831  0.26689  1.0000
  N   N37       1.0  0.45249  0.46525  0.26516  1.0000
  C   C486      1.0  0.45876  0.56510  0.84869  1.0000
  C   C487      1.0  0.46305  0.59991  0.27252  1.0000
  S   S166      1.0  0.48403  0.58313  0.35934  1.0000
  H   H460      1.0  0.28293  0.58659  0.21983  1.0000
  H   H461      1.0  0.38080  0.51907  0.87383  1.0000
  C   C488      1.0  0.41051  0.58357  0.76840  1.0000
  C   C489      1.0  0.47227  0.58555  0.36829  1.0000
  S   S167      1.0  0.38642  0.59731  0.35194  1.0000
  H   H462      1.0  0.49630  0.43812  0.84308  1.0000
  H   H463      1.0  0.45415  0.45638  0.31952  1.0000
  C   C490      1.0  0.45415  0.59071  0.37602  1.0000
  H   H464      1.0  0.36512  0.53868  0.26971  1.0000
  C   C491      1.0  0.46687  0.43894  0.57789  1.0000
  C   C492      1.0  0.47393  0.53521  0.15262  1.0000
  H   H465      1.0  0.29855  0.59787  0.21094  1.0000
  C   C493      1.0  0.46493  0.58019  0.35872  1.0000
  H   H466      1.0  0.48676  0.48305  0.44565  1.0000
  C   C494      1.0  0.49420  0.56444  0.08045  1.0000
  N   N38       1.0  0.37923  0.54899  0.24306  1.0000
  H   H467      1.0  0.45272  0.47395  0.20674  1.0000
  C   C495      1.0  0.26269  0.59000  0.86028  1.0000
  C   C496      1.0  0.39463  0.56107  0.21353  1.0000
  C   C497      1.0  0.39369  0.54472  0.20897  1.0000
  H   H468      1.0  0.45189  0.53853  0.02855  1.0000
  H   H469      1.0  0.48411  0.54043  0.19802  1.0000
  C   C498      1.0  0.39919  0.55422  0.20039  1.0000
  S   S168      1.0  0.48362  0.59264  0.90038  1.0000
  H   H470      1.0  0.37950  0.53473  0.23777  1.0000
  S   S169      1.0  0.43092  0.60030  0.47367  1.0000
  C   C499      1.0  0.49978  0.56061  0.43593  1.0000
  H   H471      1.0  0.39726  0.53925  0.20008  1.0000
  N   N39       1.0  0.47230  0.53015  0.19573  1.0000
  C   C500      1.0  0.49311  0.57902  0.10027  1.0000
  C   C501      1.0  0.47059  0.46278  0.22495  1.0000
  C   C502      1.0  0.47834  0.53376  0.21450  1.0000
  S   S170      1.0  0.49329  0.46914  0.72628  1.0000
  C   C503      1.0  0.39978  0.59588  0.39288  1.0000
  C   C504      1.0  0.27716  0.60027  0.88375  1.0000
  H   H472      1.0  0.48394  0.43419  0.55386  1.0000
  H   H473      1.0  0.37290  0.59358  0.30713  1.0000
  H   H474      1.0  0.49378  0.44098  0.32819  1.0000
  S   S171      1.0  0.49469  0.55797  0.04549  1.0000
  H   H475      1.0  0.36741  0.59570  0.24649  1.0000
  C   C505      1.0  0.29296  0.60081  0.20063  1.0000
  H   H476      1.0  0.45745  0.51040  0.27462  1.0000
  S   S172      1.0  0.32739  0.59535  0.79900  1.0000
  N   N40       1.0  0.47057  0.59091  0.23099  1.0000
  H   H477      1.0  0.41637  0.56262  0.67517  1.0000
  C   C506      1.0  0.34001  0.56208  0.70695  1.0000
  C   C507      1.0  0.47056  0.52148  0.93487  1.0000
  H   H478      1.0  0.46542  0.56533  0.82438  1.0000
  H   H479      1.0  0.32697  0.55702  0.80620  1.0000
  C   C508      1.0  0.32950  0.56064  0.77351  1.0000
  C   C509      1.0  0.28407  0.59443  0.20576  1.0000
  C   C510      1.0  0.33651  0.57005  0.69007  1.0000
  H   H480      1.0  0.44341  0.55082  0.04853  1.0000
  H   H481      1.0  0.33926  0.57377  0.65742  1.0000
  H   H482      1.0  0.27289  0.59928  0.98264  1.0000
  C   C511      1.0  0.46935  0.52070  0.27746  1.0000
  H   H483      1.0  0.47546  0.54331  0.14627  1.0000
  H   H484      1.0  0.32136  0.59340  0.12189  1.0000
  C   C512      1.0  0.46204  0.51814  0.96870  1.0000
  C   C513      1.0  0.45594  0.58279  0.36234  1.0000
  C   C514      1.0  0.32949  0.57315  0.71556  1.0000
  N   N41       1.0  0.32613  0.56849  0.75675  1.0000
  C   C515      1.0  0.31854  0.57163  0.78284  1.0000
  H   H485      1.0  0.32680  0.57936  0.70227  1.0000
  H   H486      1.0  0.31115  0.56753  0.78592  1.0000
  H   H487      1.0  0.40136  0.55107  0.41248  1.0000
  Fe  Fe85      1.0  0.49479  0.47865  0.32188  1.0000
  S   S173      1.0  0.49571  0.46425  0.63966  1.0000
  H   H488      1.0  0.43705  0.45986  0.28911  1.0000
  H   H489      1.0  0.41266  0.53984  0.88116  1.0000
  H   H490      1.0  0.31918  0.57966  0.77021  1.0000
  H   H491      1.0  0.38695  0.59523  0.55903  1.0000
  C   C516      1.0  0.31645  0.59153  0.07231  1.0000
  H   H492      1.0  0.46207  0.51964  0.99657  1.0000
  H   H493      1.0  0.47595  0.59738  0.39129  1.0000
  C   C517      1.0  0.45204  0.47813  0.65903  1.0000
  C   C518      1.0  0.49849  0.49555  0.72139  1.0000
  H   H494      1.0  0.46192  0.51399  0.86749  1.0000
  C   C519      1.0  0.47936  0.52391  0.86345  1.0000
  H   H495      1.0  0.44667  0.51084  0.99139  1.0000
  H   H496      1.0  0.46292  0.58375  0.19895  1.0000
  C   C520      1.0  0.46336  0.51694  0.25787  1.0000
  C   C521      1.0  0.46203  0.51511  0.89596  1.0000
  H   H497      1.0  0.49094  0.49374  0.74321  1.0000
  H   H498      1.0  0.47162  0.58695  0.79136  1.0000
  H   H499      1.0  0.40579  0.50830  0.92936  1.0000
  H   H500      1.0  0.48074  0.58355  0.84039  1.0000
  H   H501      1.0  0.39320  0.50741  0.89485  1.0000
  C   C522      1.0  0.47940  0.43948  0.65574  1.0000
  C   C523      1.0  0.47608  0.59401  0.86900  1.0000
  H   H502      1.0  0.48537  0.59058  0.22690  1.0000
  H   H503      1.0  0.29415  0.59128  0.07002  1.0000
  S   S174      1.0  0.49303  0.58020  0.17518  1.0000
  H   H504      1.0  0.40345  0.59259  0.37143  1.0000
  H   H505      1.0  0.38808  0.52958  0.83059  1.0000
  H   H506      1.0  0.36837  0.58017  0.77430  1.0000
  H   H507      1.0  0.42911  0.59771  0.57923  1.0000
  H   H508      1.0  0.41541  0.52455  0.92317  1.0000
  C   C524      1.0  0.40443  0.51499  0.91183  1.0000
  C   C525      1.0  0.49842  0.56890  0.40978  1.0000
  H   H509      1.0  0.40000  0.53870  0.84764  1.0000
  C   C526      1.0  0.36525  0.59984  0.26693  1.0000
  C   C527      1.0  0.38815  0.52227  0.85036  1.0000
  H   H510      1.0  0.49537  0.49664  0.38087  1.0000
  H   H511      1.0  0.39440  0.59811  0.77414  1.0000
  C   C528      1.0  0.43990  0.48177  0.70960  1.0000
  S   S175      1.0  0.49368  0.55562  0.25894  1.0000
  H   H512      1.0  0.28696  0.59300  0.85317  1.0000
  Fe  Fe86      1.0  0.31325  0.59740  0.94306  1.0000
  H   H513      1.0  0.47806  0.44090  0.68455  1.0000
  C   C529      1.0  0.42014  0.56999  0.67176  1.0000
  H   H514      1.0  0.26557  0.58684  0.99971  1.0000
  H   H515      1.0  0.44146  0.47246  0.80186  1.0000
  H   H516      1.0  0.46733  0.53313  0.14397  1.0000
  H   H517      1.0  0.29048  0.59337  0.00546  1.0000
  C   C530      1.0  0.49797  0.49620  0.40670  1.0000
  H   H518      1.0  0.40913  0.60042  0.68496  1.0000
  C   C531      1.0  0.49354  0.57423  0.07092  1.0000
  C   C532      1.0  0.26930  0.58603  0.10662  1.0000
  H   H519      1.0  0.43417  0.48054  0.78627  1.0000
  H   H520      1.0  0.48026  0.53342  0.13331  1.0000
  C   C533      1.0  0.44891  0.47025  0.73075  1.0000
  H   H521      1.0  0.47129  0.57756  0.21806  1.0000
  H   H522      1.0  0.49276  0.58665  0.09269  1.0000
  C   C534      1.0  0.33531  0.60227  0.02206  1.0000
  H   H523      1.0  0.49776  0.49430  0.69308  1.0000
  S   S176      1.0  0.49674  0.46334  0.33931  1.0000
  C   C535      1.0  0.33278  0.60035  0.06417  1.0000
  S   S177      1.0  0.43287  0.60020  0.84019  1.0000
  C   C536      1.0  0.47975  0.59888  0.26487  1.0000
  C   C537      1.0  0.38832  0.58457  0.82385  1.0000
  Fe  Fe87      1.0  0.32000  0.59961  0.85343  1.0000
  C   C538      1.0  0.49771  0.43924  0.30196  1.0000
  H   H524      1.0  0.49885  0.52884  0.88007  1.0000
  H   H525      1.0  0.48638  0.60039  0.27273  1.0000
  H   H526      1.0  0.42339  0.60251  0.61855  1.0000
  H   H527      1.0  0.49627  0.60247  0.81539  1.0000
  S   S178      1.0  0.43774  0.60236  0.74314  1.0000
  H   H528      1.0  0.37735  0.60219  0.73957  1.0000
  C   C539      1.0  0.46478  0.60254  0.84279  1.0000
  H   H529      1.0  0.36725  0.60245  0.35546  1.0000
  C   C540      1.0  0.47170  0.60232  0.28113  1.0000
  H   H530      1.0  0.45664  0.60225  0.28638  1.0000
  C   C541      1.0  0.30334  0.75336  0.36293  1.0000
  H   H531      1.0  0.45304  0.61058  0.59071  1.0000
  C   C542      1.0  0.40475  0.72033  0.08067  1.0000
  C   C543      1.0  0.28774  0.71302  0.87965  1.0000
  Fe  Fe88      1.0  0.43647  0.62641  0.39519  1.0000
  S   S179      1.0  0.42876  0.62322  0.46176  1.0000
  S   S180      1.0  0.43937  0.64108  0.34653  1.0000
  Fe  Fe89      1.0  0.43984  0.61452  0.47204  1.0000
  S   S181      1.0  0.44772  0.61365  0.51848  1.0000
  H   H532      1.0  0.31064  0.61818  0.00922  1.0000
  H   H533      1.0  0.30489  0.73979  0.40075  1.0000
  S   S182      1.0  0.44850  0.61903  0.40542  1.0000
  S   S183      1.0  0.42752  0.61312  0.39039  1.0000
  C   C544      1.0  0.31548  0.62506  0.00553  1.0000
  Fe  Fe90      1.0  0.43433  0.61708  0.73392  1.0000
  S   S184      1.0  0.44380  0.62181  0.76903  1.0000
  S   S185      1.0  0.43279  0.62609  0.67523  1.0000
  C   C545      1.0  0.25373  0.65770  0.04087  1.0000
  N   N42       1.0  0.28077  0.62549  0.24991  1.0000
  H   H534      1.0  0.30253  0.74283  0.12957  1.0000
  Fe  Fe91      1.0  0.42993  0.61530  0.82295  1.0000
  S   S186      1.0  0.42495  0.62222  0.87186  1.0000
  S   S187      1.0  0.32788  0.60403  0.89405  1.0000
  H   H535      1.0  0.39130  0.79966  0.26711  1.0000
  H   H536      1.0  0.29584  0.72937  0.37092  1.0000
  C   C546      1.0  0.40532  0.79398  0.46674  1.0000
  H   H537      1.0  0.34777  0.61804  0.84841  1.0000
  S   S188      1.0  0.33222  0.62336  0.13368  1.0000
  H   H538      1.0  0.30752  0.75786  0.37537  1.0000
  Fe  Fe92      1.0  0.34037  0.62507  0.17723  1.0000
  S   S189      1.0  0.35274  0.63849  0.16165  1.0000
  Fe  Fe93      1.0  0.40953  0.75161  0.31033  1.0000
  S   S190      1.0  0.42134  0.76581  0.27748  1.0000
  S   S191      1.0  0.41203  0.73612  0.32009  1.0000
  Fe  Fe94      1.0  0.39309  0.76218  0.31707  1.0000
  S   S192      1.0  0.40338  0.77698  0.28284  1.0000
  S   S193      1.0  0.37671  0.76008  0.33987  1.0000
  Fe  Fe95      1.0  0.41123  0.76960  0.24140  1.0000
  S   S194      1.0  0.41587  0.77546  0.17268  1.0000
  Fe  Fe96      1.0  0.41265  0.77221  0.32225  1.0000
  S   S195      1.0  0.41623  0.78416  0.35120  1.0000
  S   S196      1.0  0.40003  0.75535  0.27232  1.0000
  S   S197      1.0  0.40173  0.75753  0.35869  1.0000
  Fe  Fe97      1.0  0.40001  0.67012  0.28502  1.0000
  S   S198      1.0  0.38620  0.67507  0.30621  1.0000
  S   S199      1.0  0.40367  0.66078  0.33819  1.0000
  Fe  Fe98      1.0  0.40101  0.67797  0.19650  1.0000
  S   S200      1.0  0.38737  0.68332  0.21184  1.0000
  S   S201      1.0  0.40813  0.68127  0.12906  1.0000
  Fe  Fe99      1.0  0.39365  0.68916  0.25426  1.0000
  S   S202      1.0  0.39242  0.70488  0.25071  1.0000
  Fe  Fe100     1.0  0.38131  0.66882  0.26192  1.0000
  S   S203      1.0  0.36615  0.65883  0.28075  1.0000
  S   S204      1.0  0.40783  0.68469  0.23550  1.0000
  S   S205      1.0  0.39458  0.66304  0.24402  1.0000
  Fe  Fe101     1.0  0.33737  0.74083  0.26280  1.0000
  S   S206      1.0  0.32399  0.74010  0.31282  1.0000
  S   S207      1.0  0.35056  0.73519  0.26919  1.0000
  Fe  Fe102     1.0  0.33032  0.75194  0.19692  1.0000
  S   S208      1.0  0.31651  0.75256  0.24140  1.0000
  S   S209      1.0  0.32507  0.76807  0.30853  1.0000
  Fe  Fe103     1.0  0.32630  0.75613  0.27792  1.0000
  C   C547      1.0  0.30187  0.76840  0.31578  1.0000
  Fe  Fe104     1.0  0.31551  0.73654  0.27186  1.0000
  C   C548      1.0  0.42017  0.79603  0.48440  1.0000
  S   S210      1.0  0.32886  0.73589  0.22531  1.0000
  Fe  Fe105     1.0  0.32615  0.73393  0.93660  1.0000
  S   S211      1.0  0.31964  0.73536  0.88586  1.0000
  S   S212      1.0  0.34006  0.72887  0.93573  1.0000
  Fe  Fe106     1.0  0.31063  0.74135  0.98582  1.0000
  S   S213      1.0  0.30289  0.74376  0.93900  1.0000
  S   S214      1.0  0.30473  0.74269  0.04826  1.0000
  Fe  Fe107     1.0  0.30481  0.72889  0.93472  1.0000
  C   C549      1.0  0.27202  0.67870  0.04188  1.0000
  S   S215      1.0  0.31167  0.72625  0.98473  1.0000
  S   S216      1.0  0.32560  0.74886  0.94107  1.0000
  Fe  Fe108     1.0  0.37026  0.65174  0.96352  1.0000
  S   S217      1.0  0.37824  0.66357  0.90391  1.0000
  S   S218      1.0  0.35568  0.64075  0.98213  1.0000
  Fe  Fe109     1.0  0.38710  0.65606  0.99710  1.0000
  S   S219      1.0  0.39658  0.66803  0.93947  1.0000
  S   S220      1.0  0.39059  0.65058  0.05507  1.0000
  Fe  Fe110     1.0  0.38255  0.67282  0.94080  1.0000
  S   S221      1.0  0.38003  0.68820  0.93118  1.0000
  Fe  Fe111     1.0  0.39142  0.65762  0.90844  1.0000
  S   S222      1.0  0.40003  0.65412  0.85379  1.0000
  S   S223      1.0  0.37340  0.66133  0.00036  1.0000
  S   S224      1.0  0.38315  0.64528  0.96613  1.0000
  Fe  Fe112     1.0  0.38604  0.75015  0.98418  1.0000
  S   S225      1.0  0.39650  0.76147  0.99496  1.0000
  S   S226      1.0  0.37056  0.75207  0.99580  1.0000
  Fe  Fe113     1.0  0.40096  0.73786  0.96779  1.0000
  S   S227      1.0  0.41274  0.74853  0.97550  1.0000
  S   S228      1.0  0.40470  0.72331  0.96573  1.0000
  Fe  Fe114     1.0  0.40088  0.74859  0.02964  1.0000
  S   S229      1.0  0.40216  0.74438  0.09261  1.0000
  Fe  Fe115     1.0  0.40751  0.76065  0.93960  1.0000
  S   S230      1.0  0.41638  0.77472  0.88721  1.0000
  S   S231      1.0  0.38944  0.73736  0.02406  1.0000
  S   S232      1.0  0.39670  0.74996  0.92663  1.0000
  S   S233      1.0  0.32399  0.76392  0.83808  1.0000
  H   H539      1.0  0.31374  0.72698  0.14758  1.0000
  H   H540      1.0  0.37668  0.75438  0.06085  1.0000
  C   C550      1.0  0.35882  0.60973  0.32092  1.0000
  H   H541      1.0  0.42461  0.73782  0.15199  1.0000
  H   H542      1.0  0.26556  0.60621  0.91180  1.0000
  H   H543      1.0  0.36953  0.64473  0.81726  1.0000
  S   S234      1.0  0.30816  0.61131  0.93261  1.0000
  N   N43       1.0  0.36809  0.63357  0.87226  1.0000
  H   H544      1.0  0.33134  0.73396  0.13388  1.0000
  S   S235      1.0  0.31525  0.61374  0.83659  1.0000
  Fe  Fe116     1.0  0.32223  0.61760  0.88079  1.0000
  S   S236      1.0  0.33214  0.63265  0.86503  1.0000
  H   H545      1.0  0.28959  0.73724  0.31591  1.0000
  H   H546      1.0  0.25777  0.62760  0.15389  1.0000
  H   H547      1.0  0.47011  0.60496  0.89075  1.0000
  C   C551      1.0  0.37336  0.75435  0.09158  1.0000
  C   C552      1.0  0.40545  0.70889  0.14020  1.0000
  H   H548      1.0  0.40180  0.72618  0.06618  1.0000
  C   C553      1.0  0.25284  0.65590  0.11019  1.0000
  H   H549      1.0  0.28241  0.73819  0.09832  1.0000
  Fe  Fe117     1.0  0.26259  0.66827  0.20483  1.0000
  C   C554      1.0  0.41401  0.63734  0.28861  1.0000
  H   H550      1.0  0.38249  0.63272  0.35492  1.0000
  H   H551      1.0  0.43790  0.64238  0.87591  1.0000
  H   H552      1.0  0.37751  0.62169  0.15792  1.0000
  C   C555      1.0  0.37851  0.62862  0.13331  1.0000
  S   S237      1.0  0.25528  0.64419  0.89396  1.0000
  C   C556      1.0  0.28847  0.70900  0.29035  1.0000
  N   N44       1.0  0.43539  0.64976  0.82112  1.0000
  C   C557      1.0  0.38904  0.63887  0.34575  1.0000
  C   C558      1.0  0.42488  0.78493  0.88686  1.0000
  C   C559      1.0  0.42830  0.78486  0.91972  1.0000
  H   H553      1.0  0.43457  0.76565  0.19854  1.0000
  C   C560      1.0  0.38912  0.79488  0.29834  1.0000
  C   C561      1.0  0.29152  0.71777  0.20790  1.0000
  H   H554      1.0  0.29251  0.75539  0.29068  1.0000
  H   H555      1.0  0.42591  0.77832  0.94616  1.0000
  C   C562      1.0  0.40519  0.80176  0.30155  1.0000
  H   H556      1.0  0.46132  0.63425  0.43395  1.0000
  C   C563      1.0  0.29497  0.75198  0.31570  1.0000
  C   C564      1.0  0.34984  0.63841  0.94754  1.0000
  C   C565      1.0  0.34321  0.62929  0.95864  1.0000
  C   C566      1.0  0.33793  0.62733  0.93306  1.0000
  C   C567      1.0  0.33908  0.63461  0.89666  1.0000
  C   C568      1.0  0.34576  0.64372  0.88544  1.0000
  C   C569      1.0  0.35121  0.64559  0.91061  1.0000
  H   H557      1.0  0.34205  0.62377  0.98746  1.0000
  H   H558      1.0  0.33279  0.62030  0.94201  1.0000
  H   H559      1.0  0.34665  0.64939  0.85734  1.0000
  H   H560      1.0  0.35622  0.65269  0.90208  1.0000
  C   C570      1.0  0.38711  0.69793  0.94015  1.0000
  C   C571      1.0  0.38413  0.70678  0.93662  1.0000
  C   C572      1.0  0.38940  0.71462  0.94447  1.0000
  C   C573      1.0  0.39777  0.71369  0.95560  1.0000
  C   C574      1.0  0.40074  0.70482  0.95935  1.0000
  C   C575      1.0  0.39542  0.69695  0.95184  1.0000
  H   H561      1.0  0.37771  0.70760  0.92763  1.0000
  H   H562      1.0  0.38705  0.72140  0.94142  1.0000
  H   H563      1.0  0.40722  0.70405  0.96783  1.0000
  H   H564      1.0  0.39777  0.69017  0.95480  1.0000
  C   C576      1.0  0.34851  0.73522  0.95294  1.0000
  C   C577      1.0  0.34577  0.74146  0.97518  1.0000
  C   C578      1.0  0.35259  0.74648  0.98846  1.0000
  C   C579      1.0  0.36223  0.74537  0.97941  1.0000
  C   C580      1.0  0.36498  0.73906  0.95757  1.0000
  C   C581      1.0  0.35811  0.73397  0.94449  1.0000
  H   H565      1.0  0.33834  0.74227  0.98299  1.0000
  H   H566      1.0  0.35040  0.75128  0.00569  1.0000
  H   H567      1.0  0.37240  0.73814  0.95056  1.0000
  H   H568      1.0  0.36028  0.72912  0.92747  1.0000
  H   H569      1.0  0.32952  0.63502  0.05199  1.0000
  C   C582      1.0  0.30188  0.74314  0.37749  1.0000
  H   H570      1.0  0.31448  0.63229  0.94637  1.0000
  H   H571      1.0  0.35649  0.76340  0.92136  1.0000
  H   H572      1.0  0.27242  0.61121  0.16658  1.0000
  H   H573      1.0  0.25386  0.69289  0.01575  1.0000
  H   H574      1.0  0.25432  0.62471  0.88940  1.0000
  C   C583      1.0  0.31755  0.63303  0.97009  1.0000
  C   C584      1.0  0.31330  0.74687  0.07016  1.0000
  C   C585      1.0  0.31017  0.74599  0.11156  1.0000
  C   C586      1.0  0.31690  0.74913  0.12987  1.0000
  N   N45       1.0  0.29991  0.75766  0.33238  1.0000
  C   C587      1.0  0.35133  0.75959  0.87521  1.0000
  H   H575      1.0  0.30432  0.71437  0.08261  1.0000
  H   H576      1.0  0.31445  0.74839  0.16185  1.0000
  C   C588      1.0  0.40304  0.67283  0.10854  1.0000
  C   C589      1.0  0.40459  0.67553  0.06654  1.0000
  C   C590      1.0  0.40046  0.66889  0.04989  1.0000
  C   C591      1.0  0.39509  0.65941  0.07506  1.0000
  C   C592      1.0  0.39359  0.65672  0.11695  1.0000
  C   C593      1.0  0.39741  0.66346  0.13372  1.0000
  H   H577      1.0  0.40903  0.68274  0.04680  1.0000
  H   H578      1.0  0.40171  0.67099  0.01746  1.0000
  H   H579      1.0  0.38949  0.64939  0.13657  1.0000
  H   H580      1.0  0.39621  0.66128  0.16600  1.0000
  C   C594      1.0  0.42570  0.79121  0.36253  1.0000
  C   C595      1.0  0.36039  0.62456  0.06155  1.0000
  H   H581      1.0  0.42503  0.74954  0.08950  1.0000
  C   C596      1.0  0.37546  0.63955  0.88254  1.0000
  H   H582      1.0  0.32081  0.71617  0.04729  1.0000
  S   S238      1.0  0.32687  0.61823  0.23182  1.0000
  C   C597      1.0  0.30573  0.71746  0.10615  1.0000
  H   H583      1.0  0.43765  0.79308  0.94338  1.0000
  S   S239      1.0  0.29157  0.71599  0.94852  1.0000
  S   S240      1.0  0.26907  0.65560  0.19542  1.0000
  C   C598      1.0  0.41157  0.76698  0.15051  1.0000
  C   C599      1.0  0.40902  0.75689  0.17155  1.0000
  C   C600      1.0  0.40588  0.75010  0.15372  1.0000
  C   C601      1.0  0.40548  0.75332  0.11415  1.0000
  C   C602      1.0  0.40808  0.76340  0.09256  1.0000
  C   C603      1.0  0.41114  0.77023  0.11080  1.0000
  H   H584      1.0  0.40999  0.75424  0.20074  1.0000
  H   H585      1.0  0.40402  0.74231  0.17035  1.0000
  H   H586      1.0  0.40787  0.76593  0.06176  1.0000
  H   H587      1.0  0.41323  0.77803  0.09407  1.0000
  C   C604      1.0  0.35789  0.74261  0.28667  1.0000
  C   C605      1.0  0.35399  0.74857  0.30818  1.0000
  C   C606      1.0  0.35986  0.75402  0.32396  1.0000
  C   C607      1.0  0.36969  0.75370  0.31752  1.0000
  C   C608      1.0  0.37360  0.74789  0.29518  1.0000
  C   C609      1.0  0.36771  0.74233  0.27994  1.0000
  H   H588      1.0  0.34638  0.74881  0.31359  1.0000
  H   H589      1.0  0.35674  0.75843  0.34149  1.0000
  H   H590      1.0  0.38099  0.74726  0.29115  1.0000
  H   H591      1.0  0.37072  0.73764  0.26371  1.0000
  C   C610      1.0  0.40701  0.72759  0.29892  1.0000
  C   C611      1.0  0.40806  0.71787  0.31024  1.0000
  C   C612      1.0  0.40387  0.71084  0.29509  1.0000
  C   C613      1.0  0.39856  0.71347  0.26845  1.0000
  C   C614      1.0  0.39768  0.72322  0.25654  1.0000
  C   C615      1.0  0.40191  0.73023  0.27142  1.0000
  H   H592      1.0  0.41202  0.71571  0.33131  1.0000
  H   H593      1.0  0.40460  0.70334  0.30465  1.0000
  H   H594      1.0  0.39357  0.72536  0.23607  1.0000
  H   H595      1.0  0.40112  0.73764  0.26165  1.0000
  C   C616      1.0  0.28140  0.72444  0.03605  1.0000
  H   H596      1.0  0.29602  0.63238  0.22359  1.0000
  H   H597      1.0  0.26679  0.70440  0.77693  1.0000
  S   S241      1.0  0.40428  0.60443  0.48587  1.0000
  H   H598      1.0  0.34158  0.61303  0.29696  1.0000
  C   C617      1.0  0.35649  0.64355  0.19630  1.0000
  C   C618      1.0  0.35013  0.64203  0.23519  1.0000
  C   C619      1.0  0.35323  0.64668  0.26092  1.0000
  C   C620      1.0  0.36268  0.65287  0.24799  1.0000
  C   C621      1.0  0.36909  0.65423  0.20934  1.0000
  C   C622      1.0  0.36599  0.64959  0.18364  1.0000
  H   H599      1.0  0.34275  0.63752  0.24503  1.0000
  H   H600      1.0  0.34822  0.64565  0.29069  1.0000
  H   H601      1.0  0.37639  0.65894  0.19916  1.0000
  H   H602      1.0  0.37099  0.65072  0.15377  1.0000
  C   C623      1.0  0.31743  0.61757  0.07192  1.0000
  N   N46       1.0  0.42183  0.78765  0.47635  1.0000
  H   H603      1.0  0.27110  0.63462  0.23768  1.0000
  H   H604      1.0  0.36385  0.78093  0.87872  1.0000
  H   H605      1.0  0.33355  0.64924  0.98956  1.0000
  H   H606      1.0  0.27697  0.67820  0.06069  1.0000
  S   S242      1.0  0.30165  0.72389  0.29678  1.0000
  C   C624      1.0  0.37037  0.61842  0.10143  1.0000
  C   C625      1.0  0.27199  0.62716  0.24682  1.0000
  C   C626      1.0  0.42406  0.79959  0.37330  1.0000
  S   S243      1.0  0.25219  0.67082  0.84248  1.0000
  C   C627      1.0  0.41663  0.62979  0.86830  1.0000
  C   C628      1.0  0.41489  0.63374  0.83164  1.0000
  C   C629      1.0  0.40943  0.64092  0.82804  1.0000
  C   C630      1.0  0.40554  0.64407  0.86118  1.0000
  C   C631      1.0  0.40682  0.63973  0.89847  1.0000
  C   C632      1.0  0.41240  0.63266  0.90189  1.0000
  H   H607      1.0  0.41806  0.63156  0.80561  1.0000
  H   H608      1.0  0.40844  0.64423  0.79913  1.0000
  H   H609      1.0  0.40389  0.64212  0.92417  1.0000
  H   H610      1.0  0.41371  0.62962  0.93036  1.0000
  H   H611      1.0  0.28469  0.63321  0.80474  1.0000
  H   H612      1.0  0.26096  0.60449  0.77869  1.0000
  S   S244      1.0  0.35795  0.79263  0.35753  1.0000
  H   H613      1.0  0.28310  0.72532  0.00392  1.0000
  H   H614      1.0  0.43146  0.65786  0.77145  1.0000
  Fe  Fe118     1.0  0.30159  0.60598  0.88998  1.0000
  H   H615      1.0  0.26847  0.68483  0.04439  1.0000
  C   C633      1.0  0.36501  0.60352  0.32848  1.0000
  S   S245      1.0  0.34155  0.60482  0.08443  1.0000
  H   H616      1.0  0.34265  0.60631  0.00258  1.0000
  H   H617      1.0  0.41984  0.64139  0.26025  1.0000
  C   C634      1.0  0.28467  0.70861  0.22872  1.0000
  H   H618      1.0  0.31287  0.61080  0.07119  1.0000
  Fe  Fe119     1.0  0.26639  0.68909  0.21330  1.0000
  H   H619      1.0  0.26286  0.66702  0.11843  1.0000
  C   C635      1.0  0.44299  0.61662  0.56285  1.0000
  C   C636      1.0  0.43542  0.62149  0.56714  1.0000
  C   C637      1.0  0.43228  0.62432  0.60191  1.0000
  C   C638      1.0  0.43649  0.62205  0.63297  1.0000
  C   C639      1.0  0.44385  0.61692  0.62913  1.0000
  C   C640      1.0  0.44715  0.61431  0.59398  1.0000
  H   H620      1.0  0.43214  0.62327  0.54333  1.0000
  H   H621      1.0  0.42656  0.62828  0.60482  1.0000
  H   H622      1.0  0.44725  0.61527  0.65264  1.0000
  H   H623      1.0  0.25123  0.61673  0.76194  1.0000
  C   C641      1.0  0.42939  0.64643  0.34363  1.0000
  C   C642      1.0  0.43034  0.65423  0.30884  1.0000
  C   C643      1.0  0.42251  0.65869  0.30627  1.0000
  C   C644      1.0  0.41377  0.65551  0.33901  1.0000
  C   C645      1.0  0.41289  0.64778  0.37390  1.0000
  C   C646      1.0  0.42059  0.64315  0.37598  1.0000
  H   H624      1.0  0.43715  0.65682  0.28373  1.0000
  H   H625      1.0  0.42328  0.66467  0.27933  1.0000
  H   H626      1.0  0.40615  0.64529  0.39934  1.0000
  H   H627      1.0  0.41973  0.63711  0.40282  1.0000
  H   H628      1.0  0.44766  0.64927  0.77481  1.0000
  C   C647      1.0  0.37696  0.78216  0.35547  1.0000
  C   C648      1.0  0.42806  0.79352  0.85279  1.0000
  C   C649      1.0  0.26019  0.64576  0.19673  1.0000
  C   C650      1.0  0.31914  0.72599  0.12264  1.0000
  H   H629      1.0  0.41588  0.70001  0.13131  1.0000
  C   C651      1.0  0.42638  0.74208  0.20274  1.0000
  H   H630      1.0  0.35658  0.63481  0.80151  1.0000
  H   H631      1.0  0.38103  0.63550  0.88896  1.0000
  C   C652      1.0  0.35987  0.77904  0.82732  1.0000
  N   N47       1.0  0.40145  0.71602  0.12209  1.0000
  C   C653      1.0  0.25570  0.63216  0.17244  1.0000
  C   C654      1.0  0.39391  0.71933  0.14759  1.0000
  H   H632      1.0  0.40297  0.70557  0.17300  1.0000
  H   H633      1.0  0.39739  0.72434  0.16111  1.0000
  H   H634      1.0  0.38976  0.72335  0.12979  1.0000
  H   H635      1.0  0.38855  0.71296  0.17266  1.0000
  N   N48       1.0  0.37596  0.72612  0.36198  1.0000
  C   C655      1.0  0.36658  0.72687  0.36482  1.0000
  C   C656      1.0  0.37954  0.71913  0.34768  1.0000
  C   C657      1.0  0.36075  0.72096  0.35068  1.0000
  C   C658      1.0  0.37393  0.71311  0.33322  1.0000
  C   C659      1.0  0.36451  0.71412  0.33437  1.0000
  C   C660      1.0  0.38210  0.73260  0.37560  1.0000
  H   H636      1.0  0.36368  0.73235  0.37652  1.0000
  H   H637      1.0  0.38684  0.71827  0.34685  1.0000
  H   H638      1.0  0.35349  0.72192  0.35109  1.0000
  H   H639      1.0  0.37692  0.70777  0.32077  1.0000
  H   H640      1.0  0.36014  0.70965  0.32248  1.0000
  H   H641      1.0  0.38011  0.73980  0.37190  1.0000
  H   H642      1.0  0.38125  0.72906  0.40809  1.0000
  H   H643      1.0  0.38997  0.73425  0.35723  1.0000
  N   N49       1.0  0.37229  0.62721  0.10837  1.0000
  H   H644      1.0  0.28803  0.62252  0.15807  1.0000
  C   C661      1.0  0.36869  0.63480  0.09107  1.0000
  H   H645      1.0  0.28417  0.70600  0.03397  1.0000
  S   S246      1.0  0.25436  0.66699  0.93333  1.0000
  C   C662      1.0  0.41536  0.78230  0.46406  1.0000
  C   C663      1.0  0.27813  0.60827  0.17580  1.0000
  H   H646      1.0  0.37338  0.61245  0.11438  1.0000
  H   H647      1.0  0.37033  0.64183  0.09591  1.0000
  H   H648      1.0  0.27337  0.70690  0.12767  1.0000
  H   H649      1.0  0.27332  0.69973  0.07708  1.0000
  Fe  Fe120     1.0  0.31895  0.61518  0.18855  1.0000
  H   H650      1.0  0.40213  0.78134  0.44766  1.0000
  H   H651      1.0  0.35636  0.60667  0.23475  1.0000
  H   H652      1.0  0.41676  0.77577  0.45684  1.0000
  C   C664      1.0  0.28701  0.61466  0.17093  1.0000
  H   H653      1.0  0.39757  0.78923  0.37752  1.0000
  H   H654      1.0  0.27794  0.69725  0.28678  1.0000
  C   C665      1.0  0.28093  0.73175  0.08903  1.0000
  C   C666      1.0  0.28517  0.70995  0.92212  1.0000
  C   C667      1.0  0.32909  0.72989  0.11523  1.0000
  C   C668      1.0  0.33925  0.78770  0.35032  1.0000
  H   H655      1.0  0.30208  0.72949  0.21146  1.0000
  H   H656      1.0  0.34381  0.73187  0.07639  1.0000
  C   C669      1.0  0.43059  0.75519  0.09264  1.0000
  N   N50       1.0  0.37498  0.75553  0.15489  1.0000
  C   C670      1.0  0.37914  0.75545  0.11621  1.0000
  C   C671      1.0  0.38122  0.75666  0.18010  1.0000
  H   H657      1.0  0.38697  0.75628  0.10408  1.0000
  H   H658      1.0  0.36168  0.75396  0.20151  1.0000
  H   H659      1.0  0.38281  0.74950  0.19333  1.0000
  H   H660      1.0  0.38827  0.76217  0.16176  1.0000
  H   H661      1.0  0.37763  0.75928  0.20531  1.0000
  N   N51       1.0  0.44467  0.64803  0.44341  1.0000
  C   C672      1.0  0.44341  0.64789  0.48260  1.0000
  C   C673      1.0  0.45102  0.64322  0.42589  1.0000
  C   C674      1.0  0.44883  0.64312  0.50482  1.0000
  C   C675      1.0  0.45648  0.63829  0.44740  1.0000
  C   C676      1.0  0.45542  0.63832  0.48699  1.0000
  C   C677      1.0  0.43869  0.65279  0.42109  1.0000
  H   H662      1.0  0.43812  0.65139  0.49706  1.0000
  H   H663      1.0  0.45179  0.64304  0.39529  1.0000
  H   H664      1.0  0.44773  0.64287  0.53614  1.0000
  C   C678      1.0  0.36505  0.75415  0.17050  1.0000
  H   H665      1.0  0.45942  0.63428  0.50437  1.0000
  H   H666      1.0  0.43180  0.64738  0.42665  1.0000
  H   H667      1.0  0.43684  0.65913  0.43044  1.0000
  H   H668      1.0  0.44263  0.65564  0.38774  1.0000
  C   C679      1.0  0.33305  0.72358  0.05906  1.0000
  H   H669      1.0  0.25340  0.71821  0.82643  1.0000
  N   N52       1.0  0.39804  0.63550  0.33484  1.0000
  N   N53       1.0  0.38235  0.68693  0.07166  1.0000
  C   C680      1.0  0.37834  0.69139  0.04353  1.0000
  C   C681      1.0  0.37888  0.67708  0.09286  1.0000
  C   C682      1.0  0.37058  0.68600  0.03627  1.0000
  C   C683      1.0  0.37106  0.67149  0.08661  1.0000
  C   C684      1.0  0.36690  0.67601  0.05817  1.0000
  C   C685      1.0  0.39073  0.69272  0.07728  1.0000
  H   H670      1.0  0.38124  0.69914  0.02596  1.0000
  H   H671      1.0  0.38216  0.67347  0.11462  1.0000
  H   H672      1.0  0.36764  0.68951  0.01297  1.0000
  H   H673      1.0  0.36833  0.66368  0.10325  1.0000
  H   H674      1.0  0.36095  0.67173  0.05250  1.0000
  H   H675      1.0  0.39748  0.69375  0.05183  1.0000
  H   H676      1.0  0.38959  0.70008  0.07766  1.0000
  H   H677      1.0  0.39188  0.68903  0.10640  1.0000
  H   H678      1.0  0.30742  0.77104  0.28489  1.0000
  H   H679      1.0  0.38117  0.77761  0.40909  1.0000
  C   C686      1.0  0.27602  0.71416  0.10503  1.0000
  C   C687      1.0  0.29681  0.73731  0.36077  1.0000
  C   C688      1.0  0.35503  0.77242  0.81274  1.0000
  C   C689      1.0  0.40793  0.62444  0.35350  1.0000
  C   C690      1.0  0.35611  0.76601  0.89079  1.0000
  H   H680      1.0  0.34806  0.75198  0.89393  1.0000
  H   H681      1.0  0.42217  0.66693  0.81094  1.0000
  C   C691      1.0  0.36031  0.77581  0.86675  1.0000
  C   C692      1.0  0.35906  0.75302  0.14663  1.0000
  C   C693      1.0  0.36327  0.75321  0.10679  1.0000
  H   H682      1.0  0.35120  0.75202  0.15885  1.0000
  C   C694      1.0  0.42595  0.66184  0.82487  1.0000
  H   H683      1.0  0.32432  0.61584  0.07600  1.0000
  H   H684      1.0  0.35007  0.62030  0.24738  1.0000
  H   H685      1.0  0.34289  0.75993  0.79719  1.0000
  N   N54       1.0  0.35068  0.76289  0.83696  1.0000
  H   H686      1.0  0.35872  0.75246  0.08775  1.0000
  C   C695      1.0  0.36587  0.63731  0.83751  1.0000
  C   C696      1.0  0.29330  0.74173  0.32980  1.0000
  H   H687      1.0  0.36298  0.78670  0.80862  1.0000
  H   H688      1.0  0.27503  0.69935  0.97773  1.0000
  C   C697      1.0  0.28238  0.70799  0.86047  1.0000
  C   C698      1.0  0.40526  0.64034  0.29833  1.0000
  C   C699      1.0  0.43297  0.76106  0.14798  1.0000
  C   C700      1.0  0.37984  0.78839  0.31540  1.0000
  C   C701      1.0  0.28179  0.61608  0.26299  1.0000
  Fe  Fe121     1.0  0.31821  0.75007  0.89366  1.0000
  H   H689      1.0  0.35452  0.77504  0.78239  1.0000
  C   C702      1.0  0.34564  0.75600  0.82139  1.0000
  C   C703      1.0  0.32826  0.64256  0.99425  1.0000
  H   H690      1.0  0.27725  0.62363  0.85168  1.0000
  S   S247      1.0  0.34008  0.75690  0.23019  1.0000
  C   C704      1.0  0.32675  0.75338  0.10657  1.0000
  C   C705      1.0  0.32318  0.75096  0.04714  1.0000
  H   H691      1.0  0.37947  0.64655  0.85742  1.0000
  H   H692      1.0  0.42149  0.70723  0.05594  1.0000
  C   C706      1.0  0.40703  0.78540  0.45890  1.0000
  C   C707      1.0  0.25997  0.62787  0.77599  1.0000
  C   C708      1.0  0.41200  0.71724  0.05627  1.0000
  C   C709      1.0  0.41277  0.70571  0.11675  1.0000
  H   H693      1.0  0.32567  0.75174  0.01527  1.0000
  C   C710      1.0  0.33217  0.78219  0.33922  1.0000
  C   C711      1.0  0.26288  0.63957  0.17398  1.0000
  S   S248      1.0  0.25288  0.69092  0.09813  1.0000
  H   H694      1.0  0.42898  0.76241  0.08005  1.0000
  C   C712      1.0  0.32986  0.75429  0.06521  1.0000
  H   H695      1.0  0.41454  0.72060  0.02341  1.0000
  C   C713      1.0  0.41596  0.70981  0.07448  1.0000
  C   C714      1.0  0.32305  0.71995  0.06681  1.0000
  H   H696      1.0  0.33747  0.75759  0.04708  1.0000
  S   S249      1.0  0.33536  0.75735  0.12856  1.0000
  C   C715      1.0  0.35363  0.62228  0.85471  1.0000
  H   H697      1.0  0.36466  0.62156  0.92695  1.0000
  C   C716      1.0  0.25749  0.61864  0.77168  1.0000
  C   C717      1.0  0.35590  0.61855  0.89019  1.0000
  N   N55       1.0  0.31623  0.72123  0.09817  1.0000
  S   S250      1.0  0.28607  0.60769  0.89561  1.0000
  C   C718      1.0  0.36316  0.62436  0.89864  1.0000
  H   H698      1.0  0.25095  0.65526  0.01912  1.0000
  H   H699      1.0  0.28606  0.62085  0.81349  1.0000
  C   C719      1.0  0.35861  0.63172  0.82823  1.0000
  H   H700      1.0  0.37186  0.64145  0.90978  1.0000
  H   H701      1.0  0.25923  0.60350  0.27171  1.0000
  H   H702      1.0  0.26916  0.63696  0.79671  1.0000
  H   H703      1.0  0.28719  0.70557  0.32246  1.0000
  S   S251      1.0  0.26967  0.68338  0.16004  1.0000
  H   H704      1.0  0.44775  0.79139  0.37877  1.0000
  C   C720      1.0  0.26115  0.66631  0.02797  1.0000
  H   H705      1.0  0.27490  0.60886  0.80247  1.0000
  H   H706      1.0  0.40444  0.64679  0.27717  1.0000
  H   H707      1.0  0.43649  0.79037  0.47831  1.0000
  H   H708      1.0  0.31341  0.61942  0.09871  1.0000
  C   C721      1.0  0.29692  0.72243  0.22790  1.0000
  H   H709      1.0  0.29387  0.71926  0.86154  1.0000
  C   C722      1.0  0.25652  0.71166  0.83110  1.0000
  C   C723      1.0  0.43439  0.78840  0.36400  1.0000
  H   H710      1.0  0.42865  0.74857  0.24779  1.0000
  C   C724      1.0  0.32398  0.64182  0.96451  1.0000
  C   C725      1.0  0.42918  0.74991  0.21605  1.0000
  H   H711      1.0  0.43801  0.75520  0.07417  1.0000
  N   N56       1.0  0.43006  0.75335  0.13530  1.0000
  H   H712      1.0  0.43530  0.76855  0.12715  1.0000
  H   H713      1.0  0.28450  0.71045  0.82762  1.0000
  C   C726      1.0  0.27715  0.70178  0.94495  1.0000
  H   H714      1.0  0.27223  0.70733  0.03103  1.0000
  C   C727      1.0  0.43253  0.75946  0.18850  1.0000
  C   C728      1.0  0.29542  0.71808  0.26938  1.0000
  H   H715      1.0  0.42891  0.65150  0.91596  1.0000
  C   C729      1.0  0.34863  0.78596  0.34414  1.0000
  C   C730      1.0  0.40232  0.79389  0.88506  1.0000
  C   C731      1.0  0.43477  0.64802  0.86107  1.0000
  C   C732      1.0  0.33608  0.72872  0.08303  1.0000
  H   H716      1.0  0.29257  0.72136  0.17618  1.0000
  C   C733      1.0  0.42692  0.74394  0.16195  1.0000
  C   C734      1.0  0.28285  0.73281  0.04786  1.0000
  H   H717      1.0  0.29506  0.77071  0.31401  1.0000
  H   H718      1.0  0.30494  0.77209  0.33472  1.0000
  N   N57       1.0  0.26448  0.66949  0.05561  1.0000
  C   C735      1.0  0.33252  0.77610  0.87374  1.0000
  C   C736      1.0  0.33146  0.77484  0.83784  1.0000
  H   H719      1.0  0.30195  0.72354  0.10590  1.0000
  H   H720      1.0  0.42220  0.62711  0.30988  1.0000
  H   H721      1.0  0.42370  0.73464  0.22413  1.0000
  C   C737      1.0  0.27440  0.69980  0.88331  1.0000
  H   H722      1.0  0.27050  0.64069  0.15662  1.0000
  C   C738      1.0  0.36438  0.61695  0.07797  1.0000
  H   H723      1.0  0.35066  0.75172  0.80929  1.0000
  H   H724      1.0  0.40894  0.61831  0.37559  1.0000
  C   C739      1.0  0.26292  0.61178  0.78117  1.0000
  C   C740      1.0  0.44116  0.79375  0.37706  1.0000
  H   H725      1.0  0.32592  0.64792  0.93648  1.0000
  S   S252      1.0  0.34507  0.61104  0.17951  1.0000
  H   H726      1.0  0.43331  0.78060  0.45956  1.0000
  H   H727      1.0  0.32858  0.77043  0.90259  1.0000
  S   S253      1.0  0.27824  0.70306  0.20119  1.0000
  C   C741      1.0  0.41534  0.62935  0.31647  1.0000
  C   C742      1.0  0.33435  0.77488  0.32164  1.0000
  H   H728      1.0  0.28877  0.61475  0.26535  1.0000
  H   H729      1.0  0.26465  0.71423  0.81859  1.0000
  C   C743      1.0  0.28318  0.70425  0.27018  1.0000
  H   H730      1.0  0.30245  0.71162  0.13636  1.0000
  H   H731      1.0  0.33908  0.75083  0.84596  1.0000
  H   H732      1.0  0.34555  0.76760  0.30190  1.0000
  H   H733      1.0  0.33842  0.72255  0.03407  1.0000
  H   H734      1.0  0.39368  0.62397  0.39157  1.0000
  Fe  Fe122     1.0  0.25512  0.68004  0.88173  1.0000
  C   C744      1.0  0.32601  0.63446  0.02936  1.0000
  C   C745      1.0  0.34373  0.77316  0.31538  1.0000
  C   C746      1.0  0.38337  0.78245  0.37798  1.0000
  C   C747      1.0  0.39930  0.62766  0.36231  1.0000
  N   N58       1.0  0.27802  0.71527  0.06454  1.0000
  H   H735      1.0  0.33573  0.78152  0.77275  1.0000
  N   N59       1.0  0.31969  0.62587  0.03462  1.0000
  C   C748      1.0  0.43494  0.79325  0.91808  1.0000
  C   C749      1.0  0.27747  0.72238  0.11788  1.0000
  C   C750      1.0  0.27181  0.69673  0.92580  1.0000
  C   C751      1.0  0.34927  0.61734  0.28022  1.0000
  C   C752      1.0  0.33654  0.78239  0.80069  1.0000
  C   C753      1.0  0.36254  0.63353  0.06816  1.0000
  C   C754      1.0  0.26765  0.62998  0.79122  1.0000
  N   N60       1.0  0.27297  0.62322  0.80026  1.0000
  C   C755      1.0  0.35078  0.77863  0.32664  1.0000
  H   H736      1.0  0.35796  0.77715  0.32176  1.0000
  S   S254      1.0  0.26784  0.69386  0.85722  1.0000
  H   H737      1.0  0.43612  0.64128  0.78116  1.0000
  H   H738      1.0  0.27606  0.72144  0.14998  1.0000
  C   C756      1.0  0.27687  0.70663  0.05112  1.0000
  H   H739      1.0  0.38863  0.64488  0.32007  1.0000
  C   C757      1.0  0.27075  0.61426  0.79504  1.0000
  H   H740      1.0  0.38882  0.64186  0.37125  1.0000
  H   H741      1.0  0.32497  0.78362  0.34423  1.0000
  C   C758      1.0  0.33850  0.78484  0.87255  1.0000
  H   H742      1.0  0.33914  0.78576  0.90064  1.0000
  C   C759      1.0  0.28061  0.62535  0.81830  1.0000
  Fe  Fe123     1.0  0.44594  0.60632  0.78365  1.0000
  N   N61       1.0  0.35600  0.61103  0.28692  1.0000
  H   H743      1.0  0.35555  0.62347  0.04401  1.0000
  C   C760      1.0  0.34366  0.79235  0.83544  1.0000
  H   H744      1.0  0.25722  0.62066  0.25108  1.0000
  H   H745      1.0  0.42839  0.77882  0.51348  1.0000
  H   H746      1.0  0.28581  0.74007  0.02515  1.0000
  C   C761      1.0  0.42968  0.65314  0.88394  1.0000
  C   C762      1.0  0.42520  0.66005  0.86570  1.0000
  H   H747      1.0  0.42087  0.66379  0.88344  1.0000
  Fe  Fe124     1.0  0.33566  0.60865  0.14125  1.0000
  H   H748      1.0  0.26024  0.69253  0.74691  1.0000
  C   C763      1.0  0.34270  0.79107  0.79939  1.0000
  N   N62       1.0  0.25267  0.70491  0.81196  1.0000
  H   H749      1.0  0.42535  0.79369  0.82748  1.0000
  H   H750      1.0  0.44238  0.63796  0.81705  1.0000
  H   H751      1.0  0.43581  0.78199  0.35592  1.0000
  C   C764      1.0  0.29440  0.61098  0.18390  1.0000
  C   C765      1.0  0.39261  0.78903  0.35995  1.0000
  H   H752      1.0  0.38632  0.63125  0.11376  1.0000
  H   H753      1.0  0.36263  0.60992  0.07319  1.0000
  H   H754      1.0  0.26567  0.69052  0.94391  1.0000
  H   H755      1.0  0.26412  0.67052  0.99582  1.0000
  S   S255      1.0  0.30480  0.61935  0.18273  1.0000
  H   H756      1.0  0.25564  0.63317  0.76963  1.0000
  S   S256      1.0  0.26040  0.67366  0.25884  1.0000
  H   H757      1.0  0.27665  0.68047  0.00968  1.0000
  H   H758      1.0  0.28974  0.63494  0.26890  1.0000
  H   H759      1.0  0.35938  0.63946  0.05615  1.0000
  H   H760      1.0  0.40506  0.78638  0.93970  1.0000
  Fe  Fe125     1.0  0.42059  0.60933  0.45759  1.0000
  H   H761      1.0  0.47206  0.60657  0.30152  1.0000
  C   C766      1.0  0.43040  0.78415  0.48243  1.0000
  H   H762      1.0  0.35621  0.61345  0.34255  1.0000
  C   C767      1.0  0.44069  0.64435  0.79732  1.0000
  H   H763      1.0  0.39793  0.78727  0.88397  1.0000
  Fe  Fe126     1.0  0.25454  0.68403  0.15907  1.0000
  C   C768      1.0  0.27402  0.60804  0.27152  1.0000
  C   C769      1.0  0.43114  0.65663  0.80285  1.0000
  H   H764      1.0  0.46037  0.60787  0.84337  1.0000
  H   H765      1.0  0.43938  0.79926  0.71433  1.0000
  H   H766      1.0  0.36975  0.77712  0.36897  1.0000
  C   C770      1.0  0.40630  0.79339  0.91649  1.0000
  S   S257      1.0  0.42038  0.61166  0.78695  1.0000
  H   H767      1.0  0.35180  0.61135  0.91170  1.0000
  H   H768      1.0  0.28821  0.64070  0.22054  1.0000
  H   H769      1.0  0.35072  0.62376  0.29079  1.0000
  C   C771      1.0  0.28908  0.63379  0.24039  1.0000
  C   C772      1.0  0.41193  0.79936  0.47950  1.0000
  H   H770      1.0  0.37976  0.60513  0.41636  1.0000
  H   H771      1.0  0.33745  0.79328  0.36369  1.0000
  C   C773      1.0  0.26039  0.66443  0.09633  1.0000
  S   S258      1.0  0.25143  0.69055  0.20951  1.0000
  C   C774      1.0  0.26517  0.60968  0.26674  1.0000
  H   H772      1.0  0.39897  0.79654  0.46222  1.0000
  H   H773      1.0  0.37663  0.63421  0.14801  1.0000
  H   H774      1.0  0.42538  0.80034  0.49356  1.0000
  C   C775      1.0  0.26409  0.61929  0.25474  1.0000
  Fe  Fe127     1.0  0.33123  0.60400  0.23203  1.0000
  H   H775      1.0  0.34657  0.79681  0.77062  1.0000
  H   H776      1.0  0.37482  0.78823  0.29800  1.0000
  C   C776      1.0  0.39036  0.60448  0.44820  1.0000
  N   N63       1.0  0.39534  0.79518  0.32070  1.0000
  H   H777      1.0  0.38672  0.60781  0.46955  1.0000
  H   H778      1.0  0.25466  0.70779  0.86424  1.0000
  Fe  Fe128     1.0  0.43879  0.60535  0.40648  1.0000
  S   S259      1.0  0.25294  0.60647  0.13566  1.0000
  C   C777      1.0  0.25891  0.70189  0.78459  1.0000
  C   C778      1.0  0.38645  0.60299  0.41811  1.0000
  H   H779      1.0  0.41007  0.79835  0.28301  1.0000
  H   H780      1.0  0.41734  0.80181  0.37285  1.0000
  C   C779      1.0  0.43938  0.80200  0.38873  1.0000
  S   S260      1.0  0.36851  0.80046  0.43613  1.0000
  C   C780      1.0  0.35902  0.60608  0.26040  1.0000
  C   C781      1.0  0.25526  0.69514  0.76756  1.0000
  C   C782      1.0  0.43450  0.80196  0.85158  1.0000
  C   C783      1.0  0.43808  0.80184  0.88403  1.0000
  H   H781      1.0  0.41577  0.80133  0.94003  1.0000
  C   C784      1.0  0.41240  0.80186  0.91635  1.0000
  H   H782      1.0  0.40019  0.83842  0.28244  1.0000
  H   H783      1.0  0.41149  0.81817  0.83257  1.0000
  S   S261      1.0  0.46456  0.95878  0.42469  1.0000
  S   S262      1.0  0.45424  0.95001  0.34958  1.0000
  Fe  Fe129     1.0  0.47772  0.97105  0.38639  1.0000
  S   S263      1.0  0.49285  0.96893  0.38068  1.0000
  H   H784      1.0  0.45174  0.99024  0.89118  1.0000
  H   H785      1.0  0.47193  0.82122  0.68122  1.0000
  C   C785      1.0  0.38693  0.90398  0.99619  1.0000
  H   H786      1.0  0.41011  0.92867  0.88845  1.0000
  H   H787      1.0  0.38540  0.90019  0.02920  1.0000
  H   H788      1.0  0.36610  0.84424  0.88478  1.0000
  S   S264      1.0  0.49265  0.91192  0.27313  1.0000
  N   N64       1.0  0.48652  0.94884  0.34345  1.0000
  H   H789      1.0  0.39537  0.91484  0.91840  1.0000
  C   C786      1.0  0.41888  0.83219  0.57236  1.0000
  Fe  Fe130     1.0  0.48827  0.92438  0.29269  1.0000
  S   S265      1.0  0.47305  0.92631  0.30169  1.0000
  C   C787      1.0  0.35694  0.85343  0.83628  1.0000
  H   H790      1.0  0.46358  0.93426  0.37766  1.0000
  Fe  Fe131     1.0  0.42362  0.91473  0.26028  1.0000
  S   S266      1.0  0.43456  0.91486  0.20301  1.0000
  S   S267      1.0  0.42441  0.92894  0.27758  1.0000
  Fe  Fe132     1.0  0.41364  0.89281  0.27885  1.0000
  S   S268      1.0  0.42426  0.89153  0.22339  1.0000
  S   S269      1.0  0.40339  0.87932  0.33040  1.0000
  Fe  Fe133     1.0  0.43562  0.90031  0.23994  1.0000
  S   S270      1.0  0.45074  0.89785  0.23220  1.0000
  Fe  Fe134     1.0  0.42221  0.90618  0.19060  1.0000
  S   S271      1.0  0.42401  0.91103  0.12275  1.0000
  S   S272      1.0  0.42535  0.90051  0.29796  1.0000
  S   S273      1.0  0.41088  0.90715  0.24534  1.0000
  Fe  Fe135     1.0  0.36349  0.81297  0.45431  1.0000
  S   S274      1.0  0.35644  0.81656  0.40483  1.0000
  S   S275      1.0  0.35635  0.81140  0.52088  1.0000
  Fe  Fe136     1.0  0.38208  0.81202  0.39637  1.0000
  S   S276      1.0  0.37690  0.81570  0.34253  1.0000
  S   S277      1.0  0.39724  0.80984  0.38759  1.0000
  Fe  Fe137     1.0  0.37121  0.82705  0.36748  1.0000
  S   S278      1.0  0.37426  0.84263  0.32453  1.0000
  H   H791      1.0  0.41647  0.82319  0.90446  1.0000
  H   H792      1.0  0.45016  0.80679  0.64210  1.0000
  S   S279      1.0  0.37761  0.82421  0.41800  1.0000
  Fe  Fe138     1.0  0.46092  0.97069  0.77468  1.0000
  Fe  Fe139     1.0  0.44798  0.82912  0.50382  1.0000
  S   S280      1.0  0.44546  0.84370  0.47305  1.0000
  S   S281      1.0  0.44591  0.82403  0.57201  1.0000
  S   S282      1.0  0.44509  0.83555  0.39598  1.0000
  Fe  Fe140     1.0  0.45647  0.84329  0.41658  1.0000
  S   S283      1.0  0.46646  0.85718  0.36601  1.0000
  Fe  Fe141     1.0  0.43449  0.83484  0.45493  1.0000
  S   S284      1.0  0.41908  0.83658  0.46470  1.0000
  S   S285      1.0  0.45968  0.82902  0.44814  1.0000
  Fe  Fe142     1.0  0.41681  0.90561  0.86708  1.0000
  S   S286      1.0  0.42350  0.90317  0.91671  1.0000
  S   S287      1.0  0.42010  0.92119  0.82344  1.0000
  Fe  Fe143     1.0  0.40751  0.88341  0.88734  1.0000
  S   S288      1.0  0.41377  0.87951  0.93899  1.0000
  S   S289      1.0  0.39976  0.86938  0.87840  1.0000
  Fe  Fe144     1.0  0.40930  0.89235  0.95550  1.0000
  S   S290      1.0  0.40244  0.89071  0.02224  1.0000
  Fe  Fe145     1.0  0.42744  0.89060  0.89692  1.0000
  S   S291      1.0  0.44245  0.88808  0.89013  1.0000
  S   S292      1.0  0.40192  0.89562  0.90724  1.0000
  S   S293      1.0  0.42185  0.89369  0.84383  1.0000
  Fe  Fe146     1.0  0.36345  0.81474  0.78352  1.0000
  S   S294      1.0  0.37406  0.81180  0.73259  1.0000
  S   S295      1.0  0.49175  0.90492  0.06532  1.0000
  Fe  Fe147     1.0  0.37522  0.83611  0.76243  1.0000
  S   S296      1.0  0.38635  0.83473  0.70927  1.0000
  S   S297      1.0  0.37702  0.85097  0.77438  1.0000
  Fe  Fe148     1.0  0.37403  0.82680  0.69420  1.0000
  S   S298      1.0  0.37744  0.83088  0.62520  1.0000
  Fe  Fe149     1.0  0.38555  0.81996  0.75058  1.0000
  S   S299      1.0  0.39985  0.81599  0.74861  1.0000
  S   S300      1.0  0.36263  0.82945  0.74429  1.0000
  S   S301      1.0  0.37514  0.82165  0.80494  1.0000
  Fe  Fe150     1.0  0.44021  0.84235  0.79953  1.0000
  S   S302      1.0  0.45416  0.85333  0.75953  1.0000
  S   S303      1.0  0.42557  0.84548  0.80207  1.0000
  Fe  Fe151     1.0  0.45026  0.82752  0.83661  1.0000
  S   S304      1.0  0.46537  0.83745  0.79939  1.0000
  Fe  Fe152     1.0  0.45927  0.84994  0.81462  1.0000
  S   S305      1.0  0.46468  0.86379  0.83060  1.0000
  Fe  Fe153     1.0  0.45904  0.84020  0.74745  1.0000
  S   S306      1.0  0.46673  0.84064  0.68291  1.0000
  S   S307      1.0  0.44468  0.83971  0.85546  1.0000
  S   S308      1.0  0.44464  0.82945  0.78392  1.0000
  Fe  Fe154     1.0  0.49405  0.90905  0.99690  1.0000
  H   H793      1.0  0.48315  0.99860  0.82731  1.0000
  Fe  Fe155     1.0  0.49281  0.90003  0.92791  1.0000
  S   S309      1.0  0.48175  0.90039  0.98400  1.0000
  S   S310      1.0  0.49155  0.88545  0.91296  1.0000
  Fe  Fe156     1.0  0.48112  0.91490  0.94509  1.0000
  S   S311      1.0  0.46617  0.91762  0.95078  1.0000
  C   C788      1.0  0.35600  0.84018  0.42325  1.0000
  H   H794      1.0  0.42447  0.82464  0.85459  1.0000
  S   S312      1.0  0.49153  0.91425  0.88831  1.0000
  H   H795      1.0  0.37174  0.85764  0.43746  1.0000
  C   C789      1.0  0.47300  0.87006  0.84977  1.0000
  C   C790      1.0  0.47985  0.86581  0.86457  1.0000
  C   C791      1.0  0.48569  0.87077  0.88239  1.0000
  C   C792      1.0  0.48483  0.88007  0.88569  1.0000
  C   C793      1.0  0.47824  0.88447  0.86955  1.0000
  C   C794      1.0  0.47235  0.87949  0.85198  1.0000
  H   H796      1.0  0.48054  0.85862  0.86294  1.0000
  H   H797      1.0  0.36343  0.85784  0.83967  1.0000
  H   H798      1.0  0.47761  0.89168  0.87100  1.0000
  H   H799      1.0  0.46717  0.88293  0.84040  1.0000
  C   C795      1.0  0.40720  0.82502  0.75906  1.0000
  C   C796      1.0  0.41735  0.82618  0.74748  1.0000
  C   C797      1.0  0.42316  0.83298  0.75825  1.0000
  C   C798      1.0  0.41878  0.83836  0.78174  1.0000
  C   C799      1.0  0.40869  0.83753  0.79155  1.0000
  C   C800      1.0  0.40292  0.83094  0.77989  1.0000
  H   H800      1.0  0.42072  0.82180  0.73043  1.0000
  H   H801      1.0  0.43099  0.83404  0.74835  1.0000
  H   H802      1.0  0.40528  0.84180  0.80912  1.0000
  H   H803      1.0  0.39512  0.83025  0.78820  1.0000
  C   C801      1.0  0.39366  0.86453  0.84810  1.0000
  C   C802      1.0  0.39190  0.85434  0.85398  1.0000
  C   C803      1.0  0.38718  0.85012  0.83076  1.0000
  C   C804      1.0  0.38392  0.85600  0.80177  1.0000
  C   C805      1.0  0.38561  0.86617  0.79609  1.0000
  C   C806      1.0  0.39054  0.87043  0.81865  1.0000
  H   H804      1.0  0.39429  0.84967  0.87652  1.0000
  H   H805      1.0  0.38594  0.84230  0.83571  1.0000
  H   H806      1.0  0.38311  0.87082  0.77390  1.0000
  H   H807      1.0  0.39180  0.87826  0.81359  1.0000
  C   C807      1.0  0.44897  0.89570  0.90944  1.0000
  C   C808      1.0  0.44414  0.89867  0.94165  1.0000
  C   C809      1.0  0.44943  0.90543  0.95445  1.0000
  C   C810      1.0  0.45958  0.90896  0.93583  1.0000
  C   C811      1.0  0.46442  0.90568  0.90471  1.0000
  C   C812      1.0  0.45911  0.89909  0.89142  1.0000
  H   H808      1.0  0.43635  0.89577  0.95676  1.0000
  H   H809      1.0  0.44564  0.90789  0.97873  1.0000
  H   H810      1.0  0.47221  0.90845  0.88981  1.0000
  H   H811      1.0  0.46284  0.89688  0.86626  1.0000
  C   C813      1.0  0.45124  0.83040  0.59985  1.0000
  C   C814      1.0  0.44597  0.82877  0.64082  1.0000
  C   C815      1.0  0.45044  0.83240  0.66598  1.0000
  C   C816      1.0  0.46030  0.83755  0.65063  1.0000
  C   C817      1.0  0.46547  0.83944  0.60932  1.0000
  C   C818      1.0  0.46095  0.83598  0.58393  1.0000
  H   H812      1.0  0.44636  0.83083  0.69765  1.0000
  H   H813      1.0  0.47311  0.84340  0.59714  1.0000
  H   H814      1.0  0.46513  0.83720  0.55260  1.0000
  C   C819      1.0  0.36271  0.81610  0.55030  1.0000
  C   C820      1.0  0.37204  0.82253  0.53237  1.0000
  C   C821      1.0  0.37650  0.82683  0.55595  1.0000
  C   C822      1.0  0.37177  0.82466  0.59784  1.0000
  C   C823      1.0  0.36253  0.81807  0.61600  1.0000
  C   C824      1.0  0.35800  0.81389  0.59224  1.0000
  H   H815      1.0  0.37576  0.82436  0.50021  1.0000
  H   H816      1.0  0.38361  0.83194  0.54150  1.0000
  H   H817      1.0  0.35877  0.81637  0.64814  1.0000
  H   H818      1.0  0.36551  0.85420  0.38372  1.0000
  C   C825      1.0  0.40324  0.81675  0.41088  1.0000
  C   C826      1.0  0.41337  0.82050  0.39437  1.0000
  C   C827      1.0  0.41824  0.82643  0.41146  1.0000
  C   C828      1.0  0.41298  0.82879  0.44466  1.0000
  C   C829      1.0  0.40282  0.82502  0.46136  1.0000
  C   C830      1.0  0.39797  0.81886  0.44485  1.0000
  H   H819      1.0  0.41745  0.81902  0.36770  1.0000
  H   H820      1.0  0.42603  0.82942  0.39794  1.0000
  H   H821      1.0  0.39868  0.82681  0.48707  1.0000
  H   H822      1.0  0.39015  0.81576  0.45848  1.0000
  C   C831      1.0  0.41819  0.90474  0.09605  1.0000
  C   C832      1.0  0.40963  0.89719  0.11576  1.0000
  C   C833      1.0  0.40499  0.89280  0.09285  1.0000
  C   C834      1.0  0.40899  0.89573  0.05021  1.0000
  C   C835      1.0  0.41771  0.90309  0.03067  1.0000
  C   C836      1.0  0.42219  0.90766  0.05342  1.0000
  H   H823      1.0  0.40644  0.89491  0.14852  1.0000
  H   H824      1.0  0.39823  0.88715  0.10827  1.0000
  H   H825      1.0  0.42085  0.90547  0.99794  1.0000
  H   H826      1.0  0.42878  0.91352  0.03785  1.0000
  C   C837      1.0  0.39549  0.86922  0.32720  1.0000
  C   C838      1.0  0.39290  0.86951  0.29228  1.0000
  C   C839      1.0  0.38645  0.86129  0.29170  1.0000
  C   C840      1.0  0.38276  0.85264  0.32549  1.0000
  C   C841      1.0  0.38560  0.85228  0.35990  1.0000
  C   C842      1.0  0.39177  0.86058  0.36100  1.0000
  H   H827      1.0  0.39569  0.87613  0.26612  1.0000
  H   H828      1.0  0.38426  0.86166  0.26499  1.0000
  H   H829      1.0  0.38284  0.84570  0.38614  1.0000
  H   H830      1.0  0.39377  0.86029  0.38806  1.0000
  H   H831      1.0  0.36588  0.85355  0.51774  1.0000
  H   H832      1.0  0.41078  0.80616  0.48473  1.0000
  H   H833      1.0  0.42937  0.81124  0.39499  1.0000
  C   C843      1.0  0.39913  0.91699  0.93816  1.0000
  H   H834      1.0  0.45245  0.93178  0.18060  1.0000
  H   H835      1.0  0.49503  0.94650  0.86517  1.0000
  S   S313      1.0  0.44755  0.80780  0.40963  1.0000
  C   C844      1.0  0.44854  0.94563  0.21358  1.0000
  H   H836      1.0  0.49851  0.96201  0.80750  1.0000
  N   N65       1.0  0.40891  0.83022  0.58897  1.0000
  C   C845      1.0  0.48758  0.88407  0.36742  1.0000
  C   C846      1.0  0.48426  0.88436  0.33422  1.0000
  C   C847      1.0  0.47791  0.87601  0.33431  1.0000
  C   C848      1.0  0.47451  0.86737  0.36809  1.0000
  C   C849      1.0  0.47759  0.86714  0.40186  1.0000
  C   C850      1.0  0.48419  0.87542  0.40126  1.0000
  H   H837      1.0  0.48674  0.89092  0.30802  1.0000
  H   H838      1.0  0.47551  0.87628  0.30817  1.0000
  H   H839      1.0  0.47507  0.86052  0.42802  1.0000
  H   H840      1.0  0.48540  0.90473  0.14797  1.0000
  C   C851      1.0  0.46695  0.91858  0.28153  1.0000
  C   C852      1.0  0.47206  0.91635  0.24759  1.0000
  C   C853      1.0  0.46711  0.90984  0.23269  1.0000
  C   C854      1.0  0.45702  0.90577  0.25117  1.0000
  C   C855      1.0  0.45196  0.90806  0.28493  1.0000
  C   C856      1.0  0.45692  0.91442  0.30019  1.0000
  H   H841      1.0  0.47978  0.91974  0.23240  1.0000
  H   H842      1.0  0.47109  0.90811  0.20656  1.0000
  H   H843      1.0  0.44426  0.90474  0.30014  1.0000
  H   H844      1.0  0.45300  0.91590  0.32710  1.0000
  S   S314      1.0  0.44646  0.81223  0.88323  1.0000
  C   C857      1.0  0.44198  0.94757  0.82479  1.0000
  C   C858      1.0  0.43907  0.94798  0.79048  1.0000
  C   C859      1.0  0.43233  0.93988  0.79050  1.0000
  C   C860      1.0  0.42865  0.93122  0.82426  1.0000
  C   C861      1.0  0.43168  0.93080  0.85825  1.0000
  C   C862      1.0  0.43816  0.93898  0.85877  1.0000
  H   H845      1.0  0.44190  0.95458  0.76418  1.0000
  H   H846      1.0  0.43000  0.94032  0.76410  1.0000
  H   H847      1.0  0.42895  0.92423  0.88444  1.0000
  H   H848      1.0  0.44035  0.93859  0.88546  1.0000
  H   H849      1.0  0.44244  0.94294  0.20423  1.0000
  H   H850      1.0  0.46625  0.99833  0.91592  1.0000
  C   C863      1.0  0.44505  0.94378  0.33430  1.0000
  C   C864      1.0  0.43734  0.94773  0.32619  1.0000
  C   C865      1.0  0.43089  0.94292  0.31021  1.0000
  C   C866      1.0  0.43197  0.93408  0.30241  1.0000
  C   C867      1.0  0.43945  0.92998  0.31195  1.0000
  C   C868      1.0  0.44596  0.93483  0.32745  1.0000
  H   H851      1.0  0.43649  0.95459  0.33128  1.0000
  H   H852      1.0  0.42511  0.94616  0.30320  1.0000
  H   H853      1.0  0.44029  0.92314  0.30669  1.0000
  H   H854      1.0  0.45188  0.93171  0.33351  1.0000
  C   C869      1.0  0.45297  0.96968  0.58510  1.0000
  H   H855      1.0  0.41903  0.93354  0.93291  1.0000
  H   H856      1.0  0.46658  0.81759  0.62593  1.0000
  S   S315      1.0  0.45153  0.97395  0.39519  1.0000
  H   H857      1.0  0.49641  0.94918  0.37744  1.0000
  C   C870      1.0  0.49953  0.95328  0.86444  1.0000
  C   C871      1.0  0.46488  0.81618  0.68879  1.0000
  C   C872      1.0  0.46552  0.98076  0.52416  1.0000
  H   H858      1.0  0.40556  0.82298  0.54835  1.0000
  S   S316      1.0  0.35115  0.80313  0.83609  1.0000
  S   S317      1.0  0.47043  0.98863  0.61855  1.0000
  C   C873      1.0  0.36277  0.84900  0.41443  1.0000
  H   H859      1.0  0.40235  0.83465  0.54350  1.0000
  C   C874      1.0  0.49272  0.90947  0.13370  1.0000
  H   H860      1.0  0.46877  0.98347  0.49150  1.0000
  H   H861      1.0  0.34736  0.82656  0.47003  1.0000
  H   H862      1.0  0.45759  0.88545  0.97497  1.0000
  C   C875      1.0  0.46951  0.98537  0.54807  1.0000
  H   H863      1.0  0.38791  0.89830  0.98108  1.0000
  H   H864      1.0  0.35355  0.83849  0.39934  1.0000
  N   N66       1.0  0.45882  0.81226  0.72826  1.0000
  C   C876      1.0  0.46414  0.88233  0.97191  1.0000
  H   H865      1.0  0.34569  0.82154  0.84123  1.0000
  C   C877      1.0  0.45403  0.86203  0.93743  1.0000
  H   H866      1.0  0.42217  0.83172  0.54240  1.0000
  H   H867      1.0  0.35460  0.81491  0.88793  1.0000
  H   H868      1.0  0.40845  0.80312  0.32470  1.0000
  H   H869      1.0  0.38049  0.90678  0.99202  1.0000
  N   N67       1.0  0.44630  0.99198  0.45456  1.0000
  H   H870      1.0  0.44817  0.86792  0.36735  1.0000
  S   S318      1.0  0.47201  0.98237  0.41093  1.0000
  Fe  Fe157     1.0  0.47167  0.99250  0.75432  1.0000
  C   C878      1.0  0.46192  0.81414  0.65737  1.0000
  H   H871      1.0  0.49271  0.98894  0.76373  1.0000
  H   H872      1.0  0.35324  0.83048  0.52328  1.0000
  N   N68       1.0  0.35652  0.84287  0.84990  1.0000
  S   S319      1.0  0.46829  0.00082  0.31819  1.0000
  H   H873      1.0  0.35077  0.80897  0.60643  1.0000
  H   H874      1.0  0.35780  0.85603  0.80328  1.0000
  C   C879      1.0  0.36683  0.84633  0.51466  1.0000
  H   H875      1.0  0.40365  0.83685  0.38244  1.0000
  H   H876      1.0  0.47036  0.88769  0.94626  1.0000
  H   H877      1.0  0.47171  0.85289  0.96906  1.0000
  H   H878      1.0  0.45188  0.86721  0.43118  1.0000
  H   H879      1.0  0.39189  0.83570  0.33275  1.0000
  N   N69       1.0  0.45701  0.93032  0.83109  1.0000
  C   C880      1.0  0.45149  0.92085  0.84455  1.0000
  C   C881      1.0  0.45848  0.93633  0.79255  1.0000
  C   C882      1.0  0.44704  0.91723  0.81972  1.0000
  C   C883      1.0  0.45406  0.93298  0.76696  1.0000
  C   C884      1.0  0.44826  0.92339  0.78083  1.0000
  C   C885      1.0  0.46159  0.93394  0.85774  1.0000
  H   H880      1.0  0.45031  0.91613  0.87498  1.0000
  H   H881      1.0  0.46276  0.94388  0.78200  1.0000
  H   H882      1.0  0.44253  0.90976  0.83095  1.0000
  H   H883      1.0  0.45490  0.93790  0.73708  1.0000
  H   H884      1.0  0.44453  0.92079  0.76185  1.0000
  H   H885      1.0  0.45712  0.93029  0.89031  1.0000
  H   H886      1.0  0.46896  0.93241  0.85343  1.0000
  H   H887      1.0  0.46226  0.94198  0.85141  1.0000
  H   H888      1.0  0.44559  0.98702  0.51683  1.0000
  H   H889      1.0  0.47576  0.99163  0.53339  1.0000
  H   H890      1.0  0.45600  0.81269  0.78932  1.0000
  C   C886      1.0  0.47331  0.93463  0.41336  1.0000
  C   C887      1.0  0.40906  0.92245  0.98767  1.0000
  C   C888      1.0  0.42499  0.83482  0.59379  1.0000
  C   C889      1.0  0.40062  0.91471  0.00386  1.0000
  Fe  Fe158     1.0  0.46915  0.98380  0.68593  1.0000
  H   H891      1.0  0.44868  0.92522  0.23447  1.0000
  C   C890      1.0  0.35508  0.82276  0.87764  1.0000
  N   N70       1.0  0.46239  0.87292  0.96427  1.0000
  H   H892      1.0  0.46781  0.93887  0.23731  1.0000
  C   C891      1.0  0.41247  0.92754  0.94597  1.0000
  H   H893      1.0  0.48977  0.96162  0.29214  1.0000
  H   H894      1.0  0.46602  0.88145  0.00036  1.0000
  C   C892      1.0  0.35087  0.83663  0.83767  1.0000
  H   H895      1.0  0.47409  0.86858  0.98390  1.0000
  H   H896      1.0  0.43099  0.98574  0.48071  1.0000
  C   C893      1.0  0.48261  0.93883  0.41314  1.0000
  H   H897      1.0  0.49126  0.87231  0.26033  1.0000
  C   C894      1.0  0.35254  0.83352  0.46272  1.0000
  H   H898      1.0  0.43553  0.89626  0.13046  1.0000
  C   C895      1.0  0.49839  0.98819  0.51025  1.0000
  C   C896      1.0  0.42081  0.81939  0.88596  1.0000
  C   C897      1.0  0.46216  0.81448  0.76054  1.0000
  H   H899      1.0  0.46540  0.90328  0.39397  1.0000
  H   H900      1.0  0.41356  0.85033  0.39522  1.0000
  C   C898      1.0  0.45454  0.87401  0.40568  1.0000
  N   N71       1.0  0.42672  0.86756  0.81150  1.0000
  C   C899      1.0  0.42506  0.86696  0.85135  1.0000
  C   C900      1.0  0.43610  0.86972  0.78556  1.0000
  C   C901      1.0  0.43289  0.86868  0.86604  1.0000
  C   C902      1.0  0.44411  0.87147  0.79931  1.0000
  C   C903      1.0  0.44246  0.87104  0.83970  1.0000
  C   C904      1.0  0.41834  0.86617  0.79668  1.0000
  H   H901      1.0  0.41766  0.86513  0.87202  1.0000
  H   H902      1.0  0.43742  0.86995  0.75424  1.0000
  H   H903      1.0  0.43153  0.86838  0.89747  1.0000
  H   H904      1.0  0.45156  0.87309  0.77899  1.0000
  H   H905      1.0  0.44861  0.87261  0.85049  1.0000
  H   H906      1.0  0.42045  0.86511  0.76643  1.0000
  H   H907      1.0  0.41271  0.85943  0.81780  1.0000
  H   H908      1.0  0.41502  0.87258  0.79486  1.0000
  C   C905      1.0  0.49778  0.98755  0.38603  1.0000
  H   H909      1.0  0.42551  0.83740  0.64951  1.0000
  N   N72       1.0  0.45064  0.90237  0.09621  1.0000
  C   C906      1.0  0.45406  0.90030  0.12862  1.0000
  C   C907      1.0  0.45653  0.90893  0.05939  1.0000
  C   C908      1.0  0.46356  0.90496  0.12478  1.0000
  C   C909      1.0  0.46608  0.91371  0.05447  1.0000
  C   C910      1.0  0.46959  0.91172  0.08746  1.0000
  C   C911      1.0  0.44083  0.89708  0.10049  1.0000
  H   H910      1.0  0.44943  0.89502  0.15771  1.0000
  H   H911      1.0  0.45388  0.91049  0.03353  1.0000
  H   H912      1.0  0.46624  0.90326  0.15054  1.0000
  H   H913      1.0  0.47075  0.91884  0.02511  1.0000
  H   H914      1.0  0.47700  0.91532  0.08398  1.0000
  H   H915      1.0  0.43798  0.90116  0.07702  1.0000
  H   H916      1.0  0.44098  0.88970  0.09760  1.0000
  C   C912      1.0  0.42086  0.83547  0.63234  1.0000
  Fe  Fe159     1.0  0.45875  0.96295  0.37189  1.0000
  H   H917      1.0  0.34705  0.83949  0.81680  1.0000
  C   C913      1.0  0.45738  0.99547  0.86311  1.0000
  H   H918      1.0  0.49952  0.96050  0.31298  1.0000
  H   H919      1.0  0.49154  0.98902  0.37719  1.0000
  C   C914      1.0  0.50053  0.98985  0.75503  1.0000
  C   C915      1.0  0.41016  0.81121  0.85592  1.0000
  H   H920      1.0  0.43289  0.83635  0.58058  1.0000
  H   H921      1.0  0.41297  0.92435  0.00737  1.0000
  C   C916      1.0  0.40416  0.80288  0.85471  1.0000
  H   H922      1.0  0.43670  0.80853  0.82552  1.0000
  C   C917      1.0  0.46690  0.85773  0.96383  1.0000
  H   H923      1.0  0.47475  0.90459  0.34759  1.0000
  H   H924      1.0  0.46376  0.99226  0.85470  1.0000
  C   C918      1.0  0.39970  0.83693  0.31488  1.0000
  H   H925      1.0  0.43849  0.82437  0.65361  1.0000
  H   H926      1.0  0.39504  0.82382  0.58554  1.0000
  H   H927      1.0  0.37475  0.84641  0.50620  1.0000
  H   H928      1.0  0.40805  0.85522  0.26248  1.0000
  H   H929      1.0  0.35018  0.85491  0.85398  1.0000
  S   S320      1.0  0.43605  0.82029  0.48954  1.0000
  H   H930      1.0  0.46531  0.89771  0.31343  1.0000
  C   C919      1.0  0.40264  0.82778  0.56550  1.0000
  H   H931      1.0  0.36313  0.84062  0.54507  1.0000
  N   N73       1.0  0.40567  0.84508  0.32124  1.0000
  C   C920      1.0  0.40950  0.85401  0.29117  1.0000
  H   H932      1.0  0.40210  0.83004  0.32490  1.0000
  C   C921      1.0  0.45544  0.87078  0.94672  1.0000
  S   S321      1.0  0.45042  0.95744  0.82700  1.0000
  C   C922      1.0  0.41070  0.83364  0.64865  1.0000
  N   N74       1.0  0.36285  0.84428  0.48355  1.0000
  C   C923      1.0  0.46218  0.89114  0.33965  1.0000
  C   C924      1.0  0.47021  0.89935  0.37806  1.0000
  H   H933      1.0  0.47536  0.89719  0.39476  1.0000
  Fe  Fe160     1.0  0.44731  0.82133  0.43149  1.0000
  H   H934      1.0  0.47539  0.94680  0.31613  1.0000
  H   H935      1.0  0.46143  0.92864  0.20406  1.0000
  N   N75       1.0  0.46423  0.89068  0.37490  1.0000
  H   H936      1.0  0.39689  0.82962  0.63927  1.0000
  H   H937      1.0  0.46808  0.92920  0.44071  1.0000
  S   S322      1.0  0.49367  0.92140  0.34611  1.0000
  H   H938      1.0  0.45905  0.84886  0.93745  1.0000
  H   H939      1.0  0.48756  0.98233  0.58910  1.0000
  S   S323      1.0  0.47318  0.97813  0.79194  1.0000
  H   H940      1.0  0.39811  0.91070  0.03623  1.0000
  C   C925      1.0  0.47075  0.93750  0.37814  1.0000
  C   C926      1.0  0.40702  0.84378  0.35824  1.0000
  C   C927      1.0  0.41505  0.86184  0.29756  1.0000
  H   H941      1.0  0.41778  0.86902  0.27431  1.0000
  Fe  Fe161     1.0  0.45838  0.97047  0.44536  1.0000
  H   H942      1.0  0.43638  0.98425  0.43215  1.0000
  H   H943      1.0  0.46872  0.95400  0.25645  1.0000
  H   H944      1.0  0.44879  0.86053  0.92206  1.0000
  C   C928      1.0  0.45447  0.93104  0.20869  1.0000
  C   C929      1.0  0.45624  0.88305  0.33653  1.0000
  C   C930      1.0  0.47748  0.94465  0.34327  1.0000
  H   H945      1.0  0.49356  0.91206  0.18918  1.0000
  C   C931      1.0  0.41255  0.85143  0.36568  1.0000
  C   C932      1.0  0.41655  0.86053  0.33510  1.0000
  S   S324      1.0  0.47265  0.97447  0.33213  1.0000
  C   C933      1.0  0.48919  0.94590  0.37757  1.0000
  N   N76       1.0  0.39579  0.91207  0.97911  1.0000
  C   C934      1.0  0.36148  0.83928  0.87564  1.0000
  H   H946      1.0  0.45651  0.96384  0.24849  1.0000
  C   C935      1.0  0.46818  0.86659  0.97235  1.0000
  H   H947      1.0  0.44643  0.96371  0.59962  1.0000
  C   C936      1.0  0.46045  0.88228  0.40780  1.0000
  H   H948      1.0  0.42052  0.86667  0.34088  1.0000
  C   C937      1.0  0.40748  0.92482  0.92102  1.0000
  C   C938      1.0  0.45268  0.80807  0.66650  1.0000
  C   C939      1.0  0.45246  0.87440  0.36975  1.0000
  H   H949      1.0  0.46221  0.88185  0.43553  1.0000
  C   C940      1.0  0.45980  0.85547  0.94610  1.0000
  S   S325      1.0  0.47091  0.96901  0.71865  1.0000
  C   C941      1.0  0.46325  0.95189  0.24305  1.0000
  C   C942      1.0  0.45715  0.97409  0.60920  1.0000
  H   H950      1.0  0.49250  0.87882  0.18725  1.0000
  N   N77       1.0  0.45538  0.94032  0.21763  1.0000
  H   H951      1.0  0.49045  0.98464  0.51971  1.0000
  C   C943      1.0  0.45638  0.95742  0.23853  1.0000
  Fe  Fe162     1.0  0.46601  0.98514  0.35908  1.0000
  S   S326      1.0  0.45108  0.96793  0.51285  1.0000
  C   C944      1.0  0.40479  0.83102  0.62641  1.0000
  H   H952      1.0  0.45473  0.88344  0.30827  1.0000
  H   H953      1.0  0.48468  0.93667  0.44033  1.0000
  C   C945      1.0  0.45710  0.97301  0.54243  1.0000
  S   S327      1.0  0.45843  0.98521  0.74141  1.0000
  H   H954      1.0  0.45112  0.87595  0.93884  1.0000
  C   C946      1.0  0.46263  0.94329  0.23247  1.0000
  C   C947      1.0  0.35006  0.82649  0.85135  1.0000
  H   H955      1.0  0.42673  0.81747  0.89834  1.0000
  H   H956      1.0  0.48672  0.87510  0.42712  1.0000
  H   H957      1.0  0.40742  0.83421  0.67843  1.0000
  S   S328      1.0  0.49243  0.92370  0.96182  1.0000
  H   H958      1.0  0.45383  0.97153  0.64194  1.0000
  C   C948      1.0  0.35599  0.83574  0.49275  1.0000
  Fe  Fe163     1.0  0.48281  0.97762  0.73311  1.0000
  H   H959      1.0  0.36497  0.82637  0.90948  1.0000
  C   C949      1.0  0.44898  0.95430  0.22361  1.0000
  C   C950      1.0  0.36623  0.85090  0.44499  1.0000
  S   S329      1.0  0.48198  0.99225  0.69634  1.0000
  H   H960      1.0  0.44332  0.95827  0.22188  1.0000
  C   C951      1.0  0.46537  0.98207  0.59067  1.0000
  N   N78       1.0  0.41439  0.81058  0.88582  1.0000
  H   H961      1.0  0.49081  0.86730  0.89436  1.0000
  C   C952      1.0  0.36088  0.82918  0.88973  1.0000
  C   C953      1.0  0.44934  0.99245  0.48694  1.0000
  H   H962      1.0  0.49350  0.98111  0.64782  1.0000
  H   H963      1.0  0.40494  0.80901  0.28226  1.0000
  C   C954      1.0  0.43759  0.98440  0.46117  1.0000
  C   C955      1.0  0.44660  0.80396  0.70692  1.0000
  S   S330      1.0  0.49782  0.97490  0.72346  1.0000
  C   C956      1.0  0.49348  0.95624  0.30634  1.0000
  H   H964      1.0  0.40107  0.80340  0.83012  1.0000
  H   H965      1.0  0.43843  0.97700  0.47650  1.0000
  H   H966      1.0  0.45988  0.00004  0.50769  1.0000
  C   C957      1.0  0.49645  0.87920  0.24057  1.0000
  C   C958      1.0  0.50036  0.97862  0.38714  1.0000
  H   H967      1.0  0.46567  0.82247  0.75114  1.0000
  C   C959      1.0  0.49715  0.88284  0.19965  1.0000
  H   H968      1.0  0.46757  0.81021  0.76692  1.0000
  C   C960      1.0  0.44985  0.80607  0.73766  1.0000
  Fe  Fe164     1.0  0.36268  0.80482  0.38342  1.0000
  H   H969      1.0  0.45427  0.99641  0.83768  1.0000
  C   C961      1.0  0.43085  0.80496  0.38606  1.0000
  C   C962      1.0  0.49735  0.91362  0.15723  1.0000
  H   H970      1.0  0.44888  0.99831  0.39072  1.0000
  S   S331      1.0  0.49612  0.89424  0.36714  1.0000
  C   C963      1.0  0.45743  0.99979  0.48194  1.0000
  C   C964      1.0  0.49870  0.98366  0.61725  1.0000
  H   H971      1.0  0.49682  0.95258  0.28465  1.0000
  C   C965      1.0  0.49756  0.91123  0.09216  1.0000
  C   C966      1.0  0.45114  0.99871  0.41674  1.0000
  Fe  Fe165     1.0  0.49921  0.90971  0.32312  1.0000
  C   C967      1.0  0.49538  0.98434  0.58382  1.0000
  H   H972      1.0  0.44511  0.80278  0.76898  1.0000
  H   H973      1.0  0.49965  0.99604  0.49216  1.0000
  H   H974      1.0  0.66517  0.16321  0.40699  1.0000
  H   H975      1.0  0.62205  0.16117  0.31731  1.0000
  H   H976      1.0  0.54972  0.03140  0.94224  1.0000
  C   C968      1.0  0.56733  0.05243  0.37447  1.0000
  C   C969      1.0  0.60638  0.05059  0.16297  1.0000
  C   C970      1.0  0.56949  0.03796  0.83311  1.0000
  C   C971      1.0  0.58716  0.17881  0.81132  1.0000
  H   H977      1.0  0.63350  0.06774  0.16135  1.0000
  H   H978      1.0  0.61776  0.05908  0.23703  1.0000
  S   S332      1.0  0.59777  0.05194  0.33016  1.0000
  H   H979      1.0  0.51788  0.02476  0.74234  1.0000
  H   H980      1.0  0.56676  0.07307  0.16816  1.0000
  C   C972      1.0  0.56740  0.03543  0.43205  1.0000
  Fe  Fe166     1.0  0.50595  0.05130  0.93820  1.0000
  H   H981      1.0  0.52006  0.07680  0.39993  1.0000
  H   H982      1.0  0.69920  0.20267  0.03736  1.0000
  C   C973      1.0  0.62969  0.20164  0.95859  1.0000
  H   H983      1.0  0.55154  0.16097  0.61247  1.0000
  Fe  Fe167     1.0  0.53198  0.05551  0.23245  1.0000
  S   S333      1.0  0.52175  0.05744  0.28658  1.0000
  S   S334      1.0  0.54558  0.05054  0.23601  1.0000
  Fe  Fe168     1.0  0.51992  0.06167  0.17738  1.0000
  C   C974      1.0  0.50700  0.09559  0.31189  1.0000
  S   S335      1.0  0.52309  0.06415  0.10952  1.0000
  Fe  Fe169     1.0  0.52154  0.07161  0.24291  1.0000
  S   S336      1.0  0.52357  0.08660  0.25397  1.0000
  Fe  Fe170     1.0  0.50991  0.04998  0.26733  1.0000
  H   H984      1.0  0.57444  0.18685  0.23652  1.0000
  S   S337      1.0  0.53251  0.07001  0.18963  1.0000
  S   S338      1.0  0.52038  0.04696  0.21659  1.0000
  Fe  Fe171     1.0  0.62898  0.15296  0.41651  1.0000
  S   S339      1.0  0.63854  0.15191  0.35853  1.0000
  S   S340      1.0  0.61416  0.15582  0.42062  1.0000
  Fe  Fe172     1.0  0.64221  0.14640  0.46533  1.0000
  S   S341      1.0  0.65263  0.14436  0.41106  1.0000
  S   S342      1.0  0.64400  0.14158  0.52824  1.0000
  Fe  Fe173     1.0  0.65087  0.15904  0.37618  1.0000
  S   S343      1.0  0.66356  0.17090  0.32647  1.0000
  Fe  Fe174     1.0  0.63931  0.13741  0.39819  1.0000
  S   S344      1.0  0.63662  0.12238  0.38806  1.0000
  S   S345      1.0  0.64112  0.16137  0.43107  1.0000
  S   S346      1.0  0.62915  0.13824  0.45552  1.0000
  Fe  Fe175     1.0  0.55716  0.12096  0.34754  1.0000
  S   S347      1.0  0.57253  0.12931  0.30755  1.0000
  S   S348      1.0  0.54979  0.10621  0.34302  1.0000
  Fe  Fe176     1.0  0.55770  0.13290  0.40731  1.0000
  S   S349      1.0  0.57280  0.14220  0.37040  1.0000
  S   S350      1.0  0.55010  0.13364  0.47011  1.0000
  Fe  Fe177     1.0  0.56807  0.14301  0.31588  1.0000
  S   S351      1.0  0.57487  0.15706  0.26137  1.0000
  Fe  Fe178     1.0  0.57608  0.12799  0.36510  1.0000
  S   S352      1.0  0.58970  0.12373  0.37331  1.0000
  S   S353      1.0  0.55229  0.13478  0.35280  1.0000
  S   S354      1.0  0.56133  0.11862  0.40486  1.0000
  Fe  Fe179     1.0  0.59969  0.06778  0.29136  1.0000
  S   S355      1.0  0.59241  0.06999  0.24356  1.0000
  Fe  Fe180     1.0  0.60644  0.09017  0.27661  1.0000
  S   S356      1.0  0.59915  0.09354  0.22814  1.0000
  S   S357      1.0  0.61242  0.10464  0.28694  1.0000
  Fe  Fe181     1.0  0.58674  0.08092  0.27065  1.0000
  S   S358      1.0  0.57099  0.08148  0.28517  1.0000
  Fe  Fe182     1.0  0.60545  0.08222  0.20517  1.0000
  S   S359      1.0  0.61168  0.08475  0.13720  1.0000
  S   S360      1.0  0.59328  0.07823  0.32074  1.0000
  S   S361      1.0  0.61362  0.07943  0.25080  1.0000
  Fe  Fe183     1.0  0.59995  0.07956  0.88770  1.0000
  S   S362      1.0  0.58983  0.07989  0.94630  1.0000
  S   S363      1.0  0.60943  0.09361  0.83729  1.0000
  Fe  Fe184     1.0  0.59099  0.05760  0.90383  1.0000
  S   S364      1.0  0.58055  0.05635  0.96434  1.0000
  S   S365      1.0  0.59115  0.04401  0.88245  1.0000
  Fe  Fe185     1.0  0.57825  0.07076  0.93205  1.0000
  S   S366      1.0  0.56278  0.07244  0.94697  1.0000
  Fe  Fe186     1.0  0.59299  0.06549  0.97464  1.0000
  S   S367      1.0  0.59264  0.06064  0.04087  1.0000
  S   S368      1.0  0.58791  0.07161  0.87084  1.0000
  S   S369      1.0  0.60391  0.06556  0.91656  1.0000
  Fe  Fe187     1.0  0.64990  0.16608  0.78646  1.0000
  S   S370      1.0  0.64185  0.17094  0.74201  1.0000
  S   S371      1.0  0.65430  0.17779  0.81523  1.0000
  Fe  Fe188     1.0  0.64414  0.14457  0.78773  1.0000
  S   S372      1.0  0.63604  0.14811  0.74301  1.0000
  S   S373      1.0  0.64381  0.12858  0.81822  1.0000
  Fe  Fe189     1.0  0.64846  0.16130  0.70850  1.0000
  S   S374      1.0  0.65227  0.16709  0.63956  1.0000
  Fe  Fe190     1.0  0.63007  0.15735  0.77958  1.0000
  S   S375      1.0  0.61429  0.15786  0.79442  1.0000
  S   S376      1.0  0.65748  0.15724  0.75015  1.0000
  S   S377      1.0  0.63730  0.15305  0.82668  1.0000
  Fe  Fe191     1.0  0.57113  0.14967  0.72023  1.0000
  S   S378      1.0  0.56936  0.13536  0.76778  1.0000
  S   S379      1.0  0.57635  0.16528  0.72254  1.0000
  Fe  Fe192     1.0  0.56988  0.13906  0.65582  1.0000
  S   S380      1.0  0.56869  0.12416  0.69893  1.0000
  S   S381      1.0  0.57365  0.14259  0.58695  1.0000
  Fe  Fe193     1.0  0.55801  0.12851  0.74473  1.0000
  S   S382      1.0  0.54526  0.11691  0.79530  1.0000
  Fe  Fe194     1.0  0.57997  0.13213  0.71850  1.0000
  S   S383      1.0  0.59294  0.12724  0.73115  1.0000
  S   S384      1.0  0.55862  0.14328  0.70072  1.0000
  S   S385      1.0  0.58225  0.14656  0.67177  1.0000
  Fe  Fe195     1.0  0.51622  0.06177  0.84734  1.0000
  S   S386      1.0  0.52130  0.06005  0.90160  1.0000
  S   S387      1.0  0.52288  0.07576  0.79249  1.0000
  H   H985      1.0  0.51060  0.07885  0.35191  1.0000
  H   H986      1.0  0.66630  0.18704  0.01395  1.0000
  H   H987      1.0  0.52566  0.10786  0.38082  1.0000
  H   H988      1.0  0.52392  0.04308  0.03045  1.0000
  N   N79       1.0  0.55737  0.15781  0.55789  1.0000
  Fe  Fe196     1.0  0.52374  0.04579  0.89390  1.0000
  S   S388      1.0  0.53727  0.04100  0.90021  1.0000
  H   H989      1.0  0.57344  0.17905  0.18415  1.0000
  S   S389      1.0  0.51992  0.04799  0.83654  1.0000
  C   C975      1.0  0.55365  0.04351  0.36009  1.0000
  H   H990      1.0  0.55152  0.06787  0.79297  1.0000
  C   C976      1.0  0.67864  0.19105  0.03370  1.0000
  C   C977      1.0  0.58865  0.18451  0.77119  1.0000
  H   H991      1.0  0.62793  0.07470  0.12780  1.0000
  C   C978      1.0  0.53906  0.10557  0.79359  1.0000
  C   C979      1.0  0.53990  0.10365  0.75694  1.0000
  C   C980      1.0  0.53483  0.09453  0.75713  1.0000
  C   C981      1.0  0.52904  0.08716  0.79388  1.0000
  C   C982      1.0  0.52835  0.08902  0.83054  1.0000
  C   C983      1.0  0.53324  0.09821  0.83031  1.0000
  H   H992      1.0  0.54431  0.10924  0.72845  1.0000
  H   H993      1.0  0.53538  0.09319  0.72859  1.0000
  H   H994      1.0  0.52388  0.08347  0.85905  1.0000
  H   H995      1.0  0.53251  0.09962  0.85883  1.0000
  C   C984      1.0  0.60794  0.14903  0.77958  1.0000
  C   C985      1.0  0.61112  0.14051  0.77845  1.0000
  C   C986      1.0  0.60660  0.13389  0.76294  1.0000
  C   C987      1.0  0.59869  0.13565  0.74965  1.0000
  C   C988      1.0  0.59529  0.14403  0.75209  1.0000
  C   C989      1.0  0.59987  0.15068  0.76728  1.0000
  H   H996      1.0  0.61693  0.13893  0.79043  1.0000
  H   H997      1.0  0.60916  0.12738  0.76154  1.0000
  H   H998      1.0  0.58925  0.14554  0.74162  1.0000
  H   H999      1.0  0.59730  0.15722  0.76852  1.0000
  H   H1000     1.0  0.57502  0.04957  0.85463  1.0000
  C   C990      1.0  0.61753  0.10345  0.84117  1.0000
  C   C991      1.0  0.61845  0.11298  0.81606  1.0000
  C   C992      1.0  0.62604  0.12085  0.81143  1.0000
  C   C993      1.0  0.63304  0.11925  0.83076  1.0000
  C   C994      1.0  0.63196  0.10976  0.85706  1.0000
  C   C995      1.0  0.62415  0.10190  0.86275  1.0000
  H   H1001     1.0  0.61353  0.11417  0.79853  1.0000
  H   H1002     1.0  0.62688  0.12801  0.79055  1.0000
  H   H1003     1.0  0.63736  0.10842  0.87216  1.0000
  H   H1004     1.0  0.62362  0.09456  0.88176  1.0000
  C   C996      1.0  0.55562  0.06343  0.93556  1.0000
  C   C997      1.0  0.56011  0.05870  0.90942  1.0000
  C   C998      1.0  0.55440  0.05181  0.89886  1.0000
  C   C999      1.0  0.54421  0.04949  0.91483  1.0000
  C   C1000     1.0  0.53968  0.05401  0.94191  1.0000
  C   C1001     1.0  0.54539  0.06106  0.95202  1.0000
  H   H1005     1.0  0.56799  0.06047  0.89663  1.0000
  H   H1006     1.0  0.55787  0.04837  0.87775  1.0000
  H   H1007     1.0  0.53179  0.05213  0.95492  1.0000
  H   H1008     1.0  0.54189  0.06469  0.97238  1.0000
  C   C1002     1.0  0.60566  0.07858  0.11058  1.0000
  C   C1003     1.0  0.59783  0.07027  0.13111  1.0000
  C   C1004     1.0  0.59393  0.06492  0.10920  1.0000
  C   C1005     1.0  0.59755  0.06798  0.06648  1.0000
  C   C1006     1.0  0.60513  0.07650  0.04579  1.0000
  C   C1007     1.0  0.60924  0.08169  0.06781  1.0000
  H   H1009     1.0  0.59501  0.06774  0.16392  1.0000
  H   H1010     1.0  0.58809  0.05831  0.12548  1.0000
  H   H1011     1.0  0.60802  0.07893  0.01291  1.0000
  H   H1012     1.0  0.61530  0.08810  0.05157  1.0000
  C   C1008     1.0  0.56715  0.13860  0.55666  1.0000
  C   C1009     1.0  0.57200  0.14122  0.51467  1.0000
  C   C1010     1.0  0.56696  0.13924  0.48831  1.0000
  C   C1011     1.0  0.55694  0.13472  0.50349  1.0000
  C   C1012     1.0  0.55211  0.13185  0.54568  1.0000
  C   C1013     1.0  0.55721  0.13369  0.57226  1.0000
  H   H1013     1.0  0.57967  0.14508  0.50225  1.0000
  H   H1014     1.0  0.57070  0.14169  0.45596  1.0000
  H   H1015     1.0  0.54435  0.12835  0.55776  1.0000
  H   H1016     1.0  0.55337  0.13159  0.60454  1.0000
  C   C1014     1.0  0.64496  0.14872  0.56057  1.0000
  C   C1015     1.0  0.64610  0.15892  0.54752  1.0000
  C   C1016     1.0  0.64805  0.16444  0.57254  1.0000
  C   C1017     1.0  0.64871  0.15981  0.61104  1.0000
  C   C1018     1.0  0.64716  0.14957  0.62477  1.0000
  C   C1019     1.0  0.64536  0.14407  0.59954  1.0000
  H   H1017     1.0  0.64584  0.16260  0.51757  1.0000
  H   H1018     1.0  0.64926  0.17236  0.56162  1.0000
  H   H1019     1.0  0.64778  0.14595  0.65408  1.0000
  H   H1020     1.0  0.64458  0.13620  0.60967  1.0000
  C   C1020     1.0  0.62981  0.11760  0.35982  1.0000
  C   C1021     1.0  0.62790  0.10743  0.36535  1.0000
  C   C1022     1.0  0.62258  0.10331  0.34362  1.0000
  C   C1023     1.0  0.61911  0.10931  0.31581  1.0000
  C   C1024     1.0  0.62101  0.11948  0.31039  1.0000
  C   C1025     1.0  0.62633  0.12360  0.33207  1.0000
  H   H1021     1.0  0.63060  0.10271  0.38647  1.0000
  H   H1022     1.0  0.62125  0.09550  0.34817  1.0000
  H   H1023     1.0  0.61839  0.12422  0.28902  1.0000
  H   H1024     1.0  0.62780  0.13142  0.32715  1.0000
  C   C1026     1.0  0.60715  0.14631  0.41119  1.0000
  C   C1027     1.0  0.59708  0.14533  0.41909  1.0000
  C   C1028     1.0  0.59161  0.13810  0.40914  1.0000
  C   C1029     1.0  0.59622  0.13209  0.38997  1.0000
  C   C1030     1.0  0.60618  0.13278  0.38380  1.0000
  C   C1031     1.0  0.61163  0.13982  0.39464  1.0000
  H   H1025     1.0  0.59350  0.15010  0.43314  1.0000
  H   H1026     1.0  0.58380  0.13699  0.41735  1.0000
  H   H1027     1.0  0.60969  0.12795  0.37003  1.0000
  H   H1028     1.0  0.61934  0.14035  0.38914  1.0000
  H   H1029     1.0  0.60248  0.16681  0.36828  1.0000
  C   C1032     1.0  0.61576  0.15025  0.29522  1.0000
  C   C1033     1.0  0.55916  0.15989  0.47709  1.0000
  H   H1030     1.0  0.67078  0.19601  0.39101  1.0000
  C   C1034     1.0  0.51575  0.06151  0.07982  1.0000
  C   C1035     1.0  0.52047  0.06282  0.03871  1.0000
  C   C1036     1.0  0.51518  0.06018  0.01418  1.0000
  C   C1037     1.0  0.52201  0.10141  0.37590  1.0000
  H   H1031     1.0  0.67673  0.19992  0.75023  1.0000
  H   H1032     1.0  0.69485  0.19155  0.92905  1.0000
  H   H1033     1.0  0.52831  0.06581  0.02586  1.0000
  H   H1034     1.0  0.51898  0.06112  0.98282  1.0000
  C   C1038     1.0  0.61463  0.05673  0.21592  1.0000
  S   S390      1.0  0.50866  0.06441  0.22751  1.0000
  C   C1039     1.0  0.53221  0.09215  0.27364  1.0000
  C   C1040     1.0  0.53415  0.10240  0.26635  1.0000
  C   C1041     1.0  0.53991  0.10694  0.28558  1.0000
  C   C1042     1.0  0.54373  0.10126  0.31290  1.0000
  C   C1043     1.0  0.54203  0.09106  0.31923  1.0000
  C   C1044     1.0  0.53634  0.08654  0.29976  1.0000
  H   H1035     1.0  0.53104  0.10685  0.24613  1.0000
  H   H1036     1.0  0.54113  0.11478  0.28022  1.0000
  H   H1037     1.0  0.54498  0.08656  0.34003  1.0000
  H   H1038     1.0  0.53490  0.07866  0.30598  1.0000
  C   C1045     1.0  0.55263  0.05907  0.24978  1.0000
  C   C1046     1.0  0.54973  0.06762  0.25310  1.0000
  C   C1047     1.0  0.55545  0.07449  0.26375  1.0000
  C   C1048     1.0  0.56400  0.07278  0.27168  1.0000
  C   C1049     1.0  0.56678  0.06411  0.26919  1.0000
  C   C1050     1.0  0.56119  0.05733  0.25763  1.0000
  H   H1039     1.0  0.54311  0.06903  0.24730  1.0000
  H   H1040     1.0  0.55332  0.08120  0.26540  1.0000
  H   H1041     1.0  0.57306  0.06247  0.27721  1.0000
  H   H1042     1.0  0.56344  0.05070  0.25529  1.0000
  C   C1051     1.0  0.67765  0.19469  0.85456  1.0000
  C   C1052     1.0  0.68008  0.18801  0.83377  1.0000
  C   C1053     1.0  0.67302  0.18256  0.82233  1.0000
  C   C1054     1.0  0.66341  0.18370  0.83169  1.0000
  C   C1055     1.0  0.66094  0.19018  0.85343  1.0000
  C   C1056     1.0  0.66798  0.19565  0.86476  1.0000
  H   H1043     1.0  0.68751  0.18714  0.82584  1.0000
  H   H1044     1.0  0.67507  0.17758  0.80579  1.0000
  H   H1045     1.0  0.65349  0.19100  0.86141  1.0000
  H   H1046     1.0  0.52779  0.09144  0.41405  1.0000
  C   C1057     1.0  0.58252  0.16871  0.82395  1.0000
  C   C1058     1.0  0.57938  0.16439  0.79716  1.0000
  C   C1059     1.0  0.58067  0.17015  0.75732  1.0000
  C   C1060     1.0  0.58533  0.18023  0.74465  1.0000
  H   H1047     1.0  0.58121  0.16421  0.85494  1.0000
  H   H1048     1.0  0.57570  0.15668  0.80769  1.0000
  H   H1049     1.0  0.58630  0.18482  0.71413  1.0000
  C   C1061     1.0  0.59155  0.18563  0.26983  1.0000
  C   C1062     1.0  0.59417  0.18330  0.23378  1.0000
  C   C1063     1.0  0.58917  0.17441  0.23179  1.0000
  C   C1064     1.0  0.58158  0.16774  0.26584  1.0000
  C   C1065     1.0  0.57915  0.16997  0.30212  1.0000
  C   C1066     1.0  0.58413  0.17884  0.30409  1.0000
  H   H1050     1.0  0.59991  0.18843  0.20725  1.0000
  H   H1051     1.0  0.59111  0.17275  0.20359  1.0000
  H   H1052     1.0  0.57327  0.16495  0.32844  1.0000
  H   H1053     1.0  0.58206  0.18056  0.33211  1.0000
  H   H1054     1.0  0.51294  0.01963  0.36679  1.0000
  C   C1067     1.0  0.67265  0.19392  0.36383  1.0000
  C   C1068     1.0  0.66722  0.18506  0.36329  1.0000
  C   C1069     1.0  0.66964  0.18224  0.32835  1.0000
  C   C1070     1.0  0.67735  0.18850  0.29381  1.0000
  H   H1055     1.0  0.57007  0.00420  0.56874  1.0000
  H   H1056     1.0  0.66607  0.14983  0.48510  1.0000
  H   H1057     1.0  0.66121  0.18039  0.38992  1.0000
  H   H1058     1.0  0.67930  0.18639  0.26666  1.0000
  C   C1071     1.0  0.56066  0.03538  0.41079  1.0000
  C   C1072     1.0  0.55618  0.02883  0.94473  1.0000
  C   C1073     1.0  0.56623  0.01770  0.93575  1.0000
  C   C1074     1.0  0.66914  0.15722  0.48419  1.0000
  H   H1059     1.0  0.62219  0.14726  0.29005  1.0000
  H   H1060     1.0  0.52777  0.02468  0.87908  1.0000
  C   C1075     1.0  0.61434  0.05879  0.14864  1.0000
  C   C1076     1.0  0.57276  0.02236  0.95119  1.0000
  H   H1061     1.0  0.60724  0.13959  0.27808  1.0000
  C   C1077     1.0  0.59469  0.11336  0.46770  1.0000
  H   H1062     1.0  0.67813  0.16846  0.38319  1.0000
  H   H1063     1.0  0.61174  0.10908  0.45302  1.0000
  C   C1078     1.0  0.58289  0.04361  0.30581  1.0000
  C   C1079     1.0  0.57587  0.04273  0.84942  1.0000
  C   C1080     1.0  0.56260  0.03371  0.95999  1.0000
  N   N80       1.0  0.60743  0.16168  0.31856  1.0000
  C   C1081     1.0  0.59918  0.15748  0.31213  1.0000
  C   C1082     1.0  0.59904  0.14960  0.29678  1.0000
  H   H1064     1.0  0.57115  0.06246  0.16207  1.0000
  C   C1083     1.0  0.60720  0.16972  0.33587  1.0000
  H   H1065     1.0  0.59260  0.16010  0.31957  1.0000
  H   H1066     1.0  0.59242  0.14624  0.29223  1.0000
  H   H1067     1.0  0.60429  0.17549  0.31871  1.0000
  H   H1068     1.0  0.61461  0.17326  0.33498  1.0000
  N   N81       1.0  0.52368  0.02626  0.78977  1.0000
  C   C1084     1.0  0.52175  0.02438  0.83069  1.0000
  C   C1085     1.0  0.53314  0.02950  0.76397  1.0000
  C   C1086     1.0  0.52936  0.02599  0.84671  1.0000
  C   C1087     1.0  0.54095  0.03110  0.77904  1.0000
  C   C1088     1.0  0.53900  0.02948  0.82060  1.0000
  C   C1089     1.0  0.57991  0.18767  0.10343  1.0000
  H   H1069     1.0  0.51429  0.02167  0.85115  1.0000
  H   H1070     1.0  0.53470  0.03074  0.73165  1.0000
  C   C1090     1.0  0.51725  0.03727  0.03681  1.0000
  H   H1071     1.0  0.54847  0.03353  0.75879  1.0000
  H   H1072     1.0  0.54496  0.03092  0.83255  1.0000
  C   C1091     1.0  0.62929  0.17499  0.85852  1.0000
  H   H1073     1.0  0.51087  0.02084  0.31858  1.0000
  H   H1074     1.0  0.61631  0.11578  0.48213  1.0000
  N   N82       1.0  0.61670  0.15843  0.66691  1.0000
  C   C1092     1.0  0.60790  0.15922  0.66134  1.0000
  C   C1093     1.0  0.62132  0.16480  0.68190  1.0000
  C   C1094     1.0  0.60328  0.16627  0.67258  1.0000
  C   C1095     1.0  0.61688  0.17190  0.69364  1.0000
  C   C1096     1.0  0.60777  0.17258  0.68915  1.0000
  C   C1097     1.0  0.62133  0.15089  0.65549  1.0000
  H   H1075     1.0  0.60428  0.15421  0.64921  1.0000
  H   H1076     1.0  0.62839  0.16431  0.68565  1.0000
  H   H1077     1.0  0.59613  0.16666  0.66949  1.0000
  H   H1078     1.0  0.62038  0.17666  0.70712  1.0000
  H   H1079     1.0  0.60411  0.17787  0.69908  1.0000
  H   H1080     1.0  0.61571  0.14398  0.66278  1.0000
  H   H1081     1.0  0.62547  0.15360  0.62238  1.0000
  H   H1082     1.0  0.62646  0.14899  0.67257  1.0000
  N   N83       1.0  0.58611  0.12806  0.85326  1.0000
  C   C1098     1.0  0.59373  0.12650  0.86757  1.0000
  C   C1099     1.0  0.58170  0.12130  0.83930  1.0000
  C   C1100     1.0  0.59719  0.11804  0.86775  1.0000
  C   C1101     1.0  0.58505  0.11282  0.83864  1.0000
  C   C1102     1.0  0.59279  0.11117  0.85322  1.0000
  C   C1103     1.0  0.58228  0.13675  0.85486  1.0000
  H   H1083     1.0  0.59726  0.13187  0.87844  1.0000
  H   H1084     1.0  0.57568  0.12251  0.82790  1.0000
  H   H1085     1.0  0.60330  0.11685  0.87868  1.0000
  H   H1086     1.0  0.58175  0.10762  0.82636  1.0000
  H   H1087     1.0  0.59541  0.10459  0.85298  1.0000
  H   H1088     1.0  0.57621  0.13497  0.88380  1.0000
  H   H1089     1.0  0.58812  0.14302  0.85237  1.0000
  H   H1090     1.0  0.57949  0.13934  0.82902  1.0000
  N   N84       1.0  0.54916  0.07989  0.81386  1.0000
  C   C1104     1.0  0.54738  0.07770  0.85483  1.0000
  C   C1105     1.0  0.55426  0.08910  0.78791  1.0000
  C   C1106     1.0  0.55047  0.08489  0.87102  1.0000
  C   C1107     1.0  0.55742  0.09649  0.80303  1.0000
  C   C1108     1.0  0.55542  0.09437  0.84490  1.0000
  C   C1109     1.0  0.54593  0.07219  0.79769  1.0000
  H   H1091     1.0  0.54345  0.07039  0.87522  1.0000
  H   H1092     1.0  0.55561  0.09088  0.75543  1.0000
  H   H1093     1.0  0.54896  0.08312  0.90364  1.0000
  H   H1094     1.0  0.56103  0.10391  0.78255  1.0000
  H   H1095     1.0  0.55754  0.10011  0.85711  1.0000
  H   H1096     1.0  0.53885  0.06714  0.81898  1.0000
  H   H1097     1.0  0.54455  0.07538  0.76857  1.0000
  C   C1110     1.0  0.60738  0.14594  0.28851  1.0000
  N   N85       1.0  0.56578  0.06940  0.11556  1.0000
  C   C1111     1.0  0.57109  0.07049  0.07646  1.0000
  C   C1112     1.0  0.55577  0.06735  0.12738  1.0000
  C   C1113     1.0  0.56639  0.06982  0.04778  1.0000
  C   C1114     1.0  0.55083  0.06672  0.09939  1.0000
  C   C1115     1.0  0.55620  0.06801  0.05928  1.0000
  C   C1116     1.0  0.57076  0.06994  0.14557  1.0000
  H   H1098     1.0  0.57901  0.07190  0.06717  1.0000
  H   H1099     1.0  0.55156  0.06622  0.15862  1.0000
  H   H1100     1.0  0.57062  0.07069  0.01680  1.0000
  H   H1101     1.0  0.54289  0.06527  0.10873  1.0000
  H   H1102     1.0  0.55248  0.06759  0.03714  1.0000
  H   H1103     1.0  0.57830  0.07477  0.13082  1.0000
  C   C1117     1.0  0.61564  0.15813  0.31056  1.0000
  C   C1118     1.0  0.57427  0.05270  0.39472  1.0000
  H   H1104     1.0  0.59213  0.19228  0.76086  1.0000
  H   H1105     1.0  0.55661  0.04086  0.33426  1.0000
  C   C1119     1.0  0.55016  0.15533  0.50753  1.0000
  C   C1120     1.0  0.51548  0.02516  0.77370  1.0000
  S   S391      1.0  0.59093  0.18382  0.84696  1.0000
  C   C1121     1.0  0.68008  0.18889  0.96848  1.0000
  C   C1122     1.0  0.50690  0.03538  0.14628  1.0000
  H   H1106     1.0  0.70236  0.19553  0.97876  1.0000
  H   H1107     1.0  0.60661  0.19361  0.07237  1.0000
  H   H1108     1.0  0.58454  0.05056  0.28240  1.0000
  H   H1109     1.0  0.58011  0.19298  0.07434  1.0000
  C   C1123     1.0  0.51353  0.08518  0.35945  1.0000
  C   C1124     1.0  0.60676  0.04844  0.23118  1.0000
  H   H1110     1.0  0.61660  0.12214  0.43143  1.0000
  H   H1111     1.0  0.50949  0.03696  0.17000  1.0000
  C   C1125     1.0  0.55635  0.15646  0.60073  1.0000
  H   H1112     1.0  0.60393  0.04440  0.26352  1.0000
  Fe  Fe197     1.0  0.50447  0.03998  0.87667  1.0000
  H   H1113     1.0  0.57159  0.03699  0.28616  1.0000
  C   C1126     1.0  0.66913  0.15891  0.52064  1.0000
  H   H1114     1.0  0.53395  0.03508  0.31306  1.0000
  H   H1115     1.0  0.67213  0.16990  0.54863  1.0000
  H   H1116     1.0  0.51679  0.03141  0.32707  1.0000
  S   S392      1.0  0.55153  0.01336  0.73433  1.0000
  H   H1117     1.0  0.51402  0.03990  0.01239  1.0000
  H   H1118     1.0  0.50429  0.08854  0.30721  1.0000
  H   H1119     1.0  0.59838  0.16828  0.89133  1.0000
  C   C1127     1.0  0.58337  0.03866  0.85886  1.0000
  H   H1120     1.0  0.62069  0.11406  0.70334  1.0000
  C   C1128     1.0  0.57720  0.19127  0.20454  1.0000
  C   C1129     1.0  0.62678  0.07026  0.15978  1.0000
  C   C1130     1.0  0.67246  0.16291  0.41045  1.0000
  H   H1121     1.0  0.55992  0.16033  0.44583  1.0000
  N   N86       1.0  0.58012  0.19244  0.13438  1.0000
  H   H1122     1.0  0.57621  0.03439  0.97325  1.0000
  H   H1123     1.0  0.54241  0.15059  0.57162  1.0000
  H   H1124     1.0  0.54994  0.03106  0.28988  1.0000
  C   C1131     1.0  0.56725  0.16349  0.48736  1.0000
  H   H1125     1.0  0.57902  0.01824  0.82925  1.0000
  C   C1132     1.0  0.51610  0.02338  0.33338  1.0000
  H   H1126     1.0  0.67888  0.18022  0.41877  1.0000
  H   H1127     1.0  0.55563  0.02847  0.41608  1.0000
  S   S393      1.0  0.60926  0.19231  0.89426  1.0000
  H   H1128     1.0  0.63269  0.12985  0.68779  1.0000
  C   C1133     1.0  0.57808  0.02504  0.83477  1.0000
  H   H1129     1.0  0.54394  0.15216  0.49996  1.0000
  C   C1134     1.0  0.62684  0.11416  0.71492  1.0000
  C   C1135     1.0  0.63357  0.12302  0.70623  1.0000
  N   N87       1.0  0.67279  0.16479  0.44809  1.0000
  N   N88       1.0  0.51241  0.09429  0.34114  1.0000
  N   N89       1.0  0.55816  0.02108  0.93202  1.0000
  H   H1130     1.0  0.50994  0.01816  0.79265  1.0000
  C   C1136     1.0  0.69444  0.19356  0.98683  1.0000
  H   H1131     1.0  0.62675  0.19414  0.78692  1.0000
  C   C1137     1.0  0.57047  0.02905  0.82598  1.0000
  C   C1138     1.0  0.62796  0.10545  0.73956  1.0000
  H   H1132     1.0  0.62256  0.09862  0.74708  1.0000
  H   H1133     1.0  0.62558  0.07532  0.17792  1.0000
  H   H1134     1.0  0.54494  0.01113  0.94045  1.0000
  H   H1135     1.0  0.56356  0.15856  0.60513  1.0000
  S   S394      1.0  0.56167  0.02314  0.80797  1.0000
  C   C1139     1.0  0.57312  0.02665  0.33811  1.0000
  C   C1140     1.0  0.58450  0.02985  0.85088  1.0000
  H   H1136     1.0  0.57943  0.02002  0.95211  1.0000
  S   S395      1.0  0.59708  0.19692  0.27377  1.0000
  N   N90       1.0  0.63551  0.10558  0.75543  1.0000
  C   C1141     1.0  0.64133  0.12305  0.72202  1.0000
  H   H1137     1.0  0.64647  0.12991  0.71647  1.0000
  H   H1138     1.0  0.64117  0.09287  0.76165  1.0000
  H   H1139     1.0  0.55503  0.01210  0.89643  1.0000
  C   C1142     1.0  0.64222  0.11420  0.74654  1.0000
  H   H1140     1.0  0.57980  0.05942  0.38712  1.0000
  C   C1143     1.0  0.62491  0.18701  0.81009  1.0000
  C   C1144     1.0  0.55141  0.01625  0.91541  1.0000
  H   H1141     1.0  0.56746  0.05911  0.35166  1.0000
  C   C1145     1.0  0.63660  0.09636  0.78091  1.0000
  H   H1142     1.0  0.64810  0.11436  0.75972  1.0000
  H   H1143     1.0  0.64002  0.09769  0.80373  1.0000
  C   C1146     1.0  0.60148  0.12437  0.49707  1.0000
  C   C1147     1.0  0.58821  0.04226  0.33304  1.0000
  N   N91       1.0  0.56059  0.04385  0.38286  1.0000
  H   H1144     1.0  0.62933  0.09113  0.79849  1.0000
  H   H1145     1.0  0.55234  0.05090  0.34792  1.0000
  H   H1146     1.0  0.60313  0.04838  0.14189  1.0000
  H   H1147     1.0  0.59561  0.10864  0.44889  1.0000
  H   H1148     1.0  0.56787  0.01162  0.92532  1.0000
  H   H1149     1.0  0.57716  0.12314  0.51497  1.0000
  H   H1150     1.0  0.57931  0.11180  0.47430  1.0000
  C   C1148     1.0  0.58438  0.20228  0.12271  1.0000
  S   S396      1.0  0.60011  0.19366  0.00370  1.0000
  H   H1151     1.0  0.59032  0.02665  0.85769  1.0000
  S   S397      1.0  0.56366  0.01729  0.33884  1.0000
  H   H1152     1.0  0.56754  0.02867  0.45367  1.0000
  C   C1149     1.0  0.58427  0.12160  0.50427  1.0000
  C   C1150     1.0  0.57660  0.18692  0.17473  1.0000
  H   H1153     1.0  0.68792  0.19716  0.07804  1.0000
  C   C1151     1.0  0.68269  0.19739  0.29419  1.0000
  H   H1154     1.0  0.52122  0.04020  0.10169  1.0000
  C   C1152     1.0  0.58544  0.11514  0.48190  1.0000
  C   C1153     1.0  0.61222  0.11610  0.45999  1.0000
  H   H1155     1.0  0.57435  0.16682  0.46408  1.0000
  H   H1156     1.0  0.57315  0.18169  0.11374  1.0000
  H   H1157     1.0  0.60286  0.15791  0.88124  1.0000
  N   N92       1.0  0.60252  0.11783  0.47597  1.0000
  C   C1154     1.0  0.59362  0.11407  0.26028  1.0000
  H   H1158     1.0  0.57760  0.10457  0.37807  1.0000
  H   H1159     1.0  0.55318  0.14858  0.61922  1.0000
  H   H1160     1.0  0.60777  0.12823  0.50218  1.0000
  C   C1155     1.0  0.59234  0.12631  0.51173  1.0000
  S   S398      1.0  0.54332  0.00503  0.44299  1.0000
  H   H1161     1.0  0.61020  0.18311  0.80906  1.0000
  N   N93       1.0  0.57906  0.10525  0.31686  1.0000
  H   H1162     1.0  0.59154  0.13158  0.52812  1.0000
  C   C1156     1.0  0.50506  0.05620  0.03045  1.0000
  H   H1163     1.0  0.54645  0.03846  0.37988  1.0000
  H   H1164     1.0  0.56634  0.10076  0.36921  1.0000
  N   N94       1.0  0.61312  0.17191  0.85314  1.0000
  C   C1157     1.0  0.67602  0.17617  0.48336  1.0000
  C   C1158     1.0  0.60308  0.16580  0.86813  1.0000
  Fe  Fe198     1.0  0.60266  0.20006  0.93650  1.0000
  H   H1165     1.0  0.56636  0.10018  0.30222  1.0000
  C   C1159     1.0  0.57397  0.10429  0.29069  1.0000
  H   H1166     1.0  0.67403  0.19109  0.06275  1.0000
  C   C1160     1.0  0.57428  0.04415  0.42372  1.0000
  H   H1167     1.0  0.63906  0.18887  0.81871  1.0000
  H   H1168     1.0  0.60001  0.16640  0.84272  1.0000
  C   C1161     1.0  0.51890  0.08397  0.38657  1.0000
  H   H1169     1.0  0.59634  0.03908  0.21627  1.0000
  C   C1162     1.0  0.57840  0.02521  0.36558  1.0000
  C   C1163     1.0  0.63180  0.18408  0.82810  1.0000
  H   H1170     1.0  0.57475  0.09284  0.36976  1.0000
  C   C1164     1.0  0.60255  0.04541  0.20457  1.0000
  C   C1165     1.0  0.57421  0.10061  0.36075  1.0000
  H   H1171     1.0  0.56122  0.04012  0.96843  1.0000
  C   C1166     1.0  0.57856  0.10831  0.24862  1.0000
  C   C1167     1.0  0.58844  0.11326  0.23338  1.0000
  H   H1172     1.0  0.51939  0.03037  0.03496  1.0000
  H   H1173     1.0  0.61794  0.16195  0.89466  1.0000
  Fe  Fe199     1.0  0.59911  0.19712  0.85931  1.0000
  H   H1174     1.0  0.57449  0.10732  0.22819  1.0000
  H   H1175     1.0  0.59216  0.11621  0.20081  1.0000
  C   C1168     1.0  0.61985  0.16898  0.87089  1.0000
  Fe  Fe200     1.0  0.55676  0.00971  0.78898  1.0000
  H   H1176     1.0  0.57983  0.04422  0.43871  1.0000
  N   N95       1.0  0.61830  0.06181  0.17511  1.0000
  C   C1169     1.0  0.61555  0.18077  0.82295  1.0000
  C   C1170     1.0  0.53410  0.02791  0.30972  1.0000
  C   C1171     1.0  0.58880  0.10994  0.30218  1.0000
  C   C1172     1.0  0.50557  0.05783  0.09593  1.0000
  H   H1177     1.0  0.63465  0.17263  0.87237  1.0000
  H   H1178     1.0  0.67677  0.18726  0.94656  1.0000
  H   H1179     1.0  0.51588  0.10960  0.33379  1.0000
  C   C1173     1.0  0.57095  0.03046  0.96302  1.0000
  H   H1180     1.0  0.51899  0.00670  0.32100  1.0000
  C   C1174     1.0  0.54937  0.15439  0.54800  1.0000
  H   H1181     1.0  0.60140  0.11758  0.24889  1.0000
  H   H1182     1.0  0.59297  0.11039  0.32281  1.0000
  N   N96       1.0  0.52556  0.02116  0.31790  1.0000
  H   H1183     1.0  0.56373  0.04122  0.82596  1.0000
  C   C1175     1.0  0.68044  0.20010  0.32935  1.0000
  C   C1176     1.0  0.67422  0.18877  0.00621  1.0000
  H   H1184     1.0  0.51194  0.03139  0.77392  1.0000
  H   H1185     1.0  0.59015  0.03176  0.38362  1.0000
  H   H1186     1.0  0.67857  0.18365  0.48269  1.0000
  C   C1177     1.0  0.58601  0.03296  0.36265  1.0000
  C   C1178     1.0  0.67615  0.17419  0.44732  1.0000
  C   C1179     1.0  0.69324  0.19583  0.05268  1.0000
  H   H1187     1.0  0.57264  0.16481  0.53612  1.0000
  C   C1180     1.0  0.54345  0.01649  0.29221  1.0000
  C   C1181     1.0  0.52321  0.09216  0.39461  1.0000
  H   H1188     1.0  0.55044  0.01460  0.28304  1.0000
  H   H1189     1.0  0.66617  0.15289  0.54923  1.0000
  C   C1182     1.0  0.57550  0.03585  0.30800  1.0000
  H   H1190     1.0  0.67373  0.15556  0.41066  1.0000
  H   H1191     1.0  0.61716  0.06286  0.11630  1.0000
  C   C1183     1.0  0.56623  0.16236  0.52819  1.0000
  H   H1192     1.0  0.57674  0.01810  0.38856  1.0000
  C   C1184     1.0  0.67248  0.16846  0.52024  1.0000
  S   S399      1.0  0.50881  0.03685  0.93374  1.0000
  C   C1185     1.0  0.54317  0.02569  0.29661  1.0000
  C   C1186     1.0  0.60587  0.20093  0.05867  1.0000
  C   C1187     1.0  0.52577  0.01213  0.31360  1.0000
  C   C1188     1.0  0.69025  0.19128  0.95868  1.0000
  C   C1189     1.0  0.53470  0.00967  0.30048  1.0000
  C   C1190     1.0  0.51654  0.10235  0.34916  1.0000
  S   S400      1.0  0.52290  0.00470  0.77778  1.0000
  H   H1193     1.0  0.54895  0.02183  0.89504  1.0000
  N   N97       1.0  0.68864  0.19350  0.02365  1.0000
  H   H1194     1.0  0.63451  0.19645  0.95780  1.0000
  C   C1191     1.0  0.51350  0.03718  0.10752  1.0000
  C   C1192     1.0  0.58182  0.20122  0.19284  1.0000
  H   H1195     1.0  0.69628  0.18967  0.06582  1.0000
  H   H1196     1.0  0.68869  0.20205  0.26748  1.0000
  H   H1197     1.0  0.51194  0.10065  0.28165  1.0000
  N   N98       1.0  0.51023  0.03556  0.07702  1.0000
  H   H1198     1.0  0.62234  0.19752  0.98091  1.0000
  H   H1199     1.0  0.50183  0.05690  0.12742  1.0000
  S   S401      1.0  0.68702  0.20197  0.86541  1.0000
  H   H1200     1.0  0.65971  0.19806  0.75931  1.0000
  H   H1201     1.0  0.50064  0.09862  0.32250  1.0000
  H   H1202     1.0  0.66595  0.20066  0.88108  1.0000
  H   H1203     1.0  0.58641  0.18453  0.09685  1.0000
  H   H1204     1.0  0.65875  0.19873  0.25895  1.0000
  Fe  Fe201     1.0  0.55427  0.00327  0.38984  1.0000
  H   H1205     1.0  0.71264  0.34909  0.97474  1.0000
  H   H1206     1.0  0.74686  0.34370  0.36888  1.0000
  H   H1207     1.0  0.62703  0.22981  0.99152  1.0000
  C   C1193     1.0  0.63736  0.30025  0.09475  1.0000
  H   H1208     1.0  0.62265  0.31996  0.31377  1.0000
  C   C1194     1.0  0.65198  0.21389  0.85621  1.0000
  H   H1209     1.0  0.66624  0.23146  0.30004  1.0000
  C   C1195     1.0  0.66791  0.38650  0.39061  1.0000
  S   S402      1.0  0.74461  0.38250  0.98319  1.0000
  C   C1196     1.0  0.61202  0.36100  0.47366  1.0000
  Fe  Fe202     1.0  0.57586  0.36412  0.34148  1.0000
  S   S403      1.0  0.58258  0.37457  0.36799  1.0000
  S   S404      1.0  0.56698  0.36732  0.29875  1.0000
  Fe  Fe203     1.0  0.58283  0.34712  0.38578  1.0000
  S   S405      1.0  0.59003  0.35595  0.41715  1.0000
  S   S406      1.0  0.58181  0.33083  0.40189  1.0000
  Fe  Fe204     1.0  0.57682  0.36213  0.42717  1.0000
  S   S407      1.0  0.57118  0.36676  0.48233  1.0000
  Fe  Fe205     1.0  0.59538  0.36780  0.35660  1.0000
  S   S408      1.0  0.61045  0.37714  0.34109  1.0000
  S   S409      1.0  0.56886  0.35213  0.40189  1.0000
  S   S410      1.0  0.58937  0.35843  0.32381  1.0000
  N   N99       1.0  0.73514  0.35090  0.37632  1.0000
  H   H1210     1.0  0.62107  0.21581  0.97048  1.0000
  C   C1197     1.0  0.67738  0.22372  0.77867  1.0000
  H   H1211     1.0  0.73915  0.25861  0.96694  1.0000
  C   C1198     1.0  0.61241  0.25964  0.03448  1.0000
  H   H1212     1.0  0.58023  0.33972  0.24047  1.0000
  H   H1213     1.0  0.53211  0.39476  0.04943  1.0000
  C   C1199     1.0  0.65371  0.38599  0.80453  1.0000
  C   C1200     1.0  0.56728  0.37832  0.85129  1.0000
  Fe  Fe206     1.0  0.58327  0.35395  0.68173  1.0000
  S   S411      1.0  0.57285  0.35297  0.74221  1.0000
  S   S412      1.0  0.58030  0.34520  0.64135  1.0000
  Fe  Fe207     1.0  0.60043  0.36631  0.69330  1.0000
  S   S413      1.0  0.59137  0.36635  0.75396  1.0000
  S   S414      1.0  0.61650  0.37354  0.66704  1.0000
  Fe  Fe208     1.0  0.58546  0.35028  0.76554  1.0000
  S   S415      1.0  0.58487  0.33897  0.82418  1.0000
  Fe  Fe209     1.0  0.57993  0.36917  0.72438  1.0000
  S   S416      1.0  0.57509  0.38321  0.72535  1.0000
  S   S417      1.0  0.59527  0.35021  0.70643  1.0000
  S   S418      1.0  0.58952  0.37019  0.66222  1.0000
  H   H1214     1.0  0.66770  0.24622  0.11590  1.0000
  Fe  Fe210     1.0  0.69059  0.37257  0.31346  1.0000
  S   S419      1.0  0.69480  0.35831  0.33556  1.0000
  S   S420      1.0  0.68308  0.37860  0.36221  1.0000
  Fe  Fe211     1.0  0.69897  0.37394  0.22534  1.0000
  S   S421      1.0  0.70383  0.35998  0.24068  1.0000
  S   S422      1.0  0.70224  0.38196  0.15884  1.0000
  Fe  Fe212     1.0  0.68907  0.35405  0.28878  1.0000
  S   S423      1.0  0.68020  0.33864  0.30101  1.0000
  Fe  Fe213     1.0  0.70917  0.36560  0.28545  1.0000
  S   S424      1.0  0.72408  0.36320  0.28815  1.0000
  S   S425      1.0  0.68379  0.36775  0.27053  1.0000
  S   S426      1.0  0.70543  0.38016  0.26624  1.0000
  Fe  Fe214     1.0  0.62881  0.22149  0.17723  1.0000
  H   H1215     1.0  0.66684  0.22700  0.08147  1.0000
  Fe  Fe215     1.0  0.61404  0.23321  0.20062  1.0000
  S   S427      1.0  0.60212  0.22303  0.19167  1.0000
  S   S428      1.0  0.60960  0.24638  0.21652  1.0000
  C   C1201     1.0  0.57999  0.32158  0.28273  1.0000
  Fe  Fe216     1.0  0.61361  0.22374  0.13502  1.0000
  S   S429      1.0  0.61039  0.22749  0.07580  1.0000
  S   S430      1.0  0.61854  0.22062  0.23757  1.0000
  S   S431      1.0  0.62515  0.23477  0.14140  1.0000
  Fe  Fe217     1.0  0.62667  0.31624  0.16046  1.0000
  S   S432      1.0  0.61776  0.30143  0.20343  1.0000
  S   S433      1.0  0.62737  0.32263  0.09541  1.0000
  Fe  Fe218     1.0  0.63729  0.32024  0.21931  1.0000
  S   S434      1.0  0.62955  0.30549  0.26666  1.0000
  S   S435      1.0  0.64646  0.33384  0.22271  1.0000
  Fe  Fe219     1.0  0.63180  0.29935  0.21422  1.0000
  S   S436      1.0  0.63750  0.28616  0.20492  1.0000
  Fe  Fe220     1.0  0.61617  0.30885  0.25151  1.0000
  S   S437      1.0  0.60177  0.30549  0.30120  1.0000
  S   S438      1.0  0.64091  0.31393  0.16843  1.0000
  S   S439      1.0  0.62371  0.32384  0.20721  1.0000
  H   H1216     1.0  0.60518  0.26504  0.16154  1.0000
  S   S440      1.0  0.61026  0.21142  0.81894  1.0000
  H   H1217     1.0  0.68578  0.23681  0.02678  1.0000
  N   N100      1.0  0.60373  0.26066  0.11148  1.0000
  S   S441      1.0  0.61397  0.21418  0.90271  1.0000
  H   H1218     1.0  0.63838  0.21697  0.27293  1.0000
  Fe  Fe221     1.0  0.60384  0.21801  0.86754  1.0000
  S   S442      1.0  0.60208  0.23381  0.85422  1.0000
  S   S443      1.0  0.70864  0.22802  0.12095  1.0000
  C   C1202     1.0  0.66924  0.21928  0.77060  1.0000
  C   C1203     1.0  0.75002  0.37534  0.29679  1.0000
  H   H1219     1.0  0.72075  0.25420  0.29774  1.0000
  Fe  Fe222     1.0  0.61464  0.29440  0.96189  1.0000
  S   S444      1.0  0.62746  0.28769  0.95308  1.0000
  S   S445      1.0  0.60672  0.29243  0.02727  1.0000
  Fe  Fe223     1.0  0.61727  0.30139  0.87214  1.0000
  S   S446      1.0  0.63052  0.29518  0.85655  1.0000
  S   S447      1.0  0.61292  0.30959  0.81894  1.0000
  Fe  Fe224     1.0  0.62168  0.28177  0.90996  1.0000
  S   S448      1.0  0.62255  0.26586  0.91704  1.0000
  Fe  Fe225     1.0  0.63508  0.30160  0.90113  1.0000
  S   S449      1.0  0.65085  0.30853  0.89270  1.0000
  S   S450      1.0  0.60811  0.28748  0.92284  1.0000
  S   S451      1.0  0.62255  0.30879  0.91246  1.0000
  Fe  Fe226     1.0  0.67676  0.35562  0.94313  1.0000
  S   S452      1.0  0.68625  0.36986  0.89539  1.0000
  S   S453      1.0  0.66292  0.34695  0.93869  1.0000
  Fe  Fe227     1.0  0.68368  0.36111  0.01020  1.0000
  S   S454      1.0  0.69297  0.37582  0.96815  1.0000
  S   S455      1.0  0.68245  0.35489  0.07596  1.0000
  Fe  Fe228     1.0  0.68064  0.37686  0.94230  1.0000
  H   H1220     1.0  0.58288  0.30824  0.84284  1.0000
  Fe  Fe229     1.0  0.69781  0.36737  0.92610  1.0000
  S   S456      1.0  0.71423  0.36981  0.89619  1.0000
  S   S457      1.0  0.67088  0.36291  0.98883  1.0000
  S   S458      1.0  0.68880  0.35243  0.96939  1.0000
  H   H1221     1.0  0.65665  0.33640  0.35333  1.0000
  Fe  Fe230     1.0  0.70307  0.23094  0.18048  1.0000
  H   H1222     1.0  0.63606  0.34560  0.29454  1.0000
  C   C1204     1.0  0.65251  0.33803  0.04594  1.0000
  C   C1205     1.0  0.72005  0.37731  0.95182  1.0000
  H   H1223     1.0  0.74629  0.30463  0.13499  1.0000
  N   N101      1.0  0.72521  0.28716  0.18996  1.0000
  H   H1224     1.0  0.71266  0.37799  0.96286  1.0000
  C   C1206     1.0  0.65412  0.31907  0.90654  1.0000
  C   C1207     1.0  0.66397  0.32268  0.90267  1.0000
  C   C1208     1.0  0.66683  0.33113  0.91294  1.0000
  C   C1209     1.0  0.65984  0.33606  0.92695  1.0000
  C   C1210     1.0  0.64998  0.33234  0.93153  1.0000
  C   C1211     1.0  0.64712  0.32387  0.92151  1.0000
  H   H1225     1.0  0.66943  0.31898  0.89124  1.0000
  H   H1226     1.0  0.67444  0.33392  0.90925  1.0000
  H   H1227     1.0  0.64451  0.33607  0.94262  1.0000
  H   H1228     1.0  0.63951  0.32114  0.92503  1.0000
  H   H1229     1.0  0.62715  0.37185  0.51499  1.0000
  S   S459      1.0  0.70255  0.24651  0.17511  1.0000
  C   C1212     1.0  0.60905  0.25382  0.10721  1.0000
  H   H1230     1.0  0.71967  0.36285  0.10553  1.0000
  H   H1231     1.0  0.68233  0.25491  0.12586  1.0000
  H   H1232     1.0  0.59694  0.39275  0.63291  1.0000
  C   C1213     1.0  0.65497  0.22789  0.87957  1.0000
  C   C1214     1.0  0.64601  0.22973  0.87638  1.0000
  C   C1215     1.0  0.64011  0.22372  0.86264  1.0000
  H   H1233     1.0  0.60761  0.37600  0.57614  1.0000
  S   S460      1.0  0.68857  0.23006  0.85934  1.0000
  H   H1234     1.0  0.64364  0.23579  0.88473  1.0000
  H   H1235     1.0  0.63336  0.22535  0.85916  1.0000
  C   C1216     1.0  0.60676  0.24230  0.87629  1.0000
  C   C1217     1.0  0.60514  0.25182  0.86660  1.0000
  C   C1218     1.0  0.60955  0.25905  0.88026  1.0000
  C   C1219     1.0  0.61566  0.25681  0.90369  1.0000
  C   C1220     1.0  0.61698  0.24720  0.91466  1.0000
  C   C1221     1.0  0.61255  0.24000  0.90115  1.0000
  H   H1236     1.0  0.60061  0.25368  0.84767  1.0000
  H   H1237     1.0  0.60843  0.26641  0.87171  1.0000
  H   H1238     1.0  0.62158  0.24534  0.93325  1.0000
  H   H1239     1.0  0.61378  0.23273  0.90953  1.0000
  C   C1222     1.0  0.62124  0.31446  0.07674  1.0000
  C   C1223     1.0  0.61355  0.30643  0.10301  1.0000
  C   C1224     1.0  0.60897  0.29980  0.08752  1.0000
  C   C1225     1.0  0.61215  0.30112  0.04579  1.0000
  C   C1226     1.0  0.61981  0.30918  0.01958  1.0000
  C   C1227     1.0  0.62427  0.31590  0.03494  1.0000
  H   H1240     1.0  0.61097  0.30543  0.13512  1.0000
  H   H1241     1.0  0.60298  0.29365  0.10794  1.0000
  H   H1242     1.0  0.62237  0.31025  0.98751  1.0000
  H   H1243     1.0  0.63021  0.32210  0.01446  1.0000
  C   C1228     1.0  0.60745  0.21793  0.05676  1.0000
  C   C1229     1.0  0.60418  0.21990  0.02291  1.0000
  C   C1230     1.0  0.60174  0.21241  0.00699  1.0000
  C   C1231     1.0  0.67491  0.24612  0.09780  1.0000
  H   H1244     1.0  0.59873  0.27266  0.08119  1.0000
  C   C1232     1.0  0.68318  0.25110  0.10347  1.0000
  H   H1245     1.0  0.60350  0.22724  0.00896  1.0000
  H   H1246     1.0  0.59916  0.21398  0.98097  1.0000
  H   H1247     1.0  0.60699  0.36362  0.60598  1.0000
  H   H1248     1.0  0.71026  0.39268  0.89905  1.0000
  C   C1233     1.0  0.61757  0.25728  0.21354  1.0000
  C   C1234     1.0  0.61347  0.26459  0.22539  1.0000
  C   C1235     1.0  0.61948  0.27345  0.22293  1.0000
  C   C1236     1.0  0.62968  0.27507  0.20878  1.0000
  C   C1237     1.0  0.63380  0.26777  0.19681  1.0000
  C   C1238     1.0  0.62778  0.25892  0.19901  1.0000
  H   H1249     1.0  0.60559  0.26336  0.23706  1.0000
  H   H1250     1.0  0.61620  0.27895  0.23266  1.0000
  H   H1251     1.0  0.64169  0.26895  0.18594  1.0000
  H   H1252     1.0  0.63104  0.25335  0.18986  1.0000
  C   C1239     1.0  0.69658  0.37453  0.13597  1.0000
  C   C1240     1.0  0.69120  0.36487  0.15855  1.0000
  C   C1241     1.0  0.68680  0.35896  0.13993  1.0000
  C   C1242     1.0  0.68771  0.36267  0.09869  1.0000
  C   C1243     1.0  0.69310  0.37232  0.07610  1.0000
  C   C1244     1.0  0.69757  0.37822  0.09465  1.0000
  H   H1253     1.0  0.69037  0.36195  0.19047  1.0000
  H   H1254     1.0  0.68266  0.35149  0.15769  1.0000
  H   H1255     1.0  0.69385  0.37528  0.04443  1.0000
  H   H1256     1.0  0.70169  0.38570  0.07708  1.0000
  C   C1245     1.0  0.67167  0.33723  0.27496  1.0000
  C   C1246     1.0  0.66643  0.32776  0.28011  1.0000
  C   C1247     1.0  0.65891  0.32652  0.26284  1.0000
  C   C1248     1.0  0.65656  0.33477  0.24071  1.0000
  C   C1249     1.0  0.66204  0.34420  0.23432  1.0000
  C   C1250     1.0  0.66958  0.34543  0.25127  1.0000
  H   H1257     1.0  0.66806  0.32138  0.29828  1.0000
  H   H1258     1.0  0.65475  0.31921  0.26776  1.0000
  H   H1259     1.0  0.66035  0.35062  0.21682  1.0000
  H   H1260     1.0  0.67361  0.35274  0.24668  1.0000
  H   H1261     1.0  0.62773  0.27894  0.12608  1.0000
  C   C1251     1.0  0.60710  0.26669  0.03906  1.0000
  C   C1252     1.0  0.73142  0.37925  0.30892  1.0000
  C   C1253     1.0  0.73329  0.37141  0.29499  1.0000
  C   C1254     1.0  0.66556  0.22343  0.31279  1.0000
  H   H1262     1.0  0.73060  0.25828  0.85506  1.0000
  C   C1255     1.0  0.71827  0.28302  0.23150  1.0000
  H   H1263     1.0  0.72422  0.38072  0.31422  1.0000
  C   C1256     1.0  0.68501  0.24085  0.04825  1.0000
  H   H1264     1.0  0.64228  0.30236  0.98183  1.0000
  H   H1265     1.0  0.62620  0.33216  0.27851  1.0000
  H   H1266     1.0  0.58008  0.31518  0.30771  1.0000
  C   C1257     1.0  0.62481  0.32786  0.31088  1.0000
  Fe  Fe231     1.0  0.67509  0.22966  0.90824  1.0000
  H   H1267     1.0  0.64764  0.31899  0.37219  1.0000
  C   C1258     1.0  0.65000  0.33465  0.34573  1.0000
  H   H1268     1.0  0.65077  0.34975  0.31455  1.0000
  H   H1269     1.0  0.74360  0.29815  0.08054  1.0000
  C   C1259     1.0  0.58186  0.30631  0.81609  1.0000
  C   C1260     1.0  0.59279  0.33089  0.82281  1.0000
  C   C1261     1.0  0.59764  0.32954  0.78635  1.0000
  C   C1262     1.0  0.60381  0.32304  0.78583  1.0000
  C   C1263     1.0  0.60518  0.31775  0.82180  1.0000
  C   C1264     1.0  0.60030  0.31900  0.85851  1.0000
  C   C1265     1.0  0.59407  0.32552  0.85899  1.0000
  H   H1270     1.0  0.59648  0.33331  0.75858  1.0000
  H   H1271     1.0  0.60748  0.32204  0.75738  1.0000
  H   H1272     1.0  0.60126  0.31490  0.88649  1.0000
  H   H1273     1.0  0.59028  0.32643  0.88749  1.0000
  C   C1266     1.0  0.62073  0.37531  0.70648  1.0000
  C   C1267     1.0  0.61545  0.36969  0.74688  1.0000
  C   C1268     1.0  0.61800  0.37195  0.77880  1.0000
  C   C1269     1.0  0.62585  0.37987  0.77037  1.0000
  C   C1270     1.0  0.64309  0.21576  0.85252  1.0000
  C   C1271     1.0  0.66592  0.33511  0.07114  1.0000
  H   H1274     1.0  0.60934  0.36363  0.75364  1.0000
  H   H1275     1.0  0.61364  0.36783  0.81003  1.0000
  H   H1276     1.0  0.61571  0.25916  0.00448  1.0000
  H   H1277     1.0  0.73600  0.35856  0.01774  1.0000
  C   C1272     1.0  0.54628  0.38774  0.79966  1.0000
  C   C1273     1.0  0.55351  0.39561  0.76960  1.0000
  C   C1274     1.0  0.56207  0.39398  0.74607  1.0000
  C   C1275     1.0  0.56356  0.38447  0.75236  1.0000
  C   C1276     1.0  0.55621  0.37649  0.78146  1.0000
  C   C1277     1.0  0.54756  0.37814  0.80489  1.0000
  H   H1278     1.0  0.67312  0.22232  0.30569  1.0000
  C   C1278     1.0  0.66062  0.39687  0.34797  1.0000
  H   H1279     1.0  0.55725  0.36911  0.78646  1.0000
  H   H1280     1.0  0.54196  0.37198  0.82780  1.0000
  H   H1281     1.0  0.63292  0.31510  0.35195  1.0000
  H   H1282     1.0  0.73017  0.35141  0.97066  1.0000
  C   C1279     1.0  0.67280  0.38882  0.31847  1.0000
  C   C1280     1.0  0.67381  0.38479  0.35660  1.0000
  C   C1281     1.0  0.69343  0.24579  0.05295  1.0000
  C   C1282     1.0  0.64497  0.32487  0.35611  1.0000
  H   H1283     1.0  0.66535  0.37510  0.83035  1.0000
  H   H1284     1.0  0.67733  0.38757  0.29207  1.0000
  C   C1283     1.0  0.62073  0.36533  0.47807  1.0000
  H   H1285     1.0  0.61856  0.32969  0.33049  1.0000
  C   C1284     1.0  0.57364  0.36067  0.52657  1.0000
  C   C1285     1.0  0.57336  0.36510  0.55687  1.0000
  C   C1286     1.0  0.57533  0.36039  0.59238  1.0000
  C   C1287     1.0  0.57739  0.35114  0.59808  1.0000
  C   C1288     1.0  0.57757  0.34667  0.56797  1.0000
  C   C1289     1.0  0.57577  0.35145  0.53216  1.0000
  H   H1286     1.0  0.57162  0.37218  0.55293  1.0000
  H   H1287     1.0  0.57514  0.36388  0.61550  1.0000
  H   H1288     1.0  0.57917  0.33951  0.57219  1.0000
  H   H1289     1.0  0.57587  0.34793  0.50917  1.0000
  C   C1290     1.0  0.58853  0.32455  0.37309  1.0000
  C   C1291     1.0  0.58590  0.31428  0.38863  1.0000
  C   C1292     1.0  0.59031  0.30868  0.36653  1.0000
  C   C1293     1.0  0.59757  0.31323  0.32871  1.0000
  C   C1294     1.0  0.60048  0.32356  0.31308  1.0000
  C   C1295     1.0  0.59589  0.32925  0.33522  1.0000
  H   H1290     1.0  0.58024  0.31059  0.41778  1.0000
  H   H1291     1.0  0.58798  0.30073  0.37871  1.0000
  H   H1292     1.0  0.60596  0.32713  0.28344  1.0000
  H   H1293     1.0  0.59791  0.33720  0.32287  1.0000
  C   C1296     1.0  0.61079  0.38018  0.38471  1.0000
  C   C1297     1.0  0.61978  0.38389  0.38855  1.0000
  C   C1298     1.0  0.62005  0.38668  0.42258  1.0000
  C   C1299     1.0  0.61134  0.38571  0.45301  1.0000
  C   C1300     1.0  0.60237  0.38152  0.45030  1.0000
  C   C1301     1.0  0.60210  0.37889  0.41592  1.0000
  H   H1294     1.0  0.62653  0.38453  0.36549  1.0000
  H   H1295     1.0  0.62704  0.38951  0.42532  1.0000
  H   H1296     1.0  0.59562  0.38049  0.47422  1.0000
  H   H1297     1.0  0.59510  0.37598  0.41366  1.0000
  H   H1298     1.0  0.73754  0.37643  0.20735  1.0000
  C   C1302     1.0  0.64671  0.34215  0.32388  1.0000
  C   C1303     1.0  0.63671  0.32272  0.34427  1.0000
  H   H1299     1.0  0.71297  0.28763  0.23634  1.0000
  C   C1304     1.0  0.66226  0.21021  0.28411  1.0000
  S   S461      1.0  0.68720  0.21111  0.33117  1.0000
  H   H1300     1.0  0.70331  0.25018  0.95205  1.0000
  H   H1301     1.0  0.62766  0.36677  0.45431  1.0000
  H   H1302     1.0  0.69896  0.25453  0.08565  1.0000
  H   H1303     1.0  0.66125  0.38766  0.78298  1.0000
  C   C1305     1.0  0.67659  0.39470  0.85342  1.0000
  C   C1306     1.0  0.56451  0.39530  0.28935  1.0000
  C   C1307     1.0  0.56713  0.38628  0.30006  1.0000
  C   C1308     1.0  0.56363  0.37867  0.28678  1.0000
  C   C1309     1.0  0.55741  0.38012  0.26303  1.0000
  C   C1310     1.0  0.55473  0.38912  0.25251  1.0000
  S   S462      1.0  0.61176  0.39046  0.49244  1.0000
  H   H1304     1.0  0.57196  0.38527  0.31809  1.0000
  H   H1305     1.0  0.55468  0.37426  0.25262  1.0000
  H   H1306     1.0  0.54997  0.39017  0.23408  1.0000
  N   N102      1.0  0.57856  0.31394  0.79076  1.0000
  C   C1311     1.0  0.57267  0.31907  0.80859  1.0000
  C   C1312     1.0  0.58104  0.31559  0.74972  1.0000
  C   C1313     1.0  0.56919  0.32616  0.78515  1.0000
  C   C1314     1.0  0.57770  0.32264  0.72535  1.0000
  C   C1315     1.0  0.57170  0.32791  0.74331  1.0000
  H   H1307     1.0  0.57083  0.31792  0.84099  1.0000
  H   H1308     1.0  0.58567  0.31149  0.73555  1.0000
  H   H1309     1.0  0.56473  0.33039  0.79931  1.0000
  H   H1310     1.0  0.57974  0.32409  0.69267  1.0000
  H   H1311     1.0  0.56905  0.33338  0.72469  1.0000
  H   H1312     1.0  0.57640  0.29915  0.82702  1.0000
  H   H1313     1.0  0.58908  0.30550  0.79893  1.0000
  N   N103      1.0  0.63748  0.25949  0.83066  1.0000
  C   C1316     1.0  0.63422  0.25106  0.82301  1.0000
  C   C1317     1.0  0.63437  0.26776  0.81670  1.0000
  C   C1318     1.0  0.62781  0.25082  0.80029  1.0000
  C   C1319     1.0  0.62803  0.26781  0.79359  1.0000
  C   C1320     1.0  0.62472  0.25926  0.78546  1.0000
  C   C1321     1.0  0.64371  0.25940  0.85659  1.0000
  H   H1314     1.0  0.63633  0.24438  0.83543  1.0000
  H   H1315     1.0  0.63651  0.27428  0.82465  1.0000
  H   H1316     1.0  0.62490  0.24401  0.79578  1.0000
  H   H1317     1.0  0.62538  0.27430  0.78354  1.0000
  H   H1318     1.0  0.61946  0.25903  0.76914  1.0000
  H   H1319     1.0  0.63905  0.25662  0.88908  1.0000
  H   H1320     1.0  0.64890  0.25466  0.85140  1.0000
  H   H1321     1.0  0.64816  0.26691  0.85033  1.0000
  C   C1322     1.0  0.73252  0.37279  0.90592  1.0000
  H   H1322     1.0  0.71031  0.26233  0.98075  1.0000
  H   H1323     1.0  0.73881  0.27411  0.18028  1.0000
  C   C1323     1.0  0.66132  0.39250  0.38637  1.0000
  C   C1324     1.0  0.69987  0.22388  0.09979  1.0000
  C   C1325     1.0  0.72935  0.34446  0.36134  1.0000
  C   C1326     1.0  0.72681  0.26047  0.27896  1.0000
  C   C1327     1.0  0.72825  0.35711  0.02105  1.0000
  H   H1324     1.0  0.73219  0.25608  0.13730  1.0000
  H   H1325     1.0  0.72468  0.38312  0.99471  1.0000
  H   H1326     1.0  0.71030  0.22840  0.03938  1.0000
  H   H1327     1.0  0.69818  0.22274  0.00831  1.0000
  H   H1328     1.0  0.66301  0.22258  0.77283  1.0000
  N   N104      1.0  0.57886  0.39377  0.43135  1.0000
  C   C1328     1.0  0.68617  0.21719  0.06475  1.0000
  N   N105      1.0  0.61994  0.34240  0.78686  1.0000
  C   C1329     1.0  0.62591  0.33617  0.79324  1.0000
  C   C1330     1.0  0.61454  0.34486  0.81844  1.0000
  C   C1331     1.0  0.62649  0.33212  0.83215  1.0000
  C   C1332     1.0  0.61495  0.34096  0.85775  1.0000
  C   C1333     1.0  0.62096  0.33454  0.86459  1.0000
  C   C1334     1.0  0.61967  0.34683  0.74562  1.0000
  H   H1329     1.0  0.63014  0.33413  0.76839  1.0000
  H   H1330     1.0  0.60972  0.34972  0.81355  1.0000
  H   H1331     1.0  0.63112  0.32705  0.83712  1.0000
  H   H1332     1.0  0.61053  0.34281  0.88279  1.0000
  H   H1333     1.0  0.62127  0.33136  0.89500  1.0000
  H   H1334     1.0  0.62117  0.34192  0.72701  1.0000
  H   H1335     1.0  0.61232  0.34810  0.74636  1.0000
  H   H1336     1.0  0.62519  0.35400  0.73049  1.0000
  N   N106      1.0  0.63358  0.33013  0.32253  1.0000
  C   C1335     1.0  0.63843  0.33974  0.31248  1.0000
  C   C1336     1.0  0.64097  0.30180  0.01353  1.0000
  H   H1337     1.0  0.62946  0.28862  0.03601  1.0000
  C   C1337     1.0  0.62039  0.36819  0.51245  1.0000
  H   H1338     1.0  0.65177  0.31517  0.00007  1.0000
  S   S463      1.0  0.71180  0.24475  0.87937  1.0000
  C   C1338     1.0  0.63375  0.29403  0.04434  1.0000
  C   C1339     1.0  0.64632  0.30898  0.02382  1.0000
  C   C1340     1.0  0.63153  0.22467  0.98657  1.0000
  H   H1339     1.0  0.61212  0.35907  0.44648  1.0000
  N   N107      1.0  0.61162  0.36665  0.54187  1.0000
  H   H1340     1.0  0.64350  0.23217  0.00028  1.0000
  N   N108      1.0  0.63194  0.29342  0.08429  1.0000
  C   C1341     1.0  0.64453  0.30820  0.06470  1.0000
  H   H1341     1.0  0.64864  0.34024  0.13976  1.0000
  H   H1342     1.0  0.64852  0.31379  0.07318  1.0000
  H   H1343     1.0  0.64905  0.33850  0.02251  1.0000
  C   C1342     1.0  0.71517  0.35181  0.99647  1.0000
  C   C1343     1.0  0.61123  0.36979  0.57757  1.0000
  C   C1344     1.0  0.74813  0.38300  0.31197  1.0000
  H   H1344     1.0  0.63970  0.39696  0.30833  1.0000
  H   H1345     1.0  0.64076  0.38645  0.87141  1.0000
  S   S464      1.0  0.69378  0.23940  0.27397  1.0000
  S   S465      1.0  0.72920  0.27540  0.95794  1.0000
  H   H1346     1.0  0.56958  0.37157  0.85155  1.0000
  S   S466      1.0  0.62815  0.38333  0.81066  1.0000
  C   C1345     1.0  0.55833  0.39676  0.26547  1.0000
  S   S467      1.0  0.69553  0.21767  0.93218  1.0000
  C   C1346     1.0  0.65648  0.20475  0.26831  1.0000
  C   C1347     1.0  0.66164  0.33579  0.04036  1.0000
  C   C1348     1.0  0.72692  0.38022  0.96997  1.0000
  C   C1349     1.0  0.60313  0.35952  0.50367  1.0000
  C   C1350     1.0  0.65100  0.22025  0.29218  1.0000
  S   S468      1.0  0.66232  0.23550  0.89650  1.0000
  H   H1347     1.0  0.66573  0.39822  0.28437  1.0000
  H   H1348     1.0  0.73474  0.36995  0.88095  1.0000
  H   H1349     1.0  0.53508  0.40117  0.31292  1.0000
  H   H1350     1.0  0.72743  0.23793  0.06468  1.0000
  H   H1351     1.0  0.72785  0.37246  0.06015  1.0000
  C   C1351     1.0  0.60307  0.36243  0.53771  1.0000
  H   H1352     1.0  0.71417  0.27536  0.23754  1.0000
  C   C1352     1.0  0.74024  0.27383  0.27355  1.0000
  H   H1353     1.0  0.72220  0.28257  0.25427  1.0000
  C   C1353     1.0  0.64786  0.33971  0.08178  1.0000
  C   C1354     1.0  0.57088  0.34412  0.28598  1.0000
  H   H1354     1.0  0.73946  0.27059  0.07442  1.0000
  C   C1355     1.0  0.72501  0.35312  0.99415  1.0000
  H   H1355     1.0  0.59631  0.35640  0.50002  1.0000
  C   C1356     1.0  0.65959  0.37186  0.89493  1.0000
  H   H1356     1.0  0.63603  0.29964  0.12649  1.0000
  C   C1357     1.0  0.66545  0.33533  0.13961  1.0000
  C   C1358     1.0  0.62442  0.28517  0.11623  1.0000
  H   H1357     1.0  0.62116  0.28738  0.14317  1.0000
  C   C1359     1.0  0.65235  0.33898  0.11189  1.0000
  H   H1358     1.0  0.59613  0.36147  0.56050  1.0000
  C   C1360     1.0  0.72545  0.36439  0.07588  1.0000
  H   H1359     1.0  0.72889  0.38370  0.21805  1.0000
  C   C1361     1.0  0.62906  0.38273  0.69797  1.0000
  H   H1360     1.0  0.56040  0.33012  0.38537  1.0000
  H   H1361     1.0  0.65701  0.39396  0.41258  1.0000
  C   C1362     1.0  0.73015  0.26598  0.89895  1.0000
  H   H1362     1.0  0.65257  0.37017  0.95778  1.0000
  H   H1363     1.0  0.57153  0.35136  0.26540  1.0000
  H   H1364     1.0  0.63785  0.39096  0.72309  1.0000
  H   H1365     1.0  0.56135  0.34645  0.33781  1.0000
  C   C1363     1.0  0.68539  0.21949  0.77610  1.0000
  H   H1366     1.0  0.71738  0.27756  0.16709  1.0000
  H   H1367     1.0  0.68192  0.39030  0.85205  1.0000
  S   S469      1.0  0.53585  0.38978  0.83216  1.0000
  H   H1368     1.0  0.67582  0.22995  0.18213  1.0000
  C   C1364     1.0  0.56452  0.33218  0.35327  1.0000
  H   H1369     1.0  0.61863  0.37229  0.57948  1.0000
  C   C1365     1.0  0.57580  0.33753  0.27221  1.0000
  H   H1370     1.0  0.57621  0.31875  0.26361  1.0000
  C   C1366     1.0  0.56517  0.34138  0.32674  1.0000
  H   H1371     1.0  0.56904  0.31866  0.35958  1.0000
  H   H1372     1.0  0.73726  0.39092  0.32914  1.0000
  H   H1373     1.0  0.58776  0.32526  0.26430  1.0000
  S   S470      1.0  0.74966  0.30248  0.90248  1.0000
  C   C1367     1.0  0.56948  0.32574  0.33846  1.0000
  C   C1368     1.0  0.59940  0.26131  0.15205  1.0000
  C   C1369     1.0  0.63155  0.38508  0.72992  1.0000
  C   C1370     1.0  0.61345  0.25320  0.06870  1.0000
  C   C1371     1.0  0.72363  0.28361  0.16005  1.0000
  N   N109      1.0  0.65954  0.21791  0.29541  1.0000
  N   N110      1.0  0.57505  0.32847  0.29839  1.0000
  C   C1372     1.0  0.74633  0.39156  0.08431  1.0000
  C   C1373     1.0  0.73020  0.28752  0.12029  1.0000
  H   H1374     1.0  0.61832  0.28274  0.10534  1.0000
  S   S471      1.0  0.68349  0.23474  0.94614  1.0000
  C   C1374     1.0  0.66182  0.22544  0.17561  1.0000
  H   H1375     1.0  0.66865  0.38338  0.42017  1.0000
  C   C1375     1.0  0.72615  0.25910  0.88268  1.0000
  C   C1376     1.0  0.73316  0.29472  0.18118  1.0000
  C   C1377     1.0  0.73837  0.29514  0.11117  1.0000
  H   H1376     1.0  0.64273  0.23601  0.19776  1.0000
  C   C1378     1.0  0.65249  0.22714  0.17958  1.0000
  H   H1377     1.0  0.67741  0.23029  0.78757  1.0000
  S   S472      1.0  0.61822  0.21049  0.16549  1.0000
  H   H1378     1.0  0.64073  0.34139  0.08650  1.0000
  H   H1379     1.0  0.74837  0.28325  0.21272  1.0000
  Fe  Fe232     1.0  0.61969  0.20692  0.85739  1.0000
  C   C1379     1.0  0.64992  0.23462  0.19478  1.0000
  H   H1380     1.0  0.65162  0.39313  0.80051  1.0000
  C   C1380     1.0  0.73938  0.37554  0.92467  1.0000
  C   C1381     1.0  0.72900  0.26356  0.23665  1.0000
  H   H1381     1.0  0.66039  0.20966  0.72291  1.0000
  C   C1382     1.0  0.64500  0.21491  0.27669  1.0000
  H   H1382     1.0  0.72900  0.28461  0.09675  1.0000
  H   H1383     1.0  0.54822  0.38667  0.89650  1.0000
  C   C1383     1.0  0.66855  0.23108  0.18714  1.0000
  H   H1384     1.0  0.60989  0.24878  0.13369  1.0000
  H   H1385     1.0  0.56927  0.38614  0.49188  1.0000
  S   S473      1.0  0.67352  0.38959  0.93613  1.0000
  C   C1384     1.0  0.66599  0.23843  0.20309  1.0000
  C   C1385     1.0  0.65669  0.24027  0.20649  1.0000
  H   H1386     1.0  0.65468  0.24603  0.21837  1.0000
  C   C1386     1.0  0.72278  0.37358  0.91964  1.0000
  Fe  Fe233     1.0  0.68590  0.21406  0.89537  1.0000
  C   C1387     1.0  0.73780  0.39104  0.07356  1.0000
  C   C1388     1.0  0.73882  0.38501  0.31743  1.0000
  C   C1389     1.0  0.57641  0.39091  0.47282  1.0000
  S   S474      1.0  0.67439  0.24553  0.21794  1.0000
  H   H1387     1.0  0.56735  0.40120  0.29928  1.0000
  H   H1388     1.0  0.66034  0.40158  0.92126  1.0000
  H   H1389     1.0  0.70518  0.38673  0.86861  1.0000
  H   H1390     1.0  0.72198  0.38783  0.09611  1.0000
  Fe  Fe234     1.0  0.70888  0.24473  0.22672  1.0000
  H   H1391     1.0  0.59357  0.26542  0.15293  1.0000
  Fe  Fe235     1.0  0.68778  0.23990  0.22231  1.0000
  H   H1392     1.0  0.61758  0.24771  0.06544  1.0000
  H   H1393     1.0  0.66761  0.23647  0.03567  1.0000
  H   H1394     1.0  0.59603  0.25384  0.17482  1.0000
  H   H1395     1.0  0.60632  0.27181  0.01261  1.0000
  C   C1390     1.0  0.68522  0.21101  0.76495  1.0000
  H   H1396     1.0  0.67968  0.40008  0.78826  1.0000
  H   H1397     1.0  0.58913  0.21452  0.14198  1.0000
  C   C1391     1.0  0.72869  0.38825  0.10394  1.0000
  C   C1392     1.0  0.73694  0.27172  0.21303  1.0000
  C   C1393     1.0  0.69249  0.25085  0.08106  1.0000
  C   C1394     1.0  0.73761  0.36505  0.39819  1.0000
  N   N111      1.0  0.73668  0.38663  0.15491  1.0000
  N   N112      1.0  0.66122  0.33663  0.10649  1.0000
  S   S475      1.0  0.74143  0.29245  0.00057  1.0000
  C   C1395     1.0  0.60281  0.26712  0.07801  1.0000
  H   H1398     1.0  0.74681  0.37480  0.91415  1.0000
  C   C1396     1.0  0.68331  0.21599  0.10638  1.0000
  H   H1399     1.0  0.60093  0.39553  0.69206  1.0000
  C   C1397     1.0  0.71079  0.25450  0.93724  1.0000
  C   C1398     1.0  0.61209  0.39656  0.59507  1.0000
  C   C1399     1.0  0.64270  0.21131  0.97432  1.0000
  C   C1400     1.0  0.74418  0.34965  0.37742  1.0000
  Fe  Fe236     1.0  0.69688  0.23372  0.90076  1.0000
  S   S476      1.0  0.72189  0.25800  0.21133  1.0000
  C   C1401     1.0  0.66723  0.23494  0.06801  1.0000
  H   H1400     1.0  0.56588  0.39525  0.41701  1.0000
  C   C1402     1.0  0.70276  0.22497  0.05816  1.0000
  H   H1401     1.0  0.64723  0.20626  0.96878  1.0000
  N   N113      1.0  0.70343  0.40126  0.86118  1.0000
  H   H1402     1.0  0.66030  0.23638  0.08476  1.0000
  H   H1403     1.0  0.65362  0.22033  0.98860  1.0000
  H   H1404     1.0  0.55355  0.37113  0.89956  1.0000
  N   N114      1.0  0.67590  0.24092  0.07106  1.0000
  C   C1403     1.0  0.66624  0.39487  0.31418  1.0000
  N   N115      1.0  0.65332  0.38152  0.84669  1.0000
  Fe  Fe237     1.0  0.74903  0.30751  0.95665  1.0000
  C   C1404     1.0  0.64619  0.38251  0.87779  1.0000
  N   N116      1.0  0.66897  0.21072  0.76147  1.0000
  H   H1405     1.0  0.56782  0.38297  0.42756  1.0000
  C   C1405     1.0  0.64636  0.21924  0.98564  1.0000
  H   H1406     1.0  0.56763  0.40018  0.72321  1.0000
  H   H1407     1.0  0.73445  0.29749  0.20495  1.0000
  H   H1408     1.0  0.64857  0.38102  0.79634  1.0000
  N   N117      1.0  0.72182  0.35959  0.04984  1.0000
  C   C1406     1.0  0.72827  0.38597  0.14475  1.0000
  H   H1409     1.0  0.65430  0.20778  0.84840  1.0000
  C   C1407     1.0  0.73275  0.25525  0.10782  1.0000
  Fe  Fe238     1.0  0.60756  0.21051  0.22323  1.0000
  H   H1410     1.0  0.64889  0.22641  0.30074  1.0000
  C   C1408     1.0  0.74692  0.36395  0.39860  1.0000
  C   C1409     1.0  0.64071  0.22594  0.99185  1.0000
  C   C1410     1.0  0.65264  0.37320  0.92670  1.0000
  C   C1411     1.0  0.65983  0.37608  0.85486  1.0000
  C   C1412     1.0  0.65793  0.21993  0.86953  1.0000
  Fe  Fe239     1.0  0.69476  0.22409  0.27289  1.0000
  C   C1413     1.0  0.58542  0.20679  0.15163  1.0000
  H   H1411     1.0  0.61081  0.20686  0.10078  1.0000
  H   H1412     1.0  0.71647  0.39617  0.84570  1.0000
  H   H1413     1.0  0.68783  0.21838  0.15593  1.0000
  S   S477      1.0  0.68789  0.22444  0.22434  1.0000
  H   H1414     1.0  0.70063  0.24551  0.03548  1.0000
  H   H1415     1.0  0.66483  0.36766  0.90134  1.0000
  S   S478      1.0  0.71032  0.22931  0.22906  1.0000
  C   C1414     1.0  0.67690  0.20669  0.75768  1.0000
  H   H1416     1.0  0.73827  0.39278  0.04175  1.0000
  C   C1415     1.0  0.73659  0.37928  0.95683  1.0000
  Fe  Fe240     1.0  0.74328  0.28698  0.94665  1.0000
  S   S479      1.0  0.64427  0.21966  0.16569  1.0000
  C   C1416     1.0  0.74563  0.38937  0.12537  1.0000
  C   C1417     1.0  0.71644  0.25331  0.90157  1.0000
  S   S480      1.0  0.59184  0.20415  0.90483  1.0000
  C   C1418     1.0  0.73682  0.26339  0.07256  1.0000
  H   H1417     1.0  0.73761  0.27034  0.88391  1.0000
  C   C1419     1.0  0.64583  0.37850  0.91820  1.0000
  C   C1420     1.0  0.73746  0.26219  0.03479  1.0000
  H   H1418     1.0  0.57990  0.38739  0.80113  1.0000
  H   H1419     1.0  0.68212  0.40196  0.43631  1.0000
  H   H1420     1.0  0.64035  0.37956  0.94266  1.0000
  H   H1421     1.0  0.67305  0.33348  0.06645  1.0000
  C   C1421     1.0  0.69590  0.22175  0.04054  1.0000
  C   C1422     1.0  0.73472  0.25187  0.99269  1.0000
  N   N118      1.0  0.63363  0.21005  0.96967  1.0000
  H   H1422     1.0  0.69237  0.39824  0.37798  1.0000
  C   C1423     1.0  0.59236  0.39993  0.46695  1.0000
  C   C1424     1.0  0.60829  0.20843  0.07468  1.0000
  S   S481      1.0  0.74739  0.27972  0.29788  1.0000
  C   C1425     1.0  0.69011  0.21942  0.12377  1.0000
  N   N119      1.0  0.73419  0.25311  0.03222  1.0000
  H   H1423     1.0  0.66114  0.32853  0.16509  1.0000
  C   C1426     1.0  0.71478  0.26141  0.95343  1.0000
  H   H1424     1.0  0.57480  0.39217  0.37995  1.0000
  H   H1425     1.0  0.66539  0.33467  0.01219  1.0000
  C   C1427     1.0  0.73987  0.29878  0.14174  1.0000
  H   H1426     1.0  0.73180  0.36177  0.08234  1.0000
  Fe  Fe241     1.0  0.68183  0.21868  0.97560  1.0000
  H   H1427     1.0  0.74175  0.38919  0.20246  1.0000
  N   N120      1.0  0.61639  0.39974  0.66200  1.0000
  C   C1428     1.0  0.57149  0.39094  0.41296  1.0000
  H   H1428     1.0  0.66541  0.34175  0.15083  1.0000
  H   H1429     1.0  0.74421  0.36358  0.27742  1.0000
  H   H1430     1.0  0.72723  0.25031  0.99039  1.0000
  H   H1431     1.0  0.67320  0.33487  0.12962  1.0000
  C   C1429     1.0  0.62181  0.39955  0.59316  1.0000
  C   C1430     1.0  0.72448  0.26721  0.93444  1.0000
  C   C1431     1.0  0.74267  0.36960  0.28832  1.0000
  H   H1432     1.0  0.67581  0.21240  0.12529  1.0000
  C   C1432     1.0  0.72936  0.24604  0.10496  1.0000
  S   S482      1.0  0.67745  0.21288  0.04382  1.0000
  H   H1433     1.0  0.70709  0.36042  0.07470  1.0000
  H   H1434     1.0  0.66485  0.21849  0.87160  1.0000
  H   H1435     1.0  0.66386  0.21973  0.16351  1.0000
  C   C1433     1.0  0.73180  0.35845  0.38673  1.0000
  H   H1436     1.0  0.72166  0.34522  0.36770  1.0000
  S   S483      1.0  0.67209  0.21360  0.94244  1.0000
  H   H1437     1.0  0.66222  0.22099  0.34637  1.0000
  H   H1438     1.0  0.70105  0.35352  0.02763  1.0000
  C   C1434     1.0  0.71215  0.35829  0.05242  1.0000
  C   C1435     1.0  0.73246  0.26550  0.29717  1.0000
  H   H1439     1.0  0.72601  0.23968  0.13225  1.0000
  C   C1436     1.0  0.67534  0.40025  0.81739  1.0000
  C   C1437     1.0  0.55532  0.38679  0.87671  1.0000
  C   C1438     1.0  0.55830  0.37807  0.87822  1.0000
  H   H1440     1.0  0.73075  0.26296  0.32990  1.0000
  C   C1439     1.0  0.70909  0.39387  0.86904  1.0000
  H   H1441     1.0  0.69668  0.39924  0.92413  1.0000
  C   C1440     1.0  0.74238  0.27694  0.23130  1.0000
  H   H1442     1.0  0.74633  0.34172  0.95662  1.0000
  H   H1443     1.0  0.69135  0.20758  0.76367  1.0000
  C   C1441     1.0  0.73015  0.24510  0.06666  1.0000
  C   C1442     1.0  0.70868  0.35437  0.02589  1.0000
  C   C1443     1.0  0.57310  0.38731  0.82283  1.0000
  C   C1444     1.0  0.73618  0.38388  0.19772  1.0000
  H   H1444     1.0  0.72914  0.33662  0.37579  1.0000
  H   H1445     1.0  0.63339  0.38689  0.66676  1.0000
  H   H1446     1.0  0.73811  0.24571  0.98893  1.0000
  H   H1447     1.0  0.58718  0.20667  0.09077  1.0000
  H   H1448     1.0  0.72478  0.35967  0.38449  1.0000
  C   C1445     1.0  0.56136  0.39564  0.84801  1.0000
  H   H1449     1.0  0.72115  0.38369  0.16820  1.0000
  H   H1450     1.0  0.66899  0.20832  0.28685  1.0000
  C   C1446     1.0  0.62813  0.21669  0.97506  1.0000
  S   S484      1.0  0.74447  0.32140  0.96192  1.0000
  H   H1451     1.0  0.61658  0.39878  0.30473  1.0000
  S   S485      1.0  0.63595  0.20805  0.83504  1.0000
  C   C1447     1.0  0.67126  0.39526  0.89091  1.0000
  H   H1452     1.0  0.69166  0.22268  0.78330  1.0000
  C   C1448     1.0  0.64782  0.20718  0.26435  1.0000
  H   H1453     1.0  0.63029  0.39244  0.28959  1.0000
  C   C1449     1.0  0.60454  0.39510  0.63090  1.0000
  C   C1450     1.0  0.60684  0.39671  0.66431  1.0000
  H   H1454     1.0  0.61042  0.39540  0.56883  1.0000
  H   H1455     1.0  0.74055  0.26857  0.00764  1.0000
  H   H1456     1.0  0.73261  0.34646  0.32779  1.0000
  C   C1451     1.0  0.75021  0.35614  0.38857  1.0000
  C   C1452     1.0  0.66443  0.40106  0.89236  1.0000
  C   C1453     1.0  0.63572  0.39914  0.28629  1.0000
  H   H1457     1.0  0.73514  0.37129  0.40466  1.0000
  C   C1454     1.0  0.66022  0.20603  0.75446  1.0000
  C   C1455     1.0  0.58794  0.39960  0.40728  1.0000
  Fe  Fe242     1.0  0.63384  0.39968  0.79238  1.0000
  C   C1456     1.0  0.58312  0.39392  0.49125  1.0000
  H   H1458     1.0  0.58120  0.39150  0.52414  1.0000
  H   H1459     1.0  0.52681  0.40067  0.36132  1.0000
  N   N121      1.0  0.57003  0.39579  0.82111  1.0000
  H   H1460     1.0  0.61496  0.39545  0.72493  1.0000
  C   C1457     1.0  0.52978  0.40157  0.04379  1.0000
  S   S486      1.0  0.53154  0.40143  0.11769  1.0000
  H   H1461     1.0  0.52886  0.40179  0.98467  1.0000
  C   C1458     1.0  0.62383  0.40109  0.62714  1.0000
  H   H1462     1.0  0.58990  0.40187  0.37443  1.0000
  H   H1463     1.0  0.62777  0.40073  0.56555  1.0000
  S   S487      1.0  0.63998  0.40018  0.46014  1.0000
  H   H1464     1.0  0.58274  0.20454  0.21569  1.0000
  H   H1465     1.0  0.64105  0.40174  0.25500  1.0000
  H   H1466     1.0  0.65345  0.20653  0.77624  1.0000
  H   H1467     1.0  0.62889  0.20423  0.92799  1.0000
  C   C1459     1.0  0.61857  0.40187  0.69674  1.0000
  H   H1468     1.0  0.55890  0.40235  0.84629  1.0000
  H   H1469     1.0  0.59767  0.40225  0.48082  1.0000
  C   C1460     1.0  0.60267  0.20294  0.02462  1.0000
  H   H1470     1.0  0.64340  0.20322  0.25097  1.0000
  H   H1471     1.0  0.53418  0.49422  0.36610  1.0000
  H   H1472     1.0  0.54085  0.46939  0.31390  1.0000
  H   H1473     1.0  0.51500  0.47999  0.23618  1.0000
  H   H1474     1.0  0.52273  0.58261  0.85146  1.0000
  S   S488      1.0  0.51617  0.55721  0.29761  1.0000
  C   C1461     1.0  0.50731  0.58707  0.77335  1.0000
  C   C1462     1.0  0.54669  0.43592  0.98027  1.0000
  C   C1463     1.0  0.56348  0.47983  0.99731  1.0000
  Fe  Fe243     1.0  0.55206  0.42066  0.84110  1.0000
  C   C1464     1.0  0.50590  0.57427  0.37323  1.0000
  H   H1475     1.0  0.61604  0.40847  0.70079  1.0000
  H   H1476     1.0  0.51920  0.53162  0.69446  1.0000
  C   C1465     1.0  0.56103  0.47065  0.06848  1.0000
  S   S489      1.0  0.55263  0.44560  0.12291  1.0000
  C   C1466     1.0  0.63252  0.42333  0.29829  1.0000
  S   S490      1.0  0.62928  0.41043  0.39615  1.0000
  Fe  Fe244     1.0  0.64276  0.41475  0.47080  1.0000
  S   S491      1.0  0.64856  0.42347  0.40407  1.0000
  S   S492      1.0  0.65153  0.41518  0.51341  1.0000
  Fe  Fe245     1.0  0.63290  0.42416  0.41106  1.0000
  S   S493      1.0  0.62972  0.43772  0.37394  1.0000
  Fe  Fe246     1.0  0.64446  0.40902  0.39421  1.0000
  S   S494      1.0  0.54722  0.41823  0.78987  1.0000
  S   S495      1.0  0.62742  0.41667  0.47901  1.0000
  H   H1477     1.0  0.54073  0.46844  0.67159  1.0000
  Fe  Fe247     1.0  0.56991  0.45916  0.27885  1.0000
  S   S496      1.0  0.57448  0.46026  0.33266  1.0000
  S   S497      1.0  0.55430  0.45643  0.27906  1.0000
  Fe  Fe248     1.0  0.59060  0.46288  0.22346  1.0000
  S   S498      1.0  0.59712  0.46471  0.27157  1.0000
  S   S499      1.0  0.60040  0.46304  0.16304  1.0000
  Fe  Fe249     1.0  0.58524  0.45143  0.31359  1.0000
  S   S500      1.0  0.58747  0.43802  0.35676  1.0000
  Fe  Fe250     1.0  0.58597  0.47339  0.28668  1.0000
  S   S501      1.0  0.59103  0.48801  0.29473  1.0000
  S   S502      1.0  0.57940  0.44903  0.26428  1.0000
  S   S503      1.0  0.58066  0.47290  0.23415  1.0000
  H   H1478     1.0  0.52620  0.48485  0.27188  1.0000
  S   S504      1.0  0.56777  0.42203  0.83853  1.0000
  H   H1479     1.0  0.62561  0.43286  0.76773  1.0000
  H   H1480     1.0  0.54356  0.45980  0.99261  1.0000
  Fe  Fe251     1.0  0.63830  0.41950  0.72709  1.0000
  S   S505      1.0  0.64521  0.42774  0.76159  1.0000
  S   S506      1.0  0.63415  0.42635  0.67183  1.0000
  C   C1467     1.0  0.50945  0.50226  0.43566  1.0000
  H   H1481     1.0  0.53733  0.45131  0.81766  1.0000
  C   C1468     1.0  0.52464  0.47819  0.55443  1.0000
  Fe  Fe252     1.0  0.63226  0.41829  0.81573  1.0000
  S   S507      1.0  0.62180  0.42240  0.86373  1.0000
  Fe  Fe253     1.0  0.65213  0.41487  0.77626  1.0000
  C   C1469     1.0  0.54952  0.43568  0.01453  1.0000
  S   S508      1.0  0.63975  0.40620  0.83328  1.0000
  H   H1482     1.0  0.55280  0.40951  0.07397  1.0000
  Fe  Fe254     1.0  0.58836  0.46985  0.96506  1.0000
  S   S509      1.0  0.59386  0.47779  0.89743  1.0000
  S   S510      1.0  0.58578  0.47754  0.01223  1.0000
  Fe  Fe255     1.0  0.58294  0.44994  0.95525  1.0000
  S   S511      1.0  0.58777  0.45618  0.88750  1.0000
  S   S512      1.0  0.57674  0.43370  0.98369  1.0000
  Fe  Fe256     1.0  0.60080  0.46502  0.89409  1.0000
  S   S513      1.0  0.61541  0.46522  0.85155  1.0000
  Fe  Fe257     1.0  0.58032  0.46809  0.89724  1.0000
  S   S514      1.0  0.56921  0.47133  0.86552  1.0000
  S   S515      1.0  0.59646  0.45799  0.96189  1.0000
  S   S516      1.0  0.57437  0.46098  0.96484  1.0000
  Fe  Fe258     1.0  0.53409  0.51791  0.43665  1.0000
  S   S517      1.0  0.53063  0.50404  0.48935  1.0000
  S   S518      1.0  0.52194  0.52591  0.44399  1.0000
  Fe  Fe259     1.0  0.55246  0.51310  0.38974  1.0000
  S   S519      1.0  0.55026  0.49895  0.43850  1.0000
  S   S520      1.0  0.56557  0.51785  0.33304  1.0000
  Fe  Fe260     1.0  0.53458  0.49685  0.44177  1.0000
  S   S521      1.0  0.52529  0.48219  0.45031  1.0000
  Fe  Fe261     1.0  0.54665  0.50758  0.48114  1.0000
  S   S522      1.0  0.55282  0.50440  0.53288  1.0000
  S   S523      1.0  0.53693  0.51044  0.38944  1.0000
  S   S524      1.0  0.55001  0.52209  0.43215  1.0000
  Fe  Fe262     1.0  0.54708  0.51296  0.79702  1.0000
  S   S525      1.0  0.54766  0.50739  0.74443  1.0000
  S   S526      1.0  0.56006  0.51333  0.81979  1.0000
  Fe  Fe263     1.0  0.52659  0.51605  0.80749  1.0000
  S   S527      1.0  0.52525  0.51016  0.75739  1.0000
  S   S528      1.0  0.51303  0.52038  0.83866  1.0000
  Fe  Fe264     1.0  0.53248  0.49864  0.78234  1.0000
  S   S529      1.0  0.52808  0.48339  0.78004  1.0000
  Fe  Fe265     1.0  0.54044  0.51932  0.72276  1.0000
  S   S530      1.0  0.54267  0.52781  0.65737  1.0000
  S   S531      1.0  0.53223  0.50336  0.83690  1.0000
  S   S532      1.0  0.54149  0.52608  0.77125  1.0000
  C   C1470     1.0  0.51907  0.48733  0.66673  1.0000
  C   C1471     1.0  0.52537  0.49519  0.66962  1.0000
  C   C1472     1.0  0.52868  0.49383  0.70338  1.0000
  C   C1473     1.0  0.52574  0.48464  0.73390  1.0000
  C   C1474     1.0  0.55150  0.46463  0.02957  1.0000
  C   C1475     1.0  0.51372  0.43089  0.76981  1.0000
  H   H1483     1.0  0.52740  0.50237  0.64680  1.0000
  H   H1484     1.0  0.53333  0.49996  0.70615  1.0000
  H   H1485     1.0  0.55435  0.46761  0.09567  1.0000
  H   H1486     1.0  0.55461  0.42732  0.06015  1.0000
  C   C1476     1.0  0.54958  0.51076  0.56766  1.0000
  C   C1477     1.0  0.55157  0.50796  0.60443  1.0000
  C   C1478     1.0  0.54917  0.51297  0.63256  1.0000
  C   C1479     1.0  0.54502  0.52100  0.62362  1.0000
  C   C1480     1.0  0.54310  0.52387  0.58662  1.0000
  C   C1481     1.0  0.54524  0.51867  0.55890  1.0000
  H   H1487     1.0  0.55499  0.50191  0.61122  1.0000
  H   H1488     1.0  0.55073  0.51072  0.66076  1.0000
  H   H1489     1.0  0.53996  0.53011  0.57932  1.0000
  H   H1490     1.0  0.54370  0.52088  0.53050  1.0000
  H   H1491     1.0  0.54774  0.45818  0.05615  1.0000
  C   C1482     1.0  0.51465  0.52447  0.69937  1.0000
  C   C1483     1.0  0.50830  0.59688  0.82893  1.0000
  C   C1484     1.0  0.52127  0.48334  0.40807  1.0000
  C   C1485     1.0  0.51211  0.47776  0.41254  1.0000
  H   H1492     1.0  0.59284  0.42351  0.85359  1.0000
  S   S533      1.0  0.54178  0.40723  0.88961  1.0000
  S   S534      1.0  0.53266  0.43943  0.76469  1.0000
  N   N122      1.0  0.51449  0.57143  0.36297  1.0000
  C   C1486     1.0  0.56272  0.50170  0.83251  1.0000
  C   C1487     1.0  0.57100  0.50057  0.84441  1.0000
  C   C1488     1.0  0.57324  0.49132  0.85382  1.0000
  C   C1489     1.0  0.56716  0.48319  0.85154  1.0000
  C   C1490     1.0  0.55898  0.48438  0.83911  1.0000
  C   C1491     1.0  0.55675  0.49359  0.82969  1.0000
  H   H1493     1.0  0.57568  0.50684  0.84639  1.0000
  H   H1494     1.0  0.57960  0.49045  0.86315  1.0000
  H   H1495     1.0  0.55427  0.47813  0.83713  1.0000
  H   H1496     1.0  0.55036  0.49437  0.82051  1.0000
  C   C1492     1.0  0.62067  0.43447  0.86098  1.0000
  C   C1493     1.0  0.62754  0.44282  0.83188  1.0000
  C   C1494     1.0  0.62601  0.45227  0.82965  1.0000
  C   C1495     1.0  0.61760  0.45340  0.85633  1.0000
  C   C1496     1.0  0.61084  0.44505  0.88570  1.0000
  C   C1497     1.0  0.61240  0.43565  0.88812  1.0000
  H   H1497     1.0  0.63401  0.44200  0.81120  1.0000
  H   H1498     1.0  0.63130  0.45871  0.80705  1.0000
  H   H1499     1.0  0.60435  0.44581  0.90643  1.0000
  H   H1500     1.0  0.60707  0.42924  0.91077  1.0000
  C   C1498     1.0  0.63674  0.41564  0.29181  1.0000
  C   C1499     1.0  0.51432  0.58635  0.79328  1.0000
  C   C1500     1.0  0.55284  0.42180  0.33349  1.0000
  S   S535      1.0  0.54912  0.41719  0.14955  1.0000
  C   C1501     1.0  0.55012  0.43072  0.32822  1.0000
  H   H1501     1.0  0.66998  0.41997  0.35784  1.0000
  C   C1502     1.0  0.56945  0.42482  0.88092  1.0000
  C   C1503     1.0  0.56751  0.43344  0.88772  1.0000
  C   C1504     1.0  0.56968  0.43609  0.91963  1.0000
  C   C1505     1.0  0.57356  0.43001  0.94537  1.0000
  C   C1506     1.0  0.57519  0.42121  0.93941  1.0000
  C   C1507     1.0  0.57323  0.41866  0.90691  1.0000
  H   H1502     1.0  0.56463  0.43824  0.86757  1.0000
  H   H1503     1.0  0.56827  0.44284  0.92444  1.0000
  H   H1504     1.0  0.57828  0.41654  0.95902  1.0000
  H   H1505     1.0  0.57474  0.41198  0.90166  1.0000
  C   C1508     1.0  0.58300  0.49577  0.30172  1.0000
  C   C1509     1.0  0.58683  0.50592  0.28302  1.0000
  C   C1510     1.0  0.58117  0.51251  0.29143  1.0000
  C   C1511     1.0  0.57173  0.50907  0.31980  1.0000
  C   C1512     1.0  0.56776  0.49889  0.33812  1.0000
  C   C1513     1.0  0.57336  0.49222  0.32869  1.0000
  H   H1506     1.0  0.59428  0.50873  0.26243  1.0000
  H   H1507     1.0  0.58426  0.52034  0.27696  1.0000
  H   H1508     1.0  0.56043  0.49615  0.35971  1.0000
  H   H1509     1.0  0.57038  0.48438  0.34354  1.0000
  C   C1514     1.0  0.59627  0.46700  0.12128  1.0000
  C   C1515     1.0  0.60150  0.46657  0.08328  1.0000
  C   C1516     1.0  0.59820  0.46955  0.04976  1.0000
  C   C1517     1.0  0.58988  0.47334  0.05385  1.0000
  C   C1518     1.0  0.58485  0.47405  0.09154  1.0000
  C   C1519     1.0  0.58793  0.47072  0.12533  1.0000
  H   H1510     1.0  0.60806  0.46384  0.07979  1.0000
  H   H1511     1.0  0.60222  0.46916  0.02053  1.0000
  H   H1512     1.0  0.57849  0.47709  0.09485  1.0000
  H   H1513     1.0  0.58391  0.47116  0.15432  1.0000
  C   C1520     1.0  0.64674  0.41856  0.55674  1.0000
  C   C1521     1.0  0.63892  0.42311  0.56047  1.0000
  C   C1522     1.0  0.63520  0.42561  0.59567  1.0000
  C   C1523     1.0  0.63919  0.42346  0.62748  1.0000
  C   C1524     1.0  0.64698  0.41888  0.62377  1.0000
  C   C1525     1.0  0.65079  0.41651  0.58837  1.0000
  H   H1514     1.0  0.63582  0.42482  0.53607  1.0000
  H   H1515     1.0  0.62920  0.42919  0.59829  1.0000
  H   H1516     1.0  0.65019  0.41731  0.64785  1.0000
  H   H1517     1.0  0.65785  0.41100  0.85799  1.0000
  C   C1526     1.0  0.61786  0.43767  0.37050  1.0000
  C   C1527     1.0  0.60990  0.42955  0.39287  1.0000
  C   C1528     1.0  0.60061  0.42975  0.38853  1.0000
  C   C1529     1.0  0.59922  0.43802  0.36174  1.0000
  C   C1530     1.0  0.60721  0.44607  0.33931  1.0000
  C   C1531     1.0  0.61647  0.44590  0.34371  1.0000
  H   H1518     1.0  0.61091  0.42322  0.41383  1.0000
  H   H1519     1.0  0.59442  0.42356  0.40637  1.0000
  H   H1520     1.0  0.60626  0.45249  0.31876  1.0000
  H   H1521     1.0  0.62259  0.45220  0.32633  1.0000
  C   C1532     1.0  0.55315  0.45034  0.16240  1.0000
  C   C1533     1.0  0.54449  0.44917  0.19342  1.0000
  C   C1534     1.0  0.54487  0.45133  0.22867  1.0000
  C   C1535     1.0  0.55391  0.45467  0.23308  1.0000
  C   C1536     1.0  0.56257  0.45618  0.20140  1.0000
  C   C1537     1.0  0.56220  0.45411  0.16586  1.0000
  H   H1522     1.0  0.53748  0.44619  0.19098  1.0000
  H   H1523     1.0  0.53816  0.45000  0.25309  1.0000
  H   H1524     1.0  0.56958  0.45872  0.20462  1.0000
  H   H1525     1.0  0.56892  0.45497  0.14211  1.0000
  C   C1538     1.0  0.51432  0.55163  0.84561  1.0000
  C   C1539     1.0  0.68782  0.40340  0.37314  1.0000
  C   C1540     1.0  0.62112  0.40568  0.30268  1.0000
  C   C1541     1.0  0.51378  0.53246  0.84097  1.0000
  C   C1542     1.0  0.52237  0.53996  0.82028  1.0000
  C   C1543     1.0  0.52263  0.54951  0.82257  1.0000
  H   H1526     1.0  0.50782  0.47219  0.44132  1.0000
  N   N123      1.0  0.50615  0.50287  0.40315  1.0000
  H   H1527     1.0  0.52882  0.53840  0.80265  1.0000
  H   H1528     1.0  0.50489  0.53207  0.43275  1.0000
  C   C1544     1.0  0.52012  0.53364  0.40114  1.0000
  C   C1545     1.0  0.51088  0.53566  0.40459  1.0000
  C   C1546     1.0  0.50941  0.54247  0.37208  1.0000
  C   C1547     1.0  0.51725  0.54747  0.33634  1.0000
  C   C1548     1.0  0.52641  0.54524  0.33253  1.0000
  C   C1549     1.0  0.52782  0.53826  0.36467  1.0000
  S   S536      1.0  0.50819  0.49061  0.30552  1.0000
  H   H1529     1.0  0.51864  0.45049  0.27255  1.0000
  H   H1530     1.0  0.53250  0.54908  0.30489  1.0000
  H   H1531     1.0  0.53497  0.53675  0.36177  1.0000
  S   S537      1.0  0.54039  0.42527  0.22376  1.0000
  H   H1532     1.0  0.58872  0.43948  0.85242  1.0000
  H   H1533     1.0  0.56623  0.49343  0.49312  1.0000
  C   C1550     1.0  0.51345  0.48741  0.34408  1.0000
  H   H1534     1.0  0.62112  0.43644  0.72516  1.0000
  C   C1551     1.0  0.61087  0.44762  0.77801  1.0000
  Fe  Fe266     1.0  0.54347  0.43024  0.15667  1.0000
  N   N124      1.0  0.61024  0.48700  0.16600  1.0000
  C   C1552     1.0  0.60501  0.49067  0.19369  1.0000
  C   C1553     1.0  0.60825  0.48764  0.13049  1.0000
  C   C1554     1.0  0.59770  0.49532  0.18576  1.0000
  C   C1555     1.0  0.60096  0.49219  0.12166  1.0000
  C   C1556     1.0  0.59565  0.49605  0.14956  1.0000
  C   C1557     1.0  0.61760  0.48179  0.17553  1.0000
  H   H1535     1.0  0.60637  0.48991  0.22241  1.0000
  H   H1536     1.0  0.59348  0.49809  0.20815  1.0000
  H   H1537     1.0  0.59927  0.49247  0.09384  1.0000
  H   H1538     1.0  0.58985  0.49943  0.14349  1.0000
  H   H1539     1.0  0.62091  0.48460  0.19605  1.0000
  N   N125      1.0  0.52868  0.47054  0.29215  1.0000
  C   C1558     1.0  0.52651  0.46099  0.29288  1.0000
  C   C1559     1.0  0.52466  0.47732  0.27189  1.0000
  C   C1560     1.0  0.52033  0.45806  0.27215  1.0000
  C   C1561     1.0  0.51836  0.47463  0.25129  1.0000
  C   C1562     1.0  0.51624  0.46494  0.25125  1.0000
  C   C1563     1.0  0.52682  0.49042  0.37061  1.0000
  H   H1540     1.0  0.52960  0.45559  0.30945  1.0000
  C   C1564     1.0  0.53465  0.42284  0.32501  1.0000
  H   H1541     1.0  0.54973  0.44190  0.02572  1.0000
  H   H1542     1.0  0.69154  0.40564  0.30889  1.0000
  C   C1565     1.0  0.54954  0.41978  0.98604  1.0000
  H   H1543     1.0  0.56141  0.42780  0.18982  1.0000
  H   H1544     1.0  0.63699  0.43012  0.29769  1.0000
  H   H1545     1.0  0.50232  0.54412  0.37525  1.0000
  N   N126      1.0  0.57270  0.52129  0.70842  1.0000
  C   C1566     1.0  0.57055  0.52113  0.67385  1.0000
  C   C1567     1.0  0.57097  0.52861  0.72460  1.0000
  C   C1568     1.0  0.56659  0.52844  0.65454  1.0000
  C   C1569     1.0  0.56683  0.53592  0.70653  1.0000
  C   C1570     1.0  0.56460  0.53580  0.67134  1.0000
  C   C1571     1.0  0.57638  0.51325  0.72908  1.0000
  H   H1546     1.0  0.57168  0.51521  0.66153  1.0000
  H   H1547     1.0  0.57257  0.52872  0.75224  1.0000
  H   H1548     1.0  0.56474  0.52824  0.62747  1.0000
  H   H1549     1.0  0.56515  0.54149  0.72034  1.0000
  H   H1550     1.0  0.56112  0.54124  0.65756  1.0000
  H   H1551     1.0  0.57906  0.51490  0.75333  1.0000
  H   H1552     1.0  0.57037  0.50643  0.74394  1.0000
  H   H1553     1.0  0.58253  0.51187  0.70720  1.0000
  N   N127      1.0  0.53748  0.41418  0.32917  1.0000
  H   H1554     1.0  0.53355  0.44805  0.87251  1.0000
  C   C1572     1.0  0.67521  0.41556  0.36219  1.0000
  C   C1573     1.0  0.52870  0.40641  0.07300  1.0000
  C   C1574     1.0  0.62242  0.42212  0.30676  1.0000
  H   H1555     1.0  0.51936  0.47188  0.55394  1.0000
  C   C1575     1.0  0.50862  0.55786  0.42554  1.0000
  S   S538      1.0  0.50246  0.57651  0.92777  1.0000
  H   H1556     1.0  0.51133  0.46275  0.23553  1.0000
  C   C1576     1.0  0.68101  0.41368  0.32864  1.0000
  C   C1577     1.0  0.53870  0.48026  0.62595  1.0000
  C   C1578     1.0  0.50309  0.44045  0.74326  1.0000
  H   H1557     1.0  0.60857  0.42319  0.80695  1.0000
  Fe  Fe267     1.0  0.54480  0.41159  0.21753  1.0000
  N   N128      1.0  0.61311  0.43878  0.77904  1.0000
  C   C1579     1.0  0.53212  0.45215  0.84465  1.0000
  C   C1580     1.0  0.58146  0.52193  0.38506  1.0000
  H   H1558     1.0  0.53037  0.47164  0.34754  1.0000
  H   H1559     1.0  0.52783  0.57311  0.31606  1.0000
  H   H1560     1.0  0.61908  0.42804  0.31180  1.0000
  C   C1581     1.0  0.69214  0.41472  0.84607  1.0000
  H   H1561     1.0  0.57449  0.52433  0.39234  1.0000
  H   H1562     1.0  0.68747  0.41971  0.84034  1.0000
  Fe  Fe268     1.0  0.53580  0.42651  0.80706  1.0000
  H   H1563     1.0  0.53848  0.48136  0.30276  1.0000
  C   C1582     1.0  0.54671  0.42793  0.96587  1.0000
  H   H1564     1.0  0.53497  0.49033  0.58001  1.0000
  C   C1583     1.0  0.52112  0.43950  0.75770  1.0000
  N   N129      1.0  0.63105  0.40698  0.29393  1.0000
  C   C1584     1.0  0.50473  0.43137  0.76250  1.0000
  S   S539      1.0  0.66752  0.41354  0.77354  1.0000
  H   H1565     1.0  0.56949  0.51132  0.45940  1.0000
  C   C1585     1.0  0.59779  0.43031  0.83194  1.0000
  H   H1566     1.0  0.58982  0.50929  0.35431  1.0000
  C   C1586     1.0  0.57146  0.49683  0.46266  1.0000
  C   C1587     1.0  0.50570  0.54416  0.86584  1.0000
  C   C1588     1.0  0.57620  0.49114  0.44202  1.0000
  H   H1567     1.0  0.66757  0.42049  0.42670  1.0000
  C   C1589     1.0  0.52557  0.41514  0.06571  1.0000
  H   H1568     1.0  0.52758  0.42336  0.32145  1.0000
  C   C1590     1.0  0.50823  0.47977  0.38046  1.0000
  C   C1591     1.0  0.58288  0.49567  0.40288  1.0000
  H   H1569     1.0  0.64458  0.41659  0.28567  1.0000
  H   H1570     1.0  0.57467  0.48324  0.45621  1.0000
  C   C1592     1.0  0.50248  0.44177  0.22968  1.0000
  C   C1593     1.0  0.52226  0.57726  0.32474  1.0000
  H   H1571     1.0  0.50973  0.55135  0.44532  1.0000
  N   N130      1.0  0.52895  0.47542  0.58695  1.0000
  C   C1594     1.0  0.53433  0.48265  0.59562  1.0000
  C   C1595     1.0  0.52786  0.46572  0.60752  1.0000
  H   H1572     1.0  0.58086  0.40404  0.76366  1.0000
  S   S540      1.0  0.52453  0.41306  0.85190  1.0000
  H   H1573     1.0  0.54967  0.41366  0.97426  1.0000
  H   H1574     1.0  0.52271  0.56107  0.38055  1.0000
  C   C1596     1.0  0.58464  0.50584  0.38477  1.0000
  S   S541      1.0  0.52940  0.40385  0.22685  1.0000
  C   C1597     1.0  0.52476  0.41424  0.99995  1.0000
  C   C1598     1.0  0.51629  0.52015  0.66878  1.0000
  H   H1575     1.0  0.52932  0.55524  0.80677  1.0000
  C   C1599     1.0  0.50777  0.45109  0.82808  1.0000
  H   H1576     1.0  0.51166  0.43269  0.20830  1.0000
  S   S542      1.0  0.55537  0.40826  0.25252  1.0000
  H   H1577     1.0  0.52594  0.58420  0.32753  1.0000
  C   C1600     1.0  0.54095  0.43124  0.32424  1.0000
  C   C1601     1.0  0.57332  0.50697  0.44340  1.0000
  N   N131      1.0  0.51467  0.59113  0.82102  1.0000
  H   H1578     1.0  0.50288  0.42788  0.33690  1.0000
  H   H1579     1.0  0.61412  0.47381  0.19071  1.0000
  H   H1580     1.0  0.50400  0.45608  0.81355  1.0000
  H   H1581     1.0  0.52208  0.52393  0.63998  1.0000
  S   S543      1.0  0.52807  0.42417  0.16029  1.0000
  H   H1582     1.0  0.60882  0.41224  0.31569  1.0000
  H   H1583     1.0  0.56596  0.46554  0.07054  1.0000
  Fe  Fe269     1.0  0.52534  0.41817  0.22778  1.0000
  H   H1584     1.0  0.58655  0.49133  0.38626  1.0000
  H   H1585     1.0  0.60048  0.45506  0.80455  1.0000
  H   H1586     1.0  0.56929  0.48537  0.99797  1.0000
  N   N132      1.0  0.55852  0.47182  0.03103  1.0000
  C   C1602     1.0  0.55404  0.47371  0.95947  1.0000
  N   N133      1.0  0.57968  0.51131  0.40462  1.0000
  H   H1587     1.0  0.58422  0.52397  0.35133  1.0000
  C   C1603     1.0  0.55222  0.42737  0.03415  1.0000
  C   C1604     1.0  0.60668  0.43018  0.80536  1.0000
  C   C1605     1.0  0.50847  0.43466  0.86258  1.0000
  H   H1588     1.0  0.50224  0.44551  0.19978  1.0000
  C   C1606     1.0  0.50784  0.43452  0.23442  1.0000
  H   H1589     1.0  0.52464  0.41888  0.08815  1.0000
  C   C1607     1.0  0.62236  0.43842  0.75145  1.0000
  S   S544      1.0  0.51398  0.41978  0.28081  1.0000
  H   H1590     1.0  0.53052  0.48118  0.52442  1.0000
  N   N134      1.0  0.58188  0.44084  0.11117  1.0000
  C   C1608     1.0  0.58808  0.44263  0.13241  1.0000
  C   C1609     1.0  0.57240  0.43560  0.13136  1.0000
  C   C1610     1.0  0.58480  0.43920  0.17498  1.0000
  C   C1611     1.0  0.56892  0.43195  0.17388  1.0000
  C   C1612     1.0  0.57515  0.43379  0.19579  1.0000
  C   C1613     1.0  0.58518  0.44500  0.06668  1.0000
  H   H1591     1.0  0.59560  0.44677  0.11662  1.0000
  H   H1592     1.0  0.56744  0.43432  0.11456  1.0000
  H   H1593     1.0  0.58971  0.44083  0.19159  1.0000
  C   C1614     1.0  0.50792  0.42941  0.27314  1.0000
  H   H1594     1.0  0.57246  0.43104  0.22879  1.0000
  H   H1595     1.0  0.58233  0.43962  0.05302  1.0000
  H   H1596     1.0  0.58250  0.45174  0.05749  1.0000
  H   H1597     1.0  0.59330  0.44697  0.05358  1.0000
  Fe  Fe270     1.0  0.53340  0.41049  0.15849  1.0000
  H   H1598     1.0  0.53357  0.46007  0.84210  1.0000
  H   H1599     1.0  0.56515  0.48733  0.93470  1.0000
  H   H1600     1.0  0.58070  0.40910  0.80486  1.0000
  H   H1601     1.0  0.55512  0.43723  0.32708  1.0000
  H   H1602     1.0  0.52947  0.59493  0.81905  1.0000
  H   H1603     1.0  0.55238  0.47444  0.93131  1.0000
  C   C1615     1.0  0.53755  0.47039  0.64740  1.0000
  H   H1604     1.0  0.52501  0.45524  0.73003  1.0000
  H   H1605     1.0  0.62363  0.48271  0.14745  1.0000
  C   C1616     1.0  0.66298  0.40638  0.85656  1.0000
  H   H1606     1.0  0.51832  0.46940  0.75094  1.0000
  C   C1617     1.0  0.51066  0.51074  0.67612  1.0000
  H   H1607     1.0  0.61211  0.48436  0.10929  1.0000
  H   H1608     1.0  0.52363  0.45997  0.60063  1.0000
  C   C1618     1.0  0.51713  0.47798  0.69454  1.0000
  H   H1609     1.0  0.62789  0.44557  0.73993  1.0000
  C   C1619     1.0  0.56124  0.48095  0.96123  1.0000
  H   H1610     1.0  0.52060  0.48392  0.55854  1.0000
  H   H1611     1.0  0.53879  0.43816  0.32001  1.0000
  H   H1612     1.0  0.61603  0.45446  0.75783  1.0000
  H   H1613     1.0  0.67271  0.41303  0.45954  1.0000
  N   N135      1.0  0.55207  0.41951  0.02017  1.0000
  H   H1614     1.0  0.52096  0.42567  0.02424  1.0000
  C   C1620     1.0  0.60206  0.44801  0.80429  1.0000
  C   C1621     1.0  0.50344  0.44102  0.84476  1.0000
  S   S545      1.0  0.51286  0.48914  0.63107  1.0000
  C   C1622     1.0  0.55523  0.41101  0.04052  1.0000
  H   H1615     1.0  0.68025  0.41658  0.29887  1.0000
  C   C1623     1.0  0.61667  0.41325  0.30906  1.0000
  H   H1616     1.0  0.51922  0.51273  0.35905  1.0000
  C   C1624     1.0  0.53490  0.47336  0.31525  1.0000
  H   H1617     1.0  0.56486  0.47778  0.06924  1.0000
  H   H1618     1.0  0.69833  0.41607  0.78302  1.0000
  H   H1619     1.0  0.50851  0.51767  0.36659  1.0000
  S   S546      1.0  0.64649  0.40772  0.73603  1.0000
  C   C1625     1.0  0.52284  0.49261  0.33888  1.0000
  H   H1620     1.0  0.50527  0.42679  0.87515  1.0000
  H   H1621     1.0  0.58683  0.52599  0.39541  1.0000
  Fe  Fe271     1.0  0.53118  0.41669  0.89751  1.0000
  C   C1626     1.0  0.54912  0.46548  0.99381  1.0000
  S   S547      1.0  0.54203  0.43041  0.85315  1.0000
  H   H1622     1.0  0.52549  0.40746  0.31397  1.0000
  C   C1627     1.0  0.51940  0.44854  0.73881  1.0000
  C   C1628     1.0  0.51045  0.44900  0.73163  1.0000
  C   C1629     1.0  0.50288  0.43183  0.30683  1.0000
  C   C1630     1.0  0.52035  0.47660  0.72840  1.0000
  C   C1631     1.0  0.52224  0.59038  0.84081  1.0000
  C   C1632     1.0  0.51117  0.51098  0.36495  1.0000
  H   H1623     1.0  0.51297  0.47186  0.68996  1.0000
  C   C1633     1.0  0.50746  0.51936  0.73691  1.0000
  H   H1624     1.0  0.55998  0.42133  0.33635  1.0000
  H   H1625     1.0  0.50919  0.45594  0.71706  1.0000
  C   C1634     1.0  0.51716  0.45465  0.82899  1.0000
  H   H1626     1.0  0.66234  0.40741  0.44821  1.0000
  H   H1627     1.0  0.51496  0.42387  0.78429  1.0000
  H   H1628     1.0  0.54457  0.42803  0.93918  1.0000
  H   H1629     1.0  0.54268  0.48605  0.63350  1.0000
  C   C1635     1.0  0.59549  0.43928  0.83135  1.0000
  C   C1636     1.0  0.51595  0.56341  0.38879  1.0000
  H   H1630     1.0  0.63140  0.40338  0.62538  1.0000
  H   H1631     1.0  0.51579  0.50765  0.43316  1.0000
  S   S548      1.0  0.51486  0.56366  0.84851  1.0000
  H   H1632     1.0  0.53121  0.45536  0.65458  1.0000
  H   H1633     1.0  0.65687  0.41303  0.58558  1.0000
  S   S549      1.0  0.52272  0.41960  0.95374  1.0000
  N   N136      1.0  0.52205  0.44837  0.84635  1.0000
  H   H1634     1.0  0.50472  0.58065  0.35290  1.0000
  H   H1635     1.0  0.52701  0.49839  0.31053  1.0000
  C   C1637     1.0  0.52346  0.41896  0.02956  1.0000
  C   C1638     1.0  0.54634  0.41352  0.33439  1.0000
  C   C1639     1.0  0.53214  0.46306  0.63803  1.0000
  H   H1636     1.0  0.57147  0.40997  0.78030  1.0000
  H   H1637     1.0  0.54459  0.44229  0.96455  1.0000
  H   H1638     1.0  0.51917  0.57898  0.29935  1.0000
  C   C1640     1.0  0.69739  0.40317  0.89293  1.0000
  S   S550      1.0  0.65347  0.40552  0.34053  1.0000
  S   S551      1.0  0.62504  0.41074  0.78049  1.0000
  N   N137      1.0  0.50371  0.50572  0.71315  1.0000
  C   C1641     1.0  0.68733  0.40754  0.33426  1.0000
  H   H1639     1.0  0.50641  0.52250  0.76145  1.0000
  S   S552      1.0  0.50121  0.57646  0.27333  1.0000
  H   H1640     1.0  0.52174  0.43346  0.87635  1.0000
  C   C1642     1.0  0.53088  0.40543  0.32953  1.0000
  C   C1643     1.0  0.69175  0.41000  0.88582  1.0000
  H   H1641     1.0  0.50843  0.60059  0.85127  1.0000
  H   H1642     1.0  0.50996  0.50902  0.33852  1.0000
  C   C1644     1.0  0.66855  0.40614  0.81892  1.0000
  H   H1643     1.0  0.51940  0.58182  0.78686  1.0000
  C   C1645     1.0  0.51783  0.43848  0.86305  1.0000
  H   H1644     1.0  0.60209  0.40721  0.40572  1.0000
  C   C1646     1.0  0.66931  0.41319  0.43525  1.0000
  H   H1645     1.0  0.55253  0.40298  0.76426  1.0000
  C   C1647     1.0  0.68194  0.40547  0.40599  1.0000
  H   H1646     1.0  0.56334  0.41246  0.02891  1.0000
  H   H1647     1.0  0.68670  0.41122  0.91122  1.0000
  H   H1648     1.0  0.51204  0.50741  0.65224  1.0000
  C   C1648     1.0  0.70381  0.40581  0.82208  1.0000
  Fe  Fe272     1.0  0.50153  0.56062  0.29844  1.0000
  H   H1649     1.0  0.62657  0.40349  0.69219  1.0000
  H   H1650     1.0  0.50759  0.49407  0.49780  1.0000
  H   H1651     1.0  0.55188  0.40423  0.03559  1.0000
  C   C1649     1.0  0.52793  0.40553  0.00714  1.0000
  H   H1652     1.0  0.50690  0.58304  0.75227  1.0000
  C   C1650     1.0  0.57613  0.40517  0.79098  1.0000
  Fe  Fe273     1.0  0.50192  0.56529  0.89507  1.0000
  H   H1653     1.0  0.52056  0.59283  0.86804  1.0000
  H   H1654     1.0  0.52056  0.46247  0.81532  1.0000
  C   C1651     1.0  0.50136  0.59796  0.80878  1.0000
  C   C1652     1.0  0.50546  0.53462  0.86367  1.0000
  C   C1653     1.0  0.69821  0.41263  0.81392  1.0000
  H   H1655     1.0  0.54855  0.40663  0.33787  1.0000
  Fe  Fe274     1.0  0.53653  0.40500  0.83865  1.0000
  H   H1656     1.0  0.70837  0.40408  0.79701  1.0000
  C   C1654     1.0  0.50478  0.49463  0.47248  1.0000
  N   N138      1.0  0.67582  0.41157  0.40016  1.0000
  H   H1657     1.0  0.50262  0.49041  0.73416  1.0000
  C   C1655     1.0  0.50212  0.50986  0.74349  1.0000
  H   H1658     1.0  0.50099  0.47569  0.38497  1.0000
  Fe  Fe275     1.0  0.62517  0.40281  0.46308  1.0000
  C   C1656     1.0  0.50081  0.59295  0.78111  1.0000
  C   C1657     1.0  0.59484  0.40271  0.42471  1.0000
  H   H1659     1.0  0.53082  0.93860  0.50125  1.0000
  C   C1658     1.0  0.51177  0.92125  0.09807  1.0000
  H   H1660     1.0  0.52870  0.99386  0.72187  1.0000
  H   H1661     1.0  0.50455  0.89457  0.14270  1.0000
  Fe  Fe276     1.0  0.54372  0.98131  0.40970  1.0000
  S   S553      1.0  0.53223  0.98181  0.46435  1.0000
  S   S554      1.0  0.54317  0.96708  0.39243  1.0000
  Fe  Fe277     1.0  0.53223  0.99654  0.42458  1.0000
  H   H1662     1.0  0.53663  0.94094  0.44730  1.0000
  Fe  Fe278     1.0  0.54445  0.99021  0.47862  1.0000
  S   S555      1.0  0.54150  0.98585  0.54722  1.0000
  S   S556      1.0  0.54287  0.99559  0.36929  1.0000
  S   S557      1.0  0.55622  0.98877  0.42640  1.0000
  H   H1663     1.0  0.51600  0.96432  0.33462  1.0000
  C   C1659     1.0  0.55753  0.99677  0.55770  1.0000
  H   H1664     1.0  0.54531  0.95919  0.67855  1.0000
  Fe  Fe279     1.0  0.54816  0.98734  0.80891  1.0000
  S   S558      1.0  0.54257  0.98948  0.75615  1.0000
  S   S559      1.0  0.54430  0.97202  0.85525  1.0000
  H   H1665     1.0  0.52158  0.89609  0.24821  1.0000
  C   C1660     1.0  0.50615  0.99647  0.76714  1.0000
  C   C1661     1.0  0.50873  0.98627  0.61103  1.0000
  H   H1666     1.0  0.52287  0.93847  0.91693  1.0000
  H   H1667     1.0  0.50933  0.97707  0.80555  1.0000
  S   S560      1.0  0.51874  0.00160  0.41947  1.0000
  Fe  Fe280     1.0  0.53776  0.00203  0.77360  1.0000
  H   H1668     1.0  0.52086  0.93482  0.44008  1.0000
  C   C1662     1.0  0.53534  0.96204  0.85647  1.0000
  C   C1663     1.0  0.53170  0.96248  0.82400  1.0000
  C   C1664     1.0  0.52517  0.95422  0.82443  1.0000
  C   C1665     1.0  0.52191  0.94551  0.85789  1.0000
  C   C1666     1.0  0.52529  0.94514  0.89101  1.0000
  C   C1667     1.0  0.53207  0.95334  0.89002  1.0000
  H   H1669     1.0  0.53407  0.96908  0.79805  1.0000
  H   H1670     1.0  0.52252  0.95460  0.79883  1.0000
  C   C1668     1.0  0.56042  0.97668  0.69044  1.0000
  H   H1671     1.0  0.53486  0.95290  0.91529  1.0000
  H   H1672     1.0  0.54403  0.99150  0.67252  1.0000
  H   H1673     1.0  0.55180  0.95918  0.80105  1.0000
  S   S561      1.0  0.54229  0.99919  0.82935  1.0000
  S   S562      1.0  0.56436  0.00186  0.65439  1.0000
  C   C1669     1.0  0.52085  0.99253  0.73226  1.0000
  C   C1670     1.0  0.51521  0.98570  0.72102  1.0000
  C   C1671     1.0  0.50698  0.91940  0.13970  1.0000
  H   H1674     1.0  0.56291  0.98164  0.65941  1.0000
  H   H1675     1.0  0.51720  0.90688  0.23068  1.0000
  C   C1672     1.0  0.54779  0.99128  0.57499  1.0000
  C   C1673     1.0  0.53284  0.94404  0.47040  1.0000
  C   C1674     1.0  0.51857  0.94103  0.44763  1.0000
  C   C1675     1.0  0.54784  0.99302  0.64067  1.0000
  H   H1676     1.0  0.51323  0.96180  0.91641  1.0000
  S   S563      1.0  0.56316  0.99755  0.77202  1.0000
  H   H1677     1.0  0.51082  0.89820  0.28040  1.0000
  C   C1676     1.0  0.55766  0.99830  0.62374  1.0000
  H   H1678     1.0  0.53544  0.98522  0.63023  1.0000
  H   H1679     1.0  0.52272  0.98378  0.82567  1.0000
  C   C1677     1.0  0.53548  0.96168  0.36854  1.0000
  C   C1678     1.0  0.52825  0.96592  0.35737  1.0000
  C   C1679     1.0  0.52165  0.96097  0.34243  1.0000
  C   C1680     1.0  0.52225  0.95174  0.33778  1.0000
  C   C1681     1.0  0.52976  0.94766  0.34737  1.0000
  C   C1682     1.0  0.53633  0.95261  0.36252  1.0000
  H   H1680     1.0  0.52773  0.97303  0.36044  1.0000
  C   C1683     1.0  0.54727  0.96711  0.67549  1.0000
  S   S564      1.0  0.51361  0.92364  0.16936  1.0000
  H   H1681     1.0  0.54204  0.94933  0.37006  1.0000
  S   S565      1.0  0.51364  0.93541  0.85634  1.0000
  N   N139      1.0  0.55269  0.96867  0.70312  1.0000
  C   C1684     1.0  0.51187  0.99304  0.40511  1.0000
  H   H1682     1.0  0.54046  0.96975  0.68255  1.0000
  H   H1683     1.0  0.52568  0.95914  0.48293  1.0000
  Fe  Fe281     1.0  0.50782  0.93212  0.30333  1.0000
  H   H1684     1.0  0.51924  0.92567  0.08420  1.0000
  C   C1685     1.0  0.56201  0.97240  0.75750  1.0000
  H   H1685     1.0  0.51136  0.98575  0.63686  1.0000
  H   H1686     1.0  0.56543  0.97399  0.77914  1.0000
  H   H1687     1.0  0.51442  0.98380  0.87258  1.0000
  C   C1686     1.0  0.51492  0.89889  0.24854  1.0000
  C   C1687     1.0  0.56513  0.97872  0.71745  1.0000
  H   H1688     1.0  0.56136  0.99814  0.52588  1.0000
  S   S566      1.0  0.50547  0.90758  0.94356  1.0000
  C   C1688     1.0  0.50897  0.97720  0.39491  1.0000
  C   C1689     1.0  0.50706  0.91728  0.07430  1.0000
  H   H1689     1.0  0.51081  0.96361  0.47060  1.0000
  H   H1690     1.0  0.51873  0.98152  0.70332  1.0000
  C   C1690     1.0  0.51176  0.99020  0.53870  1.0000
  H   H1691     1.0  0.55166  0.97120  0.64308  1.0000
  H   H1692     1.0  0.57105  0.98528  0.70740  1.0000
  H   H1693     1.0  0.51107  0.97046  0.39458  1.0000
  C   C1691     1.0  0.51865  0.97928  0.85790  1.0000
  C   C1692     1.0  0.55431  0.96410  0.76986  1.0000
  H   H1694     1.0  0.53045  0.94065  0.34353  1.0000
  H   H1695     1.0  0.54338  0.95612  0.75269  1.0000
  S   S567      1.0  0.51396  0.92008  0.28398  1.0000
  N   N140      1.0  0.50190  0.98750  0.54519  1.0000
  C   C1693     1.0  0.51477  0.98440  0.40355  1.0000
  H   H1696     1.0  0.50125  0.00146  0.39610  1.0000
  N   N141      1.0  0.51200  0.97029  0.86043  1.0000
  H   H1697     1.0  0.52143  0.98318  0.40940  1.0000
  S   S568      1.0  0.51312  0.94553  0.32201  1.0000
  H   H1698     1.0  0.51499  0.90369  0.17149  1.0000
  H   H1699     1.0  0.53827  0.95065  0.46792  1.0000
  C   C1694     1.0  0.54961  0.96240  0.74229  1.0000
  C   C1695     1.0  0.54298  0.98946  0.61653  1.0000
  C   C1696     1.0  0.51286  0.95716  0.46459  1.0000
  N   N142      1.0  0.50879  0.89337  0.23159  1.0000
  C   C1697     1.0  0.51628  0.99761  0.75677  1.0000
  H   H1700     1.0  0.51092  0.91862  0.04251  1.0000
  H   H1701     1.0  0.52315  0.99165  0.56634  1.0000
  H   H1702     1.0  0.52426  0.97752  0.87260  1.0000
  C   C1698     1.0  0.50983  0.96194  0.89298  1.0000
  C   C1699     1.0  0.50343  0.99469  0.39583  1.0000
  C   C1700     1.0  0.50243  0.88456  0.25603  1.0000
  Fe  Fe282     1.0  0.50671  0.92300  0.23494  1.0000
  H   H1703     1.0  0.50622  0.93928  0.42570  1.0000
  Fe  Fe283     1.0  0.55678  0.00058  0.72021  1.0000
  C   C1701     1.0  0.52125  0.95460  0.47153  1.0000
  H   H1704     1.0  0.50259  0.00051  0.78543  1.0000
  C   C1702     1.0  0.51533  0.98958  0.57151  1.0000
  C   C1703     1.0  0.50501  0.98421  0.73319  1.0000
  C   C1704     1.0  0.51022  0.94347  0.43974  1.0000
  Fe  Fe284     1.0  0.50317  0.92196  0.90784  1.0000
  C   C1705     1.0  0.50976  0.89683  0.19116  1.0000
  N   N143      1.0  0.52406  0.94667  0.46264  1.0000
  C   C1706     1.0  0.50778  0.97041  0.83073  1.0000
  C   C1707     1.0  0.56246  0.00018  0.58210  1.0000
  C   C1708     1.0  0.50355  0.95331  0.89549  1.0000
  C   C1709     1.0  0.50391  0.89166  0.17464  1.0000
  H   H1705     1.0  0.51692  0.99284  0.50799  1.0000
  H   H1706     1.0  0.50187  0.88169  0.28787  1.0000
  H   H1707     1.0  0.53481  0.00243  0.29776  1.0000
  S   S569      1.0  0.50177  0.93577  0.25088  1.0000
  H   H1708     1.0  0.50221  0.94656  0.92025  1.0000
  C   C1710     1.0  0.50735  0.95159  0.44835  1.0000
  C   C1711     1.0  0.50157  0.96191  0.83197  1.0000
  H   H1709     1.0  0.50102  0.95374  0.44144  1.0000
  H   H1710     1.0  0.50239  0.98446  0.49035  1.0000
  Fe  Fe285     1.0  0.75867  0.29467  0.27410  1.0000
  H   H1711     1.0  0.76756  0.27412  0.25507  1.0000
  C   C1712     1.0  0.83762  0.39568  0.34411  1.0000
  Fe  Fe286     1.0  0.77802  0.30709  0.27661  1.0000
  S   S570      1.0  0.77764  0.32018  0.22767  1.0000
  S   S571      1.0  0.79193  0.30856  0.29550  1.0000
  Fe  Fe287     1.0  0.76168  0.31663  0.26248  1.0000
  H   H1712     1.0  0.75423  0.26193  0.25137  1.0000
  Fe  Fe288     1.0  0.77309  0.30959  0.19708  1.0000
  S   S572      1.0  0.77917  0.31305  0.12932  1.0000
  S   S573      1.0  0.76202  0.30387  0.31326  1.0000
  S   S574      1.0  0.77476  0.29659  0.24248  1.0000
  Fe  Fe289     1.0  0.78147  0.36962  0.33442  1.0000
  S   S575      1.0  0.79675  0.37914  0.30742  1.0000
  S   S576      1.0  0.77838  0.35309  0.35599  1.0000
  Fe  Fe290     1.0  0.77213  0.38684  0.31950  1.0000
  C   C1713     1.0  0.75202  0.32920  0.97765  1.0000
  Fe  Fe291     1.0  0.79129  0.38735  0.25883  1.0000
  S   S577      1.0  0.79899  0.38928  0.19303  1.0000
  Fe  Fe292     1.0  0.79129  0.38912  0.34210  1.0000
  H   H1713     1.0  0.77979  0.35272  0.07255  1.0000
  S   S578      1.0  0.77655  0.37702  0.28364  1.0000
  S   S579      1.0  0.77618  0.37871  0.37305  1.0000
  Fe  Fe293     1.0  0.78283  0.38731  0.94679  1.0000
  S   S580      1.0  0.77177  0.37608  0.93733  1.0000
  C   C1714     1.0  0.84033  0.39448  0.45590  1.0000
  Fe  Fe294     1.0  0.77188  0.38144  0.03734  1.0000
  S   S581      1.0  0.76031  0.36969  0.03533  1.0000
  S   S582      1.0  0.76859  0.38359  0.09886  1.0000
  Fe  Fe295     1.0  0.77261  0.36597  0.99486  1.0000
  S   S583      1.0  0.77367  0.35021  0.00669  1.0000
  Fe  Fe296     1.0  0.76012  0.38069  0.97865  1.0000
  C   C1715     1.0  0.87571  0.36457  0.68443  1.0000
  S   S584      1.0  0.78436  0.37673  0.00186  1.0000
  S   S585      1.0  0.77104  0.39282  0.98306  1.0000
  Fe  Fe297     1.0  0.76442  0.30016  0.90598  1.0000
  S   S586      1.0  0.76398  0.30604  0.95751  1.0000
  S   S587      1.0  0.77765  0.30767  0.84878  1.0000
  C   C1716     1.0  0.78587  0.33569  0.91568  1.0000
  H   H1714     1.0  0.78555  0.29188  0.11816  1.0000
  C   C1717     1.0  0.88325  0.37290  0.72343  1.0000
  H   H1715     1.0  0.78950  0.28100  0.11222  1.0000
  Fe  Fe298     1.0  0.92114  0.39773  0.87330  1.0000
  C   C1718     1.0  0.92360  0.39614  0.10192  1.0000
  S   S588      1.0  0.85481  0.39730  0.48957  1.0000
  H   H1716     1.0  0.95338  0.39861  0.98163  1.0000
  S   S589      1.0  0.75816  0.28423  0.94639  1.0000
  C   C1719     1.0  0.85894  0.39658  0.77390  1.0000
  N   N144      1.0  0.87751  0.37298  0.69897  1.0000
  H   H1717     1.0  0.85161  0.38348  0.89159  1.0000
  H   H1718     1.0  0.81820  0.32357  0.70174  1.0000
  H   H1719     1.0  0.75663  0.34913  0.27489  1.0000
  H   H1720     1.0  0.83626  0.37319  0.69117  1.0000
  H   H1721     1.0  0.83824  0.38829  0.35795  1.0000
  S   S590      1.0  0.92598  0.38874  0.25145  1.0000
  H   H1722     1.0  0.81703  0.39046  0.32025  1.0000
  Fe  Fe299     1.0  0.91187  0.39113  0.28778  1.0000
  S   S591      1.0  0.89879  0.38014  0.33858  1.0000
  C   C1720     1.0  0.84045  0.39332  0.58957  1.0000
  H   H1723     1.0  0.78979  0.34893  0.93007  1.0000
  H   H1724     1.0  0.81437  0.38806  0.87003  1.0000
  H   H1725     1.0  0.87651  0.34375  0.33885  1.0000
  Fe  Fe300     1.0  0.82366  0.33963  0.40579  1.0000
  S   S592      1.0  0.82068  0.34380  0.46321  1.0000
  S   S593      1.0  0.80930  0.33355  0.39517  1.0000
  Fe  Fe301     1.0  0.84576  0.34967  0.38012  1.0000
  S   S594      1.0  0.84421  0.35458  0.43461  1.0000
  S   S595      1.0  0.86064  0.35413  0.33061  1.0000
  Fe  Fe302     1.0  0.83440  0.33962  0.47043  1.0000
  S   S596      1.0  0.83489  0.33176  0.53363  1.0000
  Fe  Fe303     1.0  0.83065  0.35842  0.42413  1.0000
  S   S597      1.0  0.82632  0.37230  0.42889  1.0000
  S   S598      1.0  0.83679  0.33407  0.41626  1.0000
  S   S599      1.0  0.83286  0.35480  0.36632  1.0000
  S   S600      1.0  0.75580  0.32976  0.26850  1.0000
  H   H1726     1.0  0.80135  0.31450  0.71264  1.0000
  H   H1727     1.0  0.75886  0.31814  0.00328  1.0000
  C   C1721     1.0  0.86175  0.34119  0.47744  1.0000
  H   H1728     1.0  0.81681  0.30619  0.81977  1.0000
  H   H1729     1.0  0.84903  0.40029  0.86754  1.0000
  H   H1730     1.0  0.81150  0.39353  0.43747  1.0000
  C   C1722     1.0  0.82069  0.38862  0.84354  1.0000
  H   H1731     1.0  0.76707  0.32686  0.13566  1.0000
  H   H1732     1.0  0.89932  0.38051  0.17840  1.0000
  C   C1723     1.0  0.86463  0.33760  0.41431  1.0000
  Fe  Fe304     1.0  0.91145  0.38644  0.96365  1.0000
  S   S601      1.0  0.91341  0.38170  0.90753  1.0000
  S   S602      1.0  0.91382  0.37877  0.02326  1.0000
  C   C1724     1.0  0.88019  0.40199  0.88438  1.0000
  H   H1733     1.0  0.88939  0.38053  0.75847  1.0000
  C   C1725     1.0  0.81356  0.30787  0.79569  1.0000
  Fe  Fe305     1.0  0.89941  0.38630  0.90372  1.0000
  S   S603      1.0  0.88515  0.37987  0.89315  1.0000
  C   C1726     1.0  0.89533  0.38633  0.11072  1.0000
  C   C1727     1.0  0.79962  0.30500  0.77260  1.0000
  S   S604      1.0  0.89689  0.38957  0.96312  1.0000
  H   H1734     1.0  0.88269  0.36393  0.66474  1.0000
  Fe  Fe306     1.0  0.85232  0.35199  0.78597  1.0000
  S   S605      1.0  0.85100  0.36318  0.73246  1.0000
  S   S606      1.0  0.86708  0.35393  0.79833  1.0000
  Fe  Fe307     1.0  0.83137  0.33988  0.80387  1.0000
  S   S607      1.0  0.82858  0.35051  0.75239  1.0000
  S   S608      1.0  0.82013  0.32599  0.84844  1.0000
  Fe  Fe308     1.0  0.84378  0.35083  0.71566  1.0000
  S   S609      1.0  0.84847  0.35433  0.64689  1.0000
  Fe  Fe309     1.0  0.83606  0.36191  0.77298  1.0000
  S   S610      1.0  0.83226  0.37632  0.77066  1.0000
  S   S611      1.0  0.84632  0.33948  0.76588  1.0000
  S   S612      1.0  0.83760  0.35141  0.82784  1.0000
  H   H1735     1.0  0.76681  0.34745  0.87680  1.0000
  H   H1736     1.0  0.82725  0.38513  0.30516  1.0000
  S   S613      1.0  0.94658  0.40068  0.29333  1.0000
  H   H1737     1.0  0.93581  0.38384  0.87480  1.0000
  H   H1738     1.0  0.75166  0.36932  0.40556  1.0000
  H   H1739     1.0  0.88925  0.39549  0.33128  1.0000
  C   C1728     1.0  0.77961  0.33071  0.90014  1.0000
  N   N145      1.0  0.76902  0.34232  0.12586  1.0000
  H   H1740     1.0  0.89305  0.37843  0.12564  1.0000
  C   C1729     1.0  0.84265  0.38414  0.77078  1.0000
  C   C1730     1.0  0.84395  0.39434  0.75655  1.0000
  H   H1741     1.0  0.87245  0.35766  0.71078  1.0000
  C   C1731     1.0  0.93960  0.38617  0.93961  1.0000
  C   C1732     1.0  0.85775  0.38641  0.78713  1.0000
  C   C1733     1.0  0.84964  0.38019  0.78540  1.0000
  C   C1734     1.0  0.77223  0.34415  0.88723  1.0000
  H   H1742     1.0  0.87192  0.39494  0.69428  1.0000
  H   H1743     1.0  0.86298  0.38332  0.79962  1.0000
  H   H1744     1.0  0.84867  0.37232  0.79682  1.0000
  H   H1745     1.0  0.76612  0.33408  0.08813  1.0000
  H   H1746     1.0  0.80002  0.29692  0.83148  1.0000
  C   C1735     1.0  0.88038  0.37259  0.86639  1.0000
  C   C1736     1.0  0.88589  0.36740  0.84537  1.0000
  C   C1737     1.0  0.88165  0.36162  0.82543  1.0000
  C   C1738     1.0  0.87190  0.36105  0.82556  1.0000
  C   C1739     1.0  0.86641  0.36626  0.84645  1.0000
  C   C1740     1.0  0.87061  0.37196  0.86673  1.0000
  H   H1747     1.0  0.89337  0.36770  0.84505  1.0000
  H   H1748     1.0  0.88596  0.35754  0.80986  1.0000
  H   H1749     1.0  0.85889  0.36585  0.84724  1.0000
  H   H1750     1.0  0.86625  0.37587  0.88302  1.0000
  H   H1751     1.0  0.88626  0.35112  0.34704  1.0000
  C   C1741     1.0  0.77840  0.34938  0.90241  1.0000
  S   S614      1.0  0.75688  0.38964  0.32743  1.0000
  H   H1752     1.0  0.75704  0.37362  0.29262  1.0000
  C   C1742     1.0  0.77334  0.35969  0.11497  1.0000
  H   H1753     1.0  0.75228  0.38983  0.13353  1.0000
  C   C1743     1.0  0.84381  0.39393  0.86894  1.0000
  H   H1754     1.0  0.83384  0.31927  0.72992  1.0000
  H   H1755     1.0  0.85692  0.34037  0.50742  1.0000
  C   C1744     1.0  0.83783  0.33828  0.56595  1.0000
  C   C1745     1.0  0.83626  0.33312  0.60708  1.0000
  C   C1746     1.0  0.83910  0.33799  0.63281  1.0000
  C   C1747     1.0  0.84373  0.34803  0.61739  1.0000
  C   C1748     1.0  0.84524  0.35319  0.57639  1.0000
  C   C1749     1.0  0.84221  0.34838  0.55097  1.0000
  H   H1756     1.0  0.83297  0.32530  0.61884  1.0000
  H   H1757     1.0  0.83807  0.33391  0.66400  1.0000
  H   H1758     1.0  0.84886  0.36094  0.56404  1.0000
  H   H1759     1.0  0.84351  0.35246  0.51950  1.0000
  C   C1750     1.0  0.83357  0.37886  0.44966  1.0000
  C   C1751     1.0  0.83941  0.37445  0.47052  1.0000
  C   C1752     1.0  0.84594  0.38011  0.48292  1.0000
  C   C1753     1.0  0.84648  0.39016  0.47513  1.0000
  C   C1754     1.0  0.95144  0.39564  0.95937  1.0000
  C   C1755     1.0  0.83382  0.38880  0.44357  1.0000
  H   H1760     1.0  0.83881  0.36667  0.47766  1.0000
  H   H1761     1.0  0.85055  0.37669  0.49851  1.0000
  H   H1762     1.0  0.76777  0.27081  0.12180  1.0000
  H   H1763     1.0  0.82913  0.39215  0.42843  1.0000
  H   H1764     1.0  0.84059  0.40221  0.45018  1.0000
  N   N146      1.0  0.77517  0.27820  0.15336  1.0000
  C   C1756     1.0  0.87353  0.38082  0.68810  1.0000
  C   C1757     1.0  0.92016  0.38589  0.11755  1.0000
  C   C1758     1.0  0.91728  0.38061  0.09311  1.0000
  C   C1759     1.0  0.91769  0.38555  0.05312  1.0000
  C   C1760     1.0  0.90184  0.40238  0.11037  1.0000
  H   H1765     1.0  0.87556  0.39540  0.90868  1.0000
  H   H1766     1.0  0.91977  0.38202  0.14830  1.0000
  H   H1767     1.0  0.91467  0.37269  0.10532  1.0000
  H   H1768     1.0  0.77764  0.36701  0.09578  1.0000
  H   H1769     1.0  0.77789  0.33446  0.09564  1.0000
  C   C1761     1.0  0.88791  0.37430  0.33293  1.0000
  C   C1762     1.0  0.87931  0.37095  0.36659  1.0000
  C   C1763     1.0  0.87073  0.36529  0.36529  1.0000
  C   C1764     1.0  0.87070  0.36273  0.33058  1.0000
  C   C1765     1.0  0.87924  0.36635  0.29636  1.0000
  C   C1766     1.0  0.88779  0.37219  0.29736  1.0000
  H   H1770     1.0  0.87933  0.37252  0.39427  1.0000
  H   H1771     1.0  0.86430  0.36253  0.39193  1.0000
  H   H1772     1.0  0.87931  0.36436  0.26942  1.0000
  H   H1773     1.0  0.89441  0.37465  0.27139  1.0000
  C   C1767     1.0  0.94366  0.38434  0.87183  1.0000
  C   C1768     1.0  0.78889  0.31364  0.85143  1.0000
  C   C1769     1.0  0.79206  0.30999  0.88461  1.0000
  C   C1770     1.0  0.80151  0.31414  0.88385  1.0000
  C   C1771     1.0  0.80783  0.32210  0.85038  1.0000
  C   C1772     1.0  0.80447  0.32609  0.81810  1.0000
  C   C1773     1.0  0.79507  0.32181  0.81850  1.0000
  H   H1774     1.0  0.78738  0.30370  0.91013  1.0000
  H   H1775     1.0  0.80405  0.31100  0.90894  1.0000
  H   H1776     1.0  0.80926  0.33221  0.79212  1.0000
  H   H1777     1.0  0.79267  0.32470  0.79273  1.0000
  H   H1778     1.0  0.75549  0.34768  0.20579  1.0000
  C   C1774     1.0  0.88062  0.34401  0.36067  1.0000
  C   C1775     1.0  0.87131  0.34701  0.46305  1.0000
  H   H1779     1.0  0.94788  0.38924  0.84024  1.0000
  H   H1780     1.0  0.93226  0.38166  0.94733  1.0000
  C   C1776     1.0  0.76225  0.34090  0.16269  1.0000
  S   S615      1.0  0.91967  0.40267  0.30727  1.0000
  C   C1777     1.0  0.89502  0.39015  0.07123  1.0000
  S   S616      1.0  0.79609  0.39684  0.89202  1.0000
  H   H1781     1.0  0.87050  0.36524  0.66675  1.0000
  C   C1778     1.0  0.76652  0.32972  0.86927  1.0000
  H   H1782     1.0  0.83812  0.39063  0.68741  1.0000
  C   C1779     1.0  0.84523  0.38450  0.88249  1.0000
  C   C1780     1.0  0.87742  0.34789  0.42441  1.0000
  H   H1783     1.0  0.78013  0.32341  0.89950  1.0000
  H   H1784     1.0  0.80382  0.39882  0.95782  1.0000
  C   C1781     1.0  0.83748  0.37881  0.66243  1.0000
  H   H1785     1.0  0.89262  0.38524  0.05581  1.0000
  N   N147      1.0  0.82922  0.38721  0.85658  1.0000
  N   N148      1.0  0.83045  0.39707  0.32675  1.0000
  C   C1782     1.0  0.76485  0.34216  0.99765  1.0000
  C   C1783     1.0  0.75793  0.34554  0.98064  1.0000
  S   S617      1.0  0.80021  0.39266  0.38312  1.0000
  H   H1786     1.0  0.87216  0.39133  0.37812  1.0000
  H   H1787     1.0  0.89228  0.38888  0.19344  1.0000
  C   C1784     1.0  0.76513  0.33225  0.00582  1.0000
  H   H1788     1.0  0.96146  0.39987  0.33275  1.0000
  H   H1789     1.0  0.79112  0.33225  0.92696  1.0000
  H   H1790     1.0  0.83973  0.38154  0.56364  1.0000
  H   H1791     1.0  0.77043  0.32957  0.01919  1.0000
  H   H1792     1.0  0.86189  0.33404  0.39517  1.0000
  C   C1785     1.0  0.95828  0.39769  0.92103  1.0000
  N   N149      1.0  0.94630  0.38836  0.90184  1.0000
  N   N150      1.0  0.87402  0.34328  0.40047  1.0000
  S   S618      1.0  0.91012  0.40210  0.23473  1.0000
  C   C1786     1.0  0.83851  0.37642  0.88339  1.0000
  C   C1787     1.0  0.92125  0.39577  0.03758  1.0000
  C   C1788     1.0  0.85839  0.33642  0.45307  1.0000
  H   H1793     1.0  0.87395  0.35081  0.48169  1.0000
  N   N151      1.0  0.77286  0.33491  0.88648  1.0000
  H   H1794     1.0  0.82539  0.37164  0.87031  1.0000
  C   C1789     1.0  0.88508  0.38076  0.73805  1.0000
  H   H1795     1.0  0.85096  0.33187  0.46417  1.0000
  C   C1790     1.0  0.78315  0.28440  0.11638  1.0000
  H   H1796     1.0  0.75785  0.33358  0.18169  1.0000
  C   C1791     1.0  0.79082  0.38830  0.16507  1.0000
  C   C1792     1.0  0.78118  0.38896  0.18047  1.0000
  C   C1793     1.0  0.77451  0.38755  0.15959  1.0000
  C   C1794     1.0  0.77747  0.38569  0.12257  1.0000
  C   C1795     1.0  0.78717  0.38524  0.10645  1.0000
  C   C1796     1.0  0.79384  0.38651  0.12779  1.0000
  H   H1797     1.0  0.77886  0.39075  0.20818  1.0000
  H   H1798     1.0  0.76705  0.38801  0.17209  1.0000
  H   H1799     1.0  0.78956  0.38394  0.07761  1.0000
  H   H1800     1.0  0.80133  0.38612  0.11543  1.0000
  C   C1797     1.0  0.79661  0.31564  0.32314  1.0000
  C   C1798     1.0  0.80659  0.31700  0.32031  1.0000
  C   C1799     1.0  0.81062  0.32245  0.34186  1.0000
  C   C1800     1.0  0.80469  0.32653  0.36712  1.0000
  C   C1801     1.0  0.79471  0.32516  0.37000  1.0000
  C   C1802     1.0  0.79071  0.31980  0.34810  1.0000
  H   H1801     1.0  0.81124  0.31379  0.30132  1.0000
  H   H1802     1.0  0.81829  0.32339  0.33921  1.0000
  H   H1803     1.0  0.79002  0.32827  0.38937  1.0000
  H   H1804     1.0  0.78301  0.31873  0.35112  1.0000
  C   C1803     1.0  0.77267  0.30540  0.10981  1.0000
  C   C1804     1.0  0.76512  0.29724  0.13595  1.0000
  C   C1805     1.0  0.76048  0.29078  0.12002  1.0000
  C   C1806     1.0  0.76329  0.29247  0.07801  1.0000
  C   C1807     1.0  0.77069  0.30076  0.05184  1.0000
  C   C1808     1.0  0.77538  0.30721  0.06773  1.0000
  H   H1805     1.0  0.76308  0.29577  0.16847  1.0000
  C   C1809     1.0  0.82357  0.38848  0.32740  1.0000
  H   H1806     1.0  0.77309  0.30202  0.01947  1.0000
  H   H1807     1.0  0.78126  0.31349  0.04741  1.0000
  C   C1810     1.0  0.76200  0.33621  0.29303  1.0000
  C   C1811     1.0  0.76119  0.34578  0.29098  1.0000
  C   C1812     1.0  0.76626  0.35106  0.30986  1.0000
  C   C1813     1.0  0.77203  0.34675  0.33142  1.0000
  C   C1814     1.0  0.77266  0.33710  0.33411  1.0000
  C   C1815     1.0  0.76778  0.33189  0.31448  1.0000
  C   C1816     1.0  0.95559  0.39390  0.89256  1.0000
  H   H1808     1.0  0.76538  0.35833  0.30879  1.0000
  H   H1809     1.0  0.77704  0.33369  0.35105  1.0000
  H   H1810     1.0  0.76843  0.32448  0.31641  1.0000
  C   C1817     1.0  0.80476  0.31254  0.73602  1.0000
  Fe  Fe310     1.0  0.75648  0.29059  0.99768  1.0000
  C   C1818     1.0  0.94206  0.38978  0.96887  1.0000
  S   S619      1.0  0.75793  0.28380  0.05927  1.0000
  H   H1811     1.0  0.78076  0.28546  0.08899  1.0000
  H   H1812     1.0  0.76924  0.33284  0.83557  1.0000
  H   H1813     1.0  0.77769  0.35658  0.90423  1.0000
  N   N152      1.0  0.79726  0.36515  0.45360  1.0000
  C   C1819     1.0  0.78893  0.36555  0.44332  1.0000
  C   C1820     1.0  0.80112  0.35714  0.45488  1.0000
  C   C1821     1.0  0.78404  0.35760  0.43543  1.0000
  C   C1822     1.0  0.79650  0.34911  0.44664  1.0000
  C   C1823     1.0  0.78791  0.34937  0.43673  1.0000
  C   C1824     1.0  0.80250  0.37364  0.46039  1.0000
  H   H1814     1.0  0.78610  0.37210  0.44070  1.0000
  H   H1815     1.0  0.80789  0.35699  0.46186  1.0000
  H   H1816     1.0  0.77741  0.35791  0.42748  1.0000
  H   H1817     1.0  0.79961  0.34278  0.44744  1.0000
  H   H1818     1.0  0.78438  0.34328  0.42931  1.0000
  H   H1819     1.0  0.80833  0.37821  0.43158  1.0000
  H   H1820     1.0  0.79754  0.37827  0.46996  1.0000
  H   H1821     1.0  0.80597  0.37131  0.48418  1.0000
  H   H1822     1.0  0.76539  0.36460  0.16249  1.0000
  C   C1825     1.0  0.81426  0.31766  0.73013  1.0000
  H   H1823     1.0  0.96089  0.39573  0.86250  1.0000
  H   H1824     1.0  0.94510  0.37693  0.87589  1.0000
  C   C1826     1.0  0.80407  0.30258  0.80252  1.0000
  C   C1827     1.0  0.76645  0.35832  0.15241  1.0000
  H   H1825     1.0  0.79211  0.30120  0.77828  1.0000
  C   C1828     1.0  0.77452  0.35157  0.10201  1.0000
  H   H1826     1.0  0.83035  0.31940  0.78168  1.0000
  C   C1829     1.0  0.87525  0.38882  0.70205  1.0000
  N   N153      1.0  0.81848  0.31537  0.76002  1.0000
  C   C1830     1.0  0.83857  0.38871  0.66002  1.0000
  C   C1831     1.0  0.75869  0.32578  0.99613  1.0000
  C   C1832     1.0  0.82835  0.32101  0.75329  1.0000
  H   H1827     1.0  0.75768  0.35318  0.97430  1.0000
  N   N154      1.0  0.78981  0.35561  0.23465  1.0000
  C   C1833     1.0  0.78904  0.34585  0.23903  1.0000
  C   C1834     1.0  0.79569  0.36029  0.25129  1.0000
  C   C1835     1.0  0.79408  0.34045  0.26131  1.0000
  C   C1836     1.0  0.80074  0.35509  0.27422  1.0000
  C   C1837     1.0  0.79993  0.34512  0.27914  1.0000
  C   C1838     1.0  0.78469  0.36122  0.21023  1.0000
  H   H1828     1.0  0.78437  0.34212  0.22592  1.0000
  H   H1829     1.0  0.79646  0.36807  0.24708  1.0000
  H   H1830     1.0  0.79335  0.33267  0.26528  1.0000
  H   H1831     1.0  0.80518  0.35873  0.28840  1.0000
  H   H1832     1.0  0.80381  0.34100  0.29682  1.0000
  H   H1833     1.0  0.78293  0.36744  0.22081  1.0000
  H   H1834     1.0  0.78941  0.36430  0.17785  1.0000
  H   H1835     1.0  0.77763  0.35651  0.21289  1.0000
  H   H1836     1.0  0.83474  0.40251  0.84527  1.0000
  H   H1837     1.0  0.86889  0.38086  0.66908  1.0000
  C   C1839     1.0  0.83047  0.37792  0.87040  1.0000
  S   S620      1.0  0.75701  0.30735  0.22681  1.0000
  C   C1840     1.0  0.81322  0.40081  0.41604  1.0000
  C   C1841     1.0  0.77523  0.27906  0.19021  1.0000
  H   H1838     1.0  0.88618  0.36657  0.73292  1.0000
  H   H1839     1.0  0.88485  0.35245  0.41333  1.0000
  H   H1840     1.0  0.83964  0.36907  0.89320  1.0000
  C   C1842     1.0  0.83793  0.37621  0.62756  1.0000
  H   H1841     1.0  0.96554  0.40239  0.91291  1.0000
  H   H1842     1.0  0.88433  0.33786  0.36385  1.0000
  H   H1843     1.0  0.82874  0.32903  0.74308  1.0000
  C   C1843     1.0  0.88106  0.38876  0.72718  1.0000
  Fe  Fe311     1.0  0.93373  0.40126  0.26745  1.0000
  C   C1844     1.0  0.78520  0.34507  0.91697  1.0000
  C   C1845     1.0  0.76088  0.34887  0.17655  1.0000
  C   C1846     1.0  0.83938  0.38349  0.59093  1.0000
  H   H1844     1.0  0.83715  0.36857  0.62889  1.0000
  N   N155      1.0  0.84018  0.39583  0.62372  1.0000
  C   C1847     1.0  0.77004  0.33402  0.11068  1.0000
  H   H1845     1.0  0.75884  0.33033  0.88090  1.0000
  C   C1848     1.0  0.88664  0.40075  0.34516  1.0000
  C   C1849     1.0  0.83570  0.39515  0.85619  1.0000
  H   H1846     1.0  0.81858  0.38304  0.82948  1.0000
  H   H1847     1.0  0.75747  0.35527  0.38844  1.0000
  H   H1848     1.0  0.83862  0.39746  0.74480  1.0000
  H   H1849     1.0  0.75347  0.39361  0.06105  1.0000
  H   H1850     1.0  0.88228  0.39482  0.73889  1.0000
  C   C1850     1.0  0.92425  0.40100  0.06166  1.0000
  S   S621      1.0  0.90735  0.40203  0.86620  1.0000
  S   S622      1.0  0.78677  0.39810  0.29096  1.0000
  C   C1851     1.0  0.89894  0.38834  0.17130  1.0000
  C   C1852     1.0  0.76789  0.27142  0.15108  1.0000
  H   H1851     1.0  0.92178  0.39967  0.00687  1.0000
  S   S623      1.0  0.92009  0.40189  0.92914  1.0000
  Fe  Fe312     1.0  0.92462  0.40051  0.19876  1.0000
  H   H1852     1.0  0.82080  0.38291  0.35831  1.0000
  H   H1853     1.0  0.84928  0.40253  0.36159  1.0000
  C   C1853     1.0  0.85221  0.40055  0.75736  1.0000
  H   H1854     1.0  0.75477  0.28439  0.14028  1.0000
  C   C1854     1.0  0.89812  0.40028  0.05131  1.0000
  H   H1855     1.0  0.78105  0.28438  0.19200  1.0000
  H   H1856     1.0  0.82230  0.39593  0.82017  1.0000
  C   C1855     1.0  0.87704  0.39845  0.37122  1.0000
  N   N156      1.0  0.89879  0.39243  0.12964  1.0000
  C   C1856     1.0  0.75153  0.33906  0.97062  1.0000
  H   H1857     1.0  0.84156  0.39893  0.56093  1.0000
  C   C1857     1.0  0.76770  0.27323  0.22594  1.0000
  C   C1858     1.0  0.76026  0.26545  0.18625  1.0000
  H   H1858     1.0  0.75431  0.26029  0.18432  1.0000
  H   H1859     1.0  0.93672  0.38805  0.99871  1.0000
  C   C1859     1.0  0.76020  0.26636  0.22387  1.0000
  H   H1860     1.0  0.90555  0.39237  0.17525  1.0000
  H   H1861     1.0  0.76630  0.32175  0.87777  1.0000
  C   C1860     1.0  0.88205  0.40237  0.84396  1.0000
  H   H1862     1.0  0.87879  0.39611  0.83679  1.0000
  Fe  Fe313     1.0  0.94381  0.46845  0.28900  1.0000
  S   S624      1.0  0.94012  0.47438  0.34074  1.0000
  S   S625      1.0  0.94617  0.45329  0.29777  1.0000
  Fe  Fe314     1.0  0.94395  0.48704  0.22595  1.0000
  S   S626      1.0  0.94028  0.49471  0.27312  1.0000
  S   S627      1.0  0.94653  0.49360  0.15799  1.0000
  Fe  Fe315     1.0  0.95144  0.48827  0.29840  1.0000
  S   S628      1.0  0.96451  0.49380  0.31843  1.0000
  Fe  Fe316     1.0  0.92934  0.48015  0.31178  1.0000
  S   S629      1.0  0.91343  0.47809  0.34930  1.0000
  S   S630      1.0  0.95578  0.48166  0.24824  1.0000
  S   S631      1.0  0.93240  0.47324  0.26272  1.0000
  S   S632      1.0  0.87954  0.44116  0.37410  1.0000
  Fe  Fe317     1.0  0.92770  0.47562  0.99196  1.0000
  S   S633      1.0  0.92843  0.48600  0.93107  1.0000
  S   S634      1.0  0.92284  0.47620  0.05697  1.0000
  Fe  Fe318     1.0  0.93233  0.45980  0.95520  1.0000
  S   S635      1.0  0.93376  0.46878  0.89219  1.0000
  S   S636      1.0  0.93426  0.44444  0.97009  1.0000
  Fe  Fe319     1.0  0.94213  0.48113  0.90603  1.0000
  S   S637      1.0  0.95694  0.48870  0.85672  1.0000
  Fe  Fe320     1.0  0.92002  0.47271  0.92161  1.0000
  S   S638      1.0  0.90703  0.47250  0.89630  1.0000
  S   S639      1.0  0.94177  0.47157  0.96711  1.0000
  S   S640      1.0  0.91818  0.46293  0.98443  1.0000
  S   S641      1.0  0.85980  0.44239  0.80185  1.0000
  Fe  Fe321     1.0  0.87273  0.43625  0.81037  1.0000
  S   S642      1.0  0.88559  0.44053  0.83351  1.0000
  C   C1861     1.0  0.99436  0.50078  0.89471  1.0000
  H   H1863     1.0  0.95785  0.46602  0.87007  1.0000
  H   H1864     1.0  0.82414  0.40751  0.29457  1.0000
  C   C1862     1.0  0.81826  0.40875  0.92782  1.0000
  H   H1865     1.0  0.99586  0.49132  0.36169  1.0000
  S   S643      1.0  0.98860  0.52394  0.38171  1.0000
  H   H1866     1.0  0.93396  0.43390  0.36054  1.0000
  C   C1863     1.0  0.91293  0.48975  0.17310  1.0000
  C   C1864     1.0  0.94615  0.41060  0.82274  1.0000
  N   N157      1.0  0.93092  0.44697  0.13636  1.0000
  C   C1865     1.0  0.99715  0.47201  0.43608  1.0000
  Fe  Fe322     1.0  0.86524  0.41818  0.78689  1.0000
  H   H1867     1.0  0.95286  0.43494  0.41190  1.0000
  H   H1868     1.0  0.93582  0.44920  0.18481  1.0000
  S   S644      1.0  0.99021  0.52549  0.83659  1.0000
  Fe  Fe323     1.0  0.99019  0.45614  0.38795  1.0000
  H   H1869     1.0  0.95232  0.41851  0.41335  1.0000
  C   C1866     1.0  0.99238  0.43641  0.54253  1.0000
  H   H1870     1.0  0.97732  0.44801  0.24405  1.0000
  C   C1867     1.0  0.84240  0.45376  0.58199  1.0000
  C   C1868     1.0  0.92969  0.44716  0.07097  1.0000
  H   H1871     1.0  0.80709  0.41408  0.33731  1.0000
  C   C1869     1.0  0.96013  0.46616  0.83789  1.0000
  H   H1872     1.0  0.92623  0.41890  0.34962  1.0000
  C   C1870     1.0  0.94856  0.43624  0.39056  1.0000
  N   N158      1.0  0.95658  0.45646  0.83491  1.0000
  C   C1871     1.0  0.94376  0.44173  0.85654  1.0000
  C   C1872     1.0  0.99643  0.48989  0.77484  1.0000
  C   C1873     1.0  0.95448  0.41461  0.78775  1.0000
  C   C1874     1.0  0.90730  0.48334  0.21202  1.0000
  C   C1875     1.0  0.88825  0.41079  0.81290  1.0000
  H   H1873     1.0  0.92911  0.45111  0.04185  1.0000
  H   H1874     1.0  0.92004  0.49234  0.26619  1.0000
  S   S645      1.0  0.98500  0.44948  0.73001  1.0000
  S   S646      1.0  0.85080  0.43948  0.44067  1.0000
  C   C1876     1.0  0.99773  0.48738  0.38749  1.0000
  C   C1877     1.0  0.86367  0.44107  0.61046  1.0000
  C   C1878     1.0  0.99360  0.43627  0.60936  1.0000
  C   C1879     1.0  0.96585  0.49912  0.85176  1.0000
  C   C1880     1.0  0.96434  0.50472  0.87796  1.0000
  C   C1881     1.0  0.97186  0.51277  0.87305  1.0000
  C   C1882     1.0  0.98100  0.51517  0.84256  1.0000
  C   C1883     1.0  0.98250  0.50950  0.81671  1.0000
  C   C1884     1.0  0.97493  0.50163  0.82096  1.0000
  H   H1875     1.0  0.95737  0.50289  0.90177  1.0000
  H   H1876     1.0  0.97058  0.51715  0.89309  1.0000
  H   H1877     1.0  0.98941  0.51131  0.79275  1.0000
  H   H1878     1.0  0.97608  0.49740  0.80037  1.0000
  C   C1885     1.0  0.90159  0.46392  0.87601  1.0000
  C   C1886     1.0  0.89327  0.46525  0.86430  1.0000
  C   C1887     1.0  0.88851  0.45844  0.84960  1.0000
  C   C1888     1.0  0.89192  0.45008  0.84692  1.0000
  C   C1889     1.0  0.90038  0.44888  0.85766  1.0000
  C   C1890     1.0  0.90519  0.45575  0.87188  1.0000
  H   H1879     1.0  0.89047  0.47161  0.86674  1.0000
  H   H1880     1.0  0.88211  0.45959  0.84104  1.0000
  H   H1881     1.0  0.90320  0.44252  0.85555  1.0000
  H   H1882     1.0  0.91168  0.45470  0.87989  1.0000
  C   C1891     1.0  0.92458  0.43692  0.96386  1.0000
  C   C1892     1.0  0.92370  0.42678  0.97417  1.0000
  C   C1893     1.0  0.91612  0.42078  0.96818  1.0000
  C   C1894     1.0  0.90949  0.42488  0.95143  1.0000
  C   C1895     1.0  0.91015  0.43495  0.94264  1.0000
  C   C1896     1.0  0.91775  0.44100  0.94841  1.0000
  H   H1883     1.0  0.92890  0.42358  0.98659  1.0000
  H   H1884     1.0  0.91533  0.41296  0.97726  1.0000
  H   H1885     1.0  0.90490  0.43812  0.93053  1.0000
  H   H1886     1.0  0.91836  0.44882  0.94035  1.0000
  C   C1897     1.0  0.85502  0.43764  0.92001  1.0000
  C   C1898     1.0  0.97140  0.50273  0.33318  1.0000
  C   C1899     1.0  0.98009  0.50114  0.34105  1.0000
  C   C1900     1.0  0.98552  0.50764  0.35500  1.0000
  C   C1901     1.0  0.98232  0.51582  0.36171  1.0000
  C   C1902     1.0  0.97369  0.51748  0.35340  1.0000
  C   C1903     1.0  0.96828  0.51101  0.33924  1.0000
  H   H1887     1.0  0.98261  0.49478  0.33658  1.0000
  H   H1888     1.0  0.99219  0.50636  0.36066  1.0000
  H   H1889     1.0  0.97113  0.52380  0.35814  1.0000
  H   H1890     1.0  0.96164  0.51240  0.33336  1.0000
  C   C1904     1.0  0.94071  0.48760  0.13035  1.0000
  C   C1905     1.0  0.93202  0.48020  0.14987  1.0000
  C   C1906     1.0  0.92676  0.47667  0.12685  1.0000
  C   C1907     1.0  0.93029  0.48022  0.08408  1.0000
  C   C1908     1.0  0.93921  0.48727  0.06449  1.0000
  C   C1909     1.0  0.94432  0.49103  0.08756  1.0000
  H   H1891     1.0  0.92910  0.47754  0.18270  1.0000
  H   H1892     1.0  0.91984  0.47125  0.14231  1.0000
  H   H1893     1.0  0.94197  0.49012  0.03159  1.0000
  H   H1894     1.0  0.95101  0.49679  0.07211  1.0000
  C   C1910     1.0  0.90416  0.46750  0.35783  1.0000
  C   C1911     1.0  0.89492  0.46556  0.38721  1.0000
  C   C1912     1.0  0.88732  0.45743  0.39334  1.0000
  C   C1913     1.0  0.88885  0.45127  0.36951  1.0000
  C   C1914     1.0  0.89806  0.45327  0.34003  1.0000
  C   C1915     1.0  0.90569  0.46124  0.33451  1.0000
  H   H1895     1.0  0.89363  0.47037  0.40529  1.0000
  H   H1896     1.0  0.88025  0.45603  0.41599  1.0000
  H   H1897     1.0  0.89930  0.44866  0.32104  1.0000
  H   H1898     1.0  0.91268  0.46264  0.31159  1.0000
  H   H1899     1.0  0.99867  0.45038  0.49510  1.0000
  Fe  Fe324     1.0  0.86217  0.43764  0.74535  1.0000
  C   C1916     1.0  0.95940  0.42686  0.30248  1.0000
  C   C1917     1.0  0.92342  0.43459  0.26560  1.0000
  C   C1918     1.0  0.93283  0.43301  0.25962  1.0000
  C   C1919     1.0  0.93987  0.43903  0.26825  1.0000
  C   C1920     1.0  0.93743  0.44636  0.28443  1.0000
  C   C1921     1.0  0.92793  0.44777  0.29151  1.0000
  C   C1922     1.0  0.92099  0.44204  0.28117  1.0000
  H   H1900     1.0  0.93479  0.42730  0.24768  1.0000
  H   H1901     1.0  0.94725  0.43809  0.26199  1.0000
  H   H1902     1.0  0.92586  0.45311  0.30583  1.0000
  S   S647      1.0  0.86328  0.44575  0.68015  1.0000
  S   S648      1.0  0.90050  0.41756  0.94047  1.0000
  C   C1923     1.0  0.85831  0.43938  0.65140  1.0000
  H   H1903     1.0  0.84826  0.43805  0.91294  1.0000
  H   H1904     1.0  0.84427  0.43276  0.69780  1.0000
  H   H1905     1.0  0.88625  0.44318  0.94052  1.0000
  H   H1906     1.0  0.92986  0.43358  0.05761  1.0000
  S   S649      1.0  0.98724  0.47098  0.38183  1.0000
  Fe  Fe325     1.0  0.91916  0.41333  0.25082  1.0000
  Fe  Fe326     1.0  0.84858  0.42913  0.50366  1.0000
  H   H1907     1.0  0.95871  0.43437  0.29431  1.0000
  S   S650      1.0  0.99497  0.44959  0.80269  1.0000
  H   H1908     1.0  0.88955  0.41106  0.78153  1.0000
  H   H1909     1.0  0.96577  0.45214  0.29200  1.0000
  C   C1924     1.0  0.96849  0.46494  0.31005  1.0000
  H   H1910     1.0  0.99550  0.46843  0.24828  1.0000
  H   H1911     1.0  0.98714  0.44765  0.26510  1.0000
  N   N159      1.0  0.89262  0.41854  0.82195  1.0000
  H   H1912     1.0  0.99698  0.54501  0.61301  1.0000
  C   C1925     1.0  0.97559  0.47283  0.30808  1.0000
  C   C1926     1.0  0.99457  0.47690  0.87420  1.0000
  H   H1913     1.0  0.99092  0.48009  0.28494  1.0000
  H   H1914     1.0  0.86856  0.42133  0.94311  1.0000
  C   C1927     1.0  0.84400  0.43094  0.64044  1.0000
  H   H1915     1.0  0.99681  0.47747  0.67031  1.0000
  H   H1916     1.0  0.95702  0.47168  0.82056  1.0000
  C   C1928     1.0  0.89079  0.41826  0.86156  1.0000
  C   C1929     1.0  0.98834  0.53831  0.67667  1.0000
  Fe  Fe327     1.0  0.90569  0.40479  0.92565  1.0000
  H   H1917     1.0  0.98903  0.45649  0.21586  1.0000
  S   S651      1.0  0.97873  0.44228  0.42521  1.0000
  S   S652      1.0  0.97501  0.42659  0.83055  1.0000
  C   C1930     1.0  0.96387  0.42111  0.82566  1.0000
  S   S653      1.0  0.86260  0.42450  0.48493  1.0000
  C   C1931     1.0  0.93614  0.42713  0.37100  1.0000
  Fe  Fe328     1.0  0.99335  0.46049  0.74951  1.0000
  C   C1932     1.0  0.82024  0.40826  0.41860  1.0000
  H   H1918     1.0  0.96280  0.44194  0.77764  1.0000
  C   C1933     1.0  0.93007  0.43730  0.07992  1.0000
  C   C1934     1.0  0.98786  0.46751  0.26497  1.0000
  H   H1919     1.0  0.89506  0.43101  0.77067  1.0000
  C   C1935     1.0  0.84853  0.43399  0.66657  1.0000
  C   C1936     1.0  0.94668  0.41213  0.85891  1.0000
  S   S654      1.0  0.87574  0.43274  0.75157  1.0000
  C   C1937     1.0  0.89926  0.42717  0.78871  1.0000
  H   H1920     1.0  0.85284  0.42213  0.92934  1.0000
  H   H1921     1.0  0.96917  0.45795  0.78506  1.0000
  H   H1922     1.0  0.97918  0.53173  0.77908  1.0000
  C   C1938     1.0  0.95549  0.41731  0.86036  1.0000
  H   H1923     1.0  0.88599  0.43234  0.92609  1.0000
  C   C1939     1.0  0.94921  0.43863  0.82622  1.0000
  C   C1940     1.0  0.96202  0.45342  0.80531  1.0000
  H   H1924     1.0  0.98843  0.50285  0.91507  1.0000
  H   H1925     1.0  0.99679  0.50645  0.86416  1.0000
  H   H1926     1.0  0.97360  0.47785  0.32459  1.0000
  H   H1927     1.0  0.83627  0.42732  0.65199  1.0000
  C   C1941     1.0  0.93120  0.45200  0.16644  1.0000
  N   N160      1.0  0.98795  0.53723  0.71602  1.0000
  C   C1942     1.0  0.95844  0.44443  0.80071  1.0000
  S   S655      1.0  0.91471  0.42727  0.25350  1.0000
  H   H1928     1.0  0.95417  0.41348  0.75956  1.0000
  H   H1929     1.0  0.96826  0.46865  0.82543  1.0000
  C   C1943     1.0  0.93103  0.43724  0.14583  1.0000
  C   C1944     1.0  0.93069  0.43227  0.11767  1.0000
  H   H1930     1.0  0.93141  0.43327  0.17528  1.0000
  H   H1931     1.0  0.93092  0.42458  0.12503  1.0000
  H   H1932     1.0  0.87452  0.45188  0.92897  1.0000
  N   N161      1.0  0.97153  0.49279  0.44713  1.0000
  C   C1945     1.0  0.96393  0.49644  0.43882  1.0000
  C   C1946     1.0  0.97257  0.48384  0.44368  1.0000
  C   C1947     1.0  0.95730  0.49120  0.42554  1.0000
  C   C1948     1.0  0.96616  0.47847  0.42997  1.0000
  C   C1949     1.0  0.95851  0.48222  0.42064  1.0000
  C   C1950     1.0  0.97861  0.49840  0.46005  1.0000
  H   H1933     1.0  0.96320  0.50362  0.44082  1.0000
  H   H1934     1.0  0.97853  0.48091  0.45066  1.0000
  H   H1935     1.0  0.95158  0.49433  0.41698  1.0000
  H   H1936     1.0  0.96730  0.47158  0.42562  1.0000
  H   H1937     1.0  0.95372  0.47835  0.40836  1.0000
  H   H1938     1.0  0.98620  0.49874  0.44200  1.0000
  H   H1939     1.0  0.97802  0.50615  0.45477  1.0000
  H   H1940     1.0  0.97748  0.49489  0.49282  1.0000
  S   S656      1.0  0.85626  0.42165  0.40673  1.0000
  S   S657      1.0  0.98848  0.47390  0.75748  1.0000
  C   C1951     1.0  0.96328  0.41990  0.78907  1.0000
  C   C1952     1.0  0.81766  0.41990  0.36302  1.0000
  C   C1953     1.0  0.84181  0.45473  0.62011  1.0000
  C   C1954     1.0  0.93459  0.40995  0.37779  1.0000
  C   C1955     1.0  0.95368  0.41981  0.29194  1.0000
  C   C1956     1.0  0.91803  0.49156  0.24008  1.0000
  H   H1941     1.0  0.97246  0.53242  0.74388  1.0000
  H   H1942     1.0  0.91372  0.44329  0.28594  1.0000
  H   H1943     1.0  0.90291  0.43258  0.80027  1.0000
  H   H1944     1.0  0.96969  0.42275  0.76213  1.0000
  C   C1957     1.0  0.86114  0.44604  0.91996  1.0000
  H   H1945     1.0  0.90099  0.47767  0.21610  1.0000
  H   H1946     1.0  0.85467  0.46320  0.48609  1.0000
  H   H1947     1.0  0.90556  0.47944  0.27612  1.0000
  H   H1948     1.0  0.92977  0.45955  0.09250  1.0000
  H   H1949     1.0  0.85669  0.45109  0.50547  1.0000
  C   C1958     1.0  0.99057  0.43139  0.58400  1.0000
  Fe  Fe329     1.0  0.84250  0.42633  0.43019  1.0000
  H   H1950     1.0  0.83505  0.45147  0.64546  1.0000
  H   H1951     1.0  0.87994  0.43137  0.97831  1.0000
  H   H1952     1.0  0.93445  0.46004  0.15150  1.0000
  H   H1953     1.0  0.82861  0.41976  0.82561  1.0000
  C   C1959     1.0  0.86646  0.42827  0.93703  1.0000
  C   C1960     1.0  0.97805  0.47901  0.88915  1.0000
  N   N162      1.0  0.98085  0.45977  0.26711  1.0000
  Fe  Fe330     1.0  0.99118  0.43725  0.44377  1.0000
  H   H1954     1.0  0.90391  0.42566  0.33992  1.0000
  N   N163      1.0  0.88964  0.41655  0.35465  1.0000
  C   C1961     1.0  0.81072  0.41238  0.35998  1.0000
  H   H1955     1.0  0.90419  0.41433  0.05528  1.0000
  H   H1956     1.0  0.83451  0.40855  0.61918  1.0000
  C   C1962     1.0  0.88157  0.43582  0.94604  1.0000
  C   C1963     1.0  0.99574  0.54185  0.72420  1.0000
  C   C1964     1.0  0.81422  0.40983  0.85563  1.0000
  C   C1965     1.0  0.98374  0.45266  0.24691  1.0000
  C   C1966     1.0  0.96087  0.40742  0.32411  1.0000
  C   C1967     1.0  0.83614  0.41458  0.30901  1.0000
  N   N164      1.0  0.92101  0.49677  0.16785  1.0000
  S   S658      1.0  0.99429  0.45158  0.33268  1.0000
  C   C1968     1.0  0.82538  0.41462  0.89059  1.0000
  H   H1957     1.0  0.94333  0.44058  0.40050  1.0000
  N   N165      1.0  0.99095  0.49111  0.89137  1.0000
  H   H1958     1.0  0.94631  0.43172  0.82256  1.0000
  H   H1959     1.0  0.90507  0.42493  0.76869  1.0000
  C   C1969     1.0  0.85762  0.42868  0.92908  1.0000
  S   S659      1.0  0.97196  0.43336  0.34033  1.0000
  C   C1970     1.0  0.94757  0.45074  0.86037  1.0000
  C   C1971     1.0  0.96581  0.42424  0.32436  1.0000
  H   H1960     1.0  0.83600  0.44968  0.57832  1.0000
  C   C1972     1.0  0.95426  0.41000  0.30309  1.0000
  C   C1973     1.0  0.98129  0.48778  0.89600  1.0000
  C   C1974     1.0  0.93009  0.45190  0.09975  1.0000
  H   H1961     1.0  0.98241  0.46684  0.87175  1.0000
  H   H1962     1.0  0.89424  0.42440  0.86883  1.0000
  H   H1963     1.0  0.95376  0.44069  0.35991  1.0000
  Fe  Fe331     1.0  0.86439  0.43396  0.42154  1.0000
  H   H1964     1.0  0.99893  0.52076  0.63067  1.0000
  C   C1975     1.0  0.96658  0.41446  0.33478  1.0000
  H   H1965     1.0  0.94326  0.45310  0.88390  1.0000
  H   H1966     1.0  0.81267  0.41033  0.82751  1.0000
  N   N166      1.0  0.87244  0.43654  0.93682  1.0000
  N   N167      1.0  0.94338  0.42701  0.38851  1.0000
  C   C1976     1.0  0.98534  0.47413  0.28550  1.0000
  H   H1967     1.0  0.93662  0.43722  0.87701  1.0000
  H   H1968     1.0  0.97912  0.52296  0.75205  1.0000
  S   S660      1.0  0.86870  0.40414  0.77960  1.0000
  C   C1977     1.0  0.98476  0.47356  0.87802  1.0000
  H   H1969     1.0  0.90031  0.41161  0.31669  1.0000
  C   C1978     1.0  0.82981  0.40638  0.30842  1.0000
  H   H1970     1.0  0.84749  0.41098  0.59386  1.0000
  H   H1971     1.0  0.95586  0.41828  0.88872  1.0000
  H   H1972     1.0  0.90476  0.40720  0.12507  1.0000
  S   S661      1.0  0.86326  0.42098  0.84610  1.0000
  H   H1973     1.0  0.99557  0.54079  0.75540  1.0000
  C   C1979     1.0  0.86982  0.44532  0.92899  1.0000
  H   H1974     1.0  0.87755  0.41981  0.39288  1.0000
  C   C1980     1.0  0.99461  0.47716  0.40305  1.0000
  H   H1975     1.0  0.83533  0.42194  0.29614  1.0000
  H   H1976     1.0  0.99227  0.43228  0.64103  1.0000
  Fe  Fe332     1.0  0.85051  0.42680  0.83477  1.0000
  H   H1977     1.0  0.92366  0.45079  0.18728  1.0000
  S   S662      1.0  0.83679  0.42113  0.89044  1.0000
  C   C1981     1.0  0.99863  0.44621  0.59329  1.0000
  C   C1982     1.0  0.89619  0.42619  0.34485  1.0000
  H   H1978     1.0  0.99341  0.49350  0.68778  1.0000
  C   C1983     1.0  0.92359  0.49775  0.20072  1.0000
  C   C1984     1.0  0.87374  0.40537  0.38830  1.0000
  C   C1985     1.0  0.84923  0.43300  0.59911  1.0000
  H   H1979     1.0  0.84290  0.40756  0.64813  1.0000
  S   S663      1.0  0.83201  0.42732  0.39215  1.0000
  S   S664      1.0  0.84263  0.43087  0.56604  1.0000
  S   S665      1.0  0.99521  0.43079  0.39243  1.0000
  S   S666      1.0  0.85181  0.42279  0.77820  1.0000
  H   H1980     1.0  0.88326  0.40970  0.92467  1.0000
  H   H1981     1.0  0.98230  0.53442  0.67018  1.0000
  C   C1986     1.0  0.93167  0.41864  0.36512  1.0000
  C   C1987     1.0  0.88017  0.41445  0.37956  1.0000
  C   C1988     1.0  0.85892  0.46321  0.59357  1.0000
  H   H1982     1.0  0.97605  0.49200  0.90433  1.0000
  C   C1989     1.0  0.85920  0.43775  0.58457  1.0000
  H   H1983     1.0  0.81975  0.40833  0.95599  1.0000
  H   H1984     1.0  0.85342  0.40840  0.74455  1.0000
  C   C1990     1.0  0.90987  0.48430  0.24567  1.0000
  H   H1985     1.0  0.86551  0.46652  0.59840  1.0000
  C   C1991     1.0  0.94626  0.41851  0.40121  1.0000
  S   S667      1.0  0.93360  0.41269  0.21154  1.0000
  C   C1992     1.0  0.97128  0.45838  0.28960  1.0000
  H   H1986     1.0  0.81931  0.42732  0.34243  1.0000
  H   H1987     1.0  0.87121  0.44528  0.59835  1.0000
  Fe  Fe333     1.0  0.98350  0.43710  0.37090  1.0000
  C   C1993     1.0  0.82328  0.41516  0.85447  1.0000
  C   C1994     1.0  0.99720  0.44640  0.52681  1.0000
  H   H1988     1.0  0.98984  0.49227  0.77359  1.0000
  N   N168      1.0  0.85105  0.45745  0.55044  1.0000
  H   H1989     1.0  0.86334  0.43937  0.55289  1.0000
  H   H1990     1.0  0.96087  0.46389  0.32743  1.0000
  S   S668      1.0  0.99921  0.51310  0.46795  1.0000
  H   H1991     1.0  0.85920  0.45306  0.91279  1.0000
  C   C1995     1.0  0.85925  0.46215  0.55579  1.0000
  Fe  Fe334     1.0  0.85341  0.41283  0.47147  1.0000
  H   H1992     1.0  0.89418  0.42938  0.36985  1.0000
  H   H1993     1.0  0.97147  0.41228  0.35155  1.0000
  C   C1996     1.0  0.84310  0.41321  0.32868  1.0000
  H   H1994     1.0  0.98690  0.42365  0.59651  1.0000
  H   H1995     1.0  0.94870  0.42189  0.27562  1.0000
  H   H1996     1.0  0.84453  0.45251  0.51013  1.0000
  C   C1997     1.0  0.82262  0.41784  0.39183  1.0000
  H   H1997     1.0  0.86617  0.46482  0.53116  1.0000
  H   H1998     1.0  0.93006  0.50324  0.19657  1.0000
  C   C1998     1.0  0.97927  0.53077  0.74935  1.0000
  S   S669      1.0  0.83917  0.41661  0.49459  1.0000
  Fe  Fe335     1.0  0.98766  0.43835  0.78023  1.0000
  C   C1999     1.0  0.85176  0.45604  0.51106  1.0000
  H   H1999     1.0  0.92674  0.49988  0.10360  1.0000
  S   S670      1.0  0.98935  0.42977  0.51058  1.0000
  H   H2000     1.0  0.93445  0.50622  0.12439  1.0000
  H   H2001     1.0  0.92344  0.51001  0.11994  1.0000
  H   H2002     1.0  0.84994  0.45982  0.65579  1.0000
  C   C2000     1.0  0.85015  0.45945  0.62588  1.0000
  H   H2003     1.0  0.97041  0.47660  0.89181  1.0000
  H   H2004     1.0  0.91093  0.48894  0.14700  1.0000
  C   C2001     1.0  0.92665  0.50358  0.12696  1.0000
  C   C2002     1.0  0.88452  0.40999  0.89332  1.0000
  H   H2005     1.0  0.89575  0.43134  0.31672  1.0000
  C   C2003     1.0  0.89287  0.40989  0.33707  1.0000
  H   H2006     1.0  0.94444  0.40323  0.40476  1.0000
  C   C2004     1.0  0.99757  0.48100  0.76863  1.0000
  C   C2005     1.0  0.90156  0.40646  0.07091  1.0000
  H   H2007     1.0  0.84766  0.41950  0.33129  1.0000
  H   H2008     1.0  0.92697  0.40892  0.04912  1.0000
  H   H2009     1.0  0.93152  0.40341  0.37180  1.0000
  H   H2010     1.0  0.99435  0.46414  0.44950  1.0000
  H   H2011     1.0  0.94039  0.40912  0.88612  1.0000
  C   C2006     1.0  0.94185  0.40984  0.39635  1.0000
  H   H2012     1.0  0.82381  0.40659  0.44150  1.0000
  C   C2007     1.0  0.84131  0.40620  0.62130  1.0000
  C   C2008     1.0  0.99656  0.54435  0.64420  1.0000
  H   H2013     1.0  0.99832  0.47078  0.61320  1.0000
  S   S671      1.0  0.93546  0.40334  0.82060  1.0000
  Fe  Fe336     1.0  0.99979  0.44919  0.69116  1.0000
  C   C2009     1.0  0.99942  0.48251  0.63933  1.0000
  H   H2014     1.0  0.86627  0.40370  0.40823  1.0000
  C   C2010     1.0  0.80713  0.40386  0.89281  1.0000
  C   C2011     1.0  0.80920  0.40336  0.92897  1.0000
  H   H2015     1.0  0.89802  0.40332  0.02049  1.0000
  C   C2012     1.0  0.00024  0.47867  0.60721  1.0000
  S   S672      1.0  0.92694  0.40339  0.13100  1.0000
  C   C2013     1.0  0.99758  0.48580  0.88062  1.0000
  C   C2014     1.0  0.84395  0.40371  0.34589  1.0000
  C   C2015     1.0  0.00036  0.45123  0.55194  1.0000
  H   H2016     1.0  0.99988  0.47281  0.86484  1.0000
  C   C2016     1.0  0.80851  0.40271  0.38629  1.0000
