data_image0
_chemical_formula_structural       FeS2FeSCFeSFeS3HSCHCFeHSC2HFeSCSHFeS2HSHFeCS2H2CH3CH2NCNHCH2C6H4C6H4C6H3NC6H4CSCSCNC3SH2FeHC3H2CNHC2H6CSCHSHSHSH2FeCHCNC3H5C2H2CHCHFeHCH2C2FeHSNCSC2FeSHFeS2FeSFeS3HC2SHCSCSCFeH3FeC2H3C3HCSHC3S2C2SC3H5C3H5CHSCHFeSHC4H2CH2Fe2CH2SHSCHC7H3CHCHSNCH4CH3CSC4H2NCH2FeH4NC2H3SH2C2H4CNC3H3FeS2FeS2FeSFeS3H4FeCHSCHCHCH2Fe2S2H4CHCH2CHCFeHCHC2NH2S2C2HC5SHC6H4C6H4SHSHCHNH2CHC3NC5H2C2H2C4S2CHCH2SHFeNH3C2H3SCHC2HS2H2CFeCHFeHCSCFeNFe2HC2HS2FeS2FeS2FeHFeHCSHCSHCSCHCHSC3HCHSHCH2SCH2CFeNH2C7HCH3C3Fe2H2CNCH3CS2NH2C3SC2SFeC2HSHNHCFe2SHSCH5CH4CH3C2SHC2HC2H3CSC3H2C6HCH2CH2CSCH4CH2CHC2FeSHSFeSFe2S2HSHCFeCHCSHC6H4CHCFeHSH6C2SFeHSH2C3H3FeS2CHSCNC2HSC6NH3C6H3N2C6H9FeHSHCHC3HS4C2HSCHFeH2CH2CHFeHCH2C2NHCSH2C2H2CHC2HCHFeS2FeS2FeSFeS3C2HCHCHNHC2H2CH2C2H3C4HSC2HNCSHFeCHS2C4H6C7HSCNH2CHSC2H2FeSFeHCHCH2C2H2CHCNC6H9SHCHCFeCHC2HCSH4C6H3CHCSH3CHNCH3C2HC3H3C2H3CH2FeHSFeSHSHSHFeS2CSC2SC2FeSC8H3CHC2HC2H2NCHCHSFeHSH3CHC2HFeS2HCSCFeHC2H2C6H2C7H4C2H2CFeHSC2H2SCHNHC2H2FeCHFeHC2H6NCHSCHC3H3SHC3HCHNFeS2FeS2FeSFeS3C2HCHC3HNC4HSCHCSHC2HS2CHC4SC2H2SHC4H4SC2SH4CH2CH3FeHCFeH2CHC2HC2HCH2C4NH3CHCNCH3S2CH3SCH2C2HCH3FeHFeCHCHFeSHCHC5HCSCH2C4HCNC2N2CHCHSC2HCH2CNH2CH3C3HFeS2FeS2FeS2CFeC3FeS3FeHCH3C5SHFeCH2CFeNCHC4HCH4SHSCH2FeCHC2HC3HCH2C6H5CSCH2CNH3SCSHCH3C2HSCNC6SH3CH4CHSCHCH2NH2CFeHC2H2C2H2SCH5NCHC4FeHS2CSC2HFeS2FeS2FeSFeCS2HFeS2FeSHFeSFeS3CHSH2C6H4C2HCHCHSC2HC2H2C6H6C2H2C2H2CHNHCSC3H3CNC2H5CNCHC3HC3H2SHC3HCNHCHCH2C3SHCFeCHCH2C3HCNC2H2CH3CHC2H5CHSFeS2FeS2FeS2HCH2NFeSCSH2SC2HFeHC2SC2H4SC2NC5HCH4SHFeCHSHCHC2NSNH3CHC6H7FeCHNC6H8CSC3FeHCNC5HFeH4NSH3SCH2C3H2C2HC3SHFeH2SCHCHSH2CHCH3C2HC4H3C4HCNCHCFeCSH2CH2CFeS2FeS2FeSFeCS2CFeS2FeSHFeSFeHS2HCHSHC6H4C2FeH2CH3C2SCH2C6H4C4H2SH2CH3FeC2H4C2SHCHCHSHCFeNCHCH2CNCNH2SH2CHC3HCNC2SH2CHCSC2H2C2HCFeH3SHCHC6HCHCH3CH2CHSCNHCH2FeC2H
_chemical_formula_sum              "Fe128 S256 C768 H768 N64"
_cell_length_a       43.3856
_cell_length_b       41.7755
_cell_length_c       44.2645
_cell_angle_alpha    89.4086
_cell_angle_beta     90.7594
_cell_angle_gamma    90.1987

_space_group_name_H-M_alt    "P 1"
_space_group_IT_number       1

loop_
  _space_group_symop_operation_xyz
  'x, y, z'

loop_
  _atom_site_type_symbol
  _atom_site_label
  _atom_site_symmetry_multiplicity
  _atom_site_fract_x
  _atom_site_fract_y
  _atom_site_fract_z
  _atom_site_occupancy
  Fe  Fe1       1.0  0.19219  0.36507  0.28947  1.0000
  S   S1        1.0  0.18101  0.33113  0.25208  1.0000
  S   S2        1.0  0.18774  0.34307  0.33594  1.0000
  Fe  Fe2       1.0  0.21025  0.41929  0.24602  1.0000
  S   S3        1.0  0.20084  0.38883  0.20545  1.0000
  C   C1        1.0  0.22312  0.06478  0.01651  1.0000
  Fe  Fe3       1.0  0.15817  0.37354  0.22977  1.0000
  S   S4        1.0  0.10916  0.37391  0.21186  1.0000
  Fe  Fe4       1.0  0.22467  0.34956  0.23171  1.0000
  S   S5        1.0  0.26276  0.31946  0.21261  1.0000
  S   S6        1.0  0.16597  0.40621  0.26895  1.0000
  S   S7        1.0  0.23764  0.38130  0.27052  1.0000
  H   H1        1.0  0.05150  0.42416  0.12783  1.0000
  S   S8        1.0  0.26794  0.16921  0.23423  1.0000
  C   C2        1.0  0.11793  0.44561  0.00124  1.0000
  H   H2        1.0  0.15238  0.47662  0.14194  1.0000
  C   C3        1.0  0.29313  0.49429  0.28896  1.0000
  Fe  Fe5       1.0  0.05462  0.45941  0.06428  1.0000
  H   H3        1.0  0.20205  0.05670  0.24819  1.0000
  S   S9        1.0  0.09566  0.42985  0.07879  1.0000
  C   C4        1.0  0.17061  0.44312  0.98768  1.0000
  C   C5        1.0  0.03668  0.01941  0.14930  1.0000
  H   H4        1.0  0.07223  0.36580  0.27194  1.0000
  Fe  Fe6       1.0  0.03013  0.21007  0.39624  1.0000
  S   S10       1.0  0.22086  0.47092  0.23398  1.0000
  C   C6        1.0  0.07060  0.49190  0.17161  1.0000
  S   S11       1.0  0.03157  0.45225  0.01907  1.0000
  H   H5        1.0  0.28637  0.03253  0.20601  1.0000
  Fe  Fe7       1.0  0.03897  0.28128  0.40558  1.0000
  S   S12       1.0  0.07141  0.23962  0.40965  1.0000
  S   S13       1.0  0.04997  0.32619  0.37913  1.0000
  H   H6        1.0  0.05722  0.40154  0.17984  1.0000
  S   S14       1.0  0.02351  0.03429  0.01425  1.0000
  H   H7        1.0  0.10029  0.45260  0.01692  1.0000
  Fe  Fe8       1.0  0.05312  0.23598  0.45693  1.0000
  C   C7        1.0  0.10744  0.49528  0.13139  1.0000
  S   S15       1.0  0.34081  0.45323  0.99382  1.0000
  S   S16       1.0  0.02809  0.16891  0.36366  1.0000
  H   H8        1.0  0.13598  0.43899  0.21369  1.0000
  H   H9        1.0  0.12455  0.23445  0.45172  1.0000
  C   C8        1.0  0.25178  0.49129  0.25158  1.0000
  H   H10       1.0  0.26775  0.05798  0.99692  1.0000
  H   H11       1.0  0.14086  0.27900  0.28820  1.0000
  H   H12       1.0  0.29421  0.05191  0.29213  1.0000
  C   C9        1.0  0.09321  0.47759  0.19010  1.0000
  H   H13       1.0  0.19466  0.44860  0.99243  1.0000
  H   H14       1.0  0.29068  0.31670  0.27688  1.0000
  N   N1        1.0  0.28088  0.24061  0.30218  1.0000
  C   C10       1.0  0.24460  0.06719  0.99343  1.0000
  N   N2        1.0  0.12216  0.47225  0.17939  1.0000
  H   H15       1.0  0.26287  0.45350  0.28326  1.0000
  C   C11       1.0  0.25413  0.30074  0.30593  1.0000
  H   H16       1.0  0.05149  0.02793  0.16823  1.0000
  H   H17       1.0  0.22951  0.05346  0.03786  1.0000
  C   C12       1.0  0.26299  0.27758  0.21790  1.0000
  C   C13       1.0  0.28949  0.26051  0.21025  1.0000
  C   C14       1.0  0.29110  0.22730  0.21515  1.0000
  C   C15       1.0  0.26601  0.21081  0.22735  1.0000
  C   C16       1.0  0.23933  0.22776  0.23472  1.0000
  C   C17       1.0  0.23790  0.26113  0.23025  1.0000
  H   H18       1.0  0.30889  0.27307  0.20051  1.0000
  H   H19       1.0  0.31150  0.21440  0.20877  1.0000
  H   H20       1.0  0.21979  0.21511  0.24406  1.0000
  H   H21       1.0  0.21733  0.27403  0.23608  1.0000
  C   C18       1.0  0.14958  0.33921  0.34851  1.0000
  C   C19       1.0  0.12589  0.35760  0.33557  1.0000
  C   C20       1.0  0.09558  0.35416  0.34587  1.0000
  C   C21       1.0  0.08863  0.33170  0.36854  1.0000
  C   C22       1.0  0.11235  0.31340  0.38157  1.0000
  C   C23       1.0  0.14280  0.31732  0.37173  1.0000
  H   H22       1.0  0.13097  0.37480  0.31794  1.0000
  H   H23       1.0  0.07738  0.36865  0.33598  1.0000
  H   H24       1.0  0.10735  0.29653  0.39949  1.0000
  H   H25       1.0  0.16108  0.30321  0.38197  1.0000
  C   C24       1.0  0.09842  0.41430  0.11579  1.0000
  C   C25       1.0  0.12666  0.40157  0.12573  1.0000
  C   C26       1.0  0.13001  0.38918  0.15514  1.0000
  C   C27       1.0  0.10505  0.38909  0.17475  1.0000
  C   C28       1.0  0.07667  0.40165  0.16480  1.0000
  C   C29       1.0  0.07341  0.41452  0.13542  1.0000
  H   H26       1.0  0.14600  0.40108  0.11057  1.0000
  H   H27       1.0  0.15173  0.37889  0.16231  1.0000
  H   H28       1.0  0.24848  0.08794  0.25723  1.0000
  N   N3        1.0  0.07205  0.31673  0.28473  1.0000
  C   C30       1.0  0.10186  0.30940  0.27806  1.0000
  C   C31       1.0  0.05617  0.29878  0.30542  1.0000
  C   C32       1.0  0.11690  0.28405  0.29290  1.0000
  C   C33       1.0  0.07037  0.27300  0.32040  1.0000
  C   C34       1.0  0.10101  0.26582  0.31426  1.0000
  C   C35       1.0  0.05746  0.34414  0.26941  1.0000
  H   H29       1.0  0.11425  0.32366  0.26155  1.0000
  H   H30       1.0  0.30962  0.20670  0.28053  1.0000
  H   H31       1.0  0.15201  0.12527  0.97572  1.0000
  H   H32       1.0  0.03275  0.30491  0.31133  1.0000
  C   C36       1.0  0.14579  0.45858  0.19962  1.0000
  S   S17       1.0  0.01094  0.47371  0.08690  1.0000
  C   C37       1.0  0.24093  0.27461  0.32079  1.0000
  S   S18       1.0  0.10628  0.02797  0.98918  1.0000
  C   C38       1.0  0.28081  0.29662  0.28925  1.0000
  N   N4        1.0  0.18445  0.08810  0.98380  1.0000
  C   C39       1.0  0.15618  0.99845  0.01708  1.0000
  C   C40       1.0  0.15697  0.46723  0.03600  1.0000
  C   C41       1.0  0.13700  0.23332  0.47299  1.0000
  S   S19       1.0  0.02259  0.27947  0.45364  1.0000
  H   H33       1.0  0.28357  0.07776  0.23935  1.0000
  H   H34       1.0  0.31067  0.20530  0.32122  1.0000
  Fe  Fe9       1.0  0.31601  0.15006  0.24127  1.0000
  H   H35       1.0  0.18165  0.23812  0.45244  1.0000
  C   C42       1.0  0.29412  0.26623  0.28778  1.0000
  C   C43       1.0  0.26272  0.02671  0.21167  1.0000
  C   C44       1.0  0.26873  0.47729  0.27529  1.0000
  H   H36       1.0  0.15540  0.47738  0.21467  1.0000
  H   H37       1.0  0.13715  0.09171  0.99708  1.0000
  C   C45       1.0  0.29231  0.02735  0.28485  1.0000
  N   N5        1.0  0.14827  0.45208  0.00739  1.0000
  H   H38       1.0  0.25320  0.09694  0.21755  1.0000
  C   C46       1.0  0.20291  0.01061  0.22721  1.0000
  C   C47       1.0  0.29548  0.20907  0.30109  1.0000
  H   H39       1.0  0.15999  0.44860  0.05387  1.0000
  H   H40       1.0  0.05798  0.25940  0.33742  1.0000
  H   H41       1.0  0.03455  0.34970  0.27891  1.0000
  H   H42       1.0  0.24439  0.22423  0.33029  1.0000
  H   H43       1.0  0.24357  0.32412  0.30732  1.0000
  H   H44       1.0  0.11247  0.24643  0.32636  1.0000
  C   C48       1.0  0.26578  0.00925  0.29155  1.0000
  S   S20       1.0  0.01508  0.20192  0.44392  1.0000
  C   C49       1.0  0.15269  0.09883  0.97833  1.0000
  H   H45       1.0  0.03596  0.03809  0.13127  1.0000
  S   S21       1.0  0.06848  0.01860  0.07238  1.0000
  H   H46       1.0  0.31467  0.26316  0.27443  1.0000
  S   S22       1.0  0.33841  0.11170  0.21425  1.0000
  H   H47       1.0  0.27787  0.18970  0.29997  1.0000
  S   S23       1.0  0.32379  0.12486  0.28564  1.0000
  H   H48       1.0  0.30609  0.48339  0.30739  1.0000
  H   H49       1.0  0.22009  0.27787  0.33372  1.0000
  Fe  Fe10      1.0  0.02004  0.03594  0.06457  1.0000
  C   C50       1.0  0.25475  0.24450  0.31872  1.0000
  H   H50       1.0  0.31320  0.25015  0.43873  1.0000
  C   C51       1.0  0.31640  0.01341  0.26897  1.0000
  N   N6        1.0  0.24540  0.04773  0.22776  1.0000
  C   C52       1.0  0.19295  0.07542  0.01131  1.0000
  C   C53       1.0  0.25050  0.99708  0.20300  1.0000
  C   C54       1.0  0.25822  0.07911  0.23577  1.0000
  H   H51       1.0  0.17615  0.07243  0.02907  1.0000
  H   H52       1.0  0.24710  0.02005  0.30374  1.0000
  H   H53       1.0  0.13879  0.48409  0.04321  1.0000
  H   H54       1.0  0.17860  0.48141  0.03370  1.0000
  H   H55       1.0  0.16513  0.44812  0.18685  1.0000
  C   C55       1.0  0.21578  0.04010  0.23540  1.0000
  C   C56       1.0  0.12949  0.48100  0.15049  1.0000
  H   H56       1.0  0.05470  0.33923  0.24487  1.0000
  H   H57       1.0  0.08746  0.47056  0.21301  1.0000
  C   C57       1.0  0.33186  0.23972  0.45202  1.0000
  H   H58       1.0  0.32727  0.38144  0.99135  1.0000
  C   C58       1.0  0.14396  0.01293  0.99094  1.0000
  H   H59       1.0  0.19999  0.30101  0.46794  1.0000
  Fe  Fe11      1.0  0.06990  0.01192  0.02215  1.0000
  H   H60       1.0  0.17969  0.00425  0.23387  1.0000
  C   C59       1.0  0.16940  0.23541  0.47344  1.0000
  H   H61       1.0  0.31540  0.49204  0.21120  1.0000
  H   H62       1.0  0.04777  0.99769  0.14007  1.0000
  C   C60       1.0  0.12807  0.30650  0.52334  1.0000
  C   C61       1.0  0.23596  0.32978  0.72792  1.0000
  Fe  Fe12      1.0  0.29250  0.03817  0.90362  1.0000
  H   H63       1.0  0.22828  0.23518  0.74049  1.0000
  S   S24       1.0  0.28338  0.08917  0.88978  1.0000
  N   N7        1.0  0.24575  0.27505  0.71491  1.0000
  C   C62       1.0  0.17456  0.39742  0.83798  1.0000
  S   S25       1.0  0.25367  0.00285  0.90728  1.0000
  C   C63       1.0  0.05457  0.26212  0.71567  1.0000
  C   C64       1.0  0.18864  0.32019  0.53942  1.0000
  Fe  Fe13      1.0  0.31486  0.26724  0.56914  1.0000
  S   S26       1.0  0.29021  0.22015  0.56485  1.0000
  H   H64       1.0  0.11854  0.30796  0.57097  1.0000
  Fe  Fe14      1.0  0.25642  0.30069  0.59206  1.0000
  S   S27       1.0  0.22801  0.25609  0.58934  1.0000
  S   S28       1.0  0.23419  0.34564  0.60937  1.0000
  Fe  Fe15      1.0  0.26972  0.23200  0.60968  1.0000
  S   S29       1.0  0.26865  0.20353  0.65309  1.0000
  Fe  Fe16      1.0  0.25113  0.24925  0.54492  1.0000
  S   S30       1.0  0.22648  0.23881  0.50076  1.0000
  S   S31       1.0  0.29660  0.27727  0.61526  1.0000
  S   S32       1.0  0.27737  0.29581  0.54603  1.0000
  H   H65       1.0  0.12791  0.46460  0.81919  1.0000
  C   C65       1.0  0.25534  0.34013  0.70487  1.0000
  C   C66       1.0  0.31266  0.38112  0.97049  1.0000
  S   S33       1.0  0.31036  0.02928  0.95067  1.0000
  H   H66       1.0  0.05519  0.21017  0.56620  1.0000
  C   C67       1.0  0.20550  0.09090  0.96114  1.0000
  S   S34       1.0  0.02368  0.07844  0.73910  1.0000
  C   C68       1.0  0.07598  0.27516  0.73587  1.0000
  S   S35       1.0  0.12984  0.41117  0.76747  1.0000
  C   C69       1.0  0.03925  0.23379  0.72327  1.0000
  Fe  Fe17      1.0  0.26915  0.46724  0.90297  1.0000
  H   H67       1.0  0.17880  0.28224  0.68530  1.0000
  H   H68       1.0  0.18042  0.42086  0.94503  1.0000
  H   H69       1.0  0.07661  0.23556  0.81849  1.0000
  Fe  Fe18      1.0  0.05267  0.36347  0.76168  1.0000
  C   C70       1.0  0.04728  0.01815  0.73742  1.0000
  C   C71       1.0  0.13172  0.42128  0.95414  1.0000
  H   H70       1.0  0.27586  0.26756  0.67807  1.0000
  H   H71       1.0  0.22768  0.31266  0.49567  1.0000
  H   H72       1.0  0.24158  0.00933  0.77852  1.0000
  C   C72       1.0  0.31250  0.17286  0.68774  1.0000
  C   C73       1.0  0.01197  0.29266  0.79237  1.0000
  C   C74       1.0  0.12093  0.22965  0.50001  1.0000
  H   H73       1.0  0.22338  0.34704  0.74113  1.0000
  C   C75       1.0  0.16440  0.43367  0.87896  1.0000
  S   S36       1.0  0.07778  0.38189  0.72117  1.0000
  H   H74       1.0  0.25810  0.36551  0.70013  1.0000
  C   C76       1.0  0.30086  0.17856  0.65847  1.0000
  C   C77       1.0  0.31446  0.14224  0.87111  1.0000
  C   C78       1.0  0.33879  0.15376  0.69228  1.0000
  S   S37       1.0  0.07530  0.47637  0.72826  1.0000
  S   S38       1.0  0.31912  0.47962  0.90984  1.0000
  C   C79       1.0  0.20857  0.34040  0.63974  1.0000
  C   C80       1.0  0.20208  0.30983  0.65113  1.0000
  S   S39       1.0  0.09463  0.34309  0.78468  1.0000
  C   C81       1.0  0.17053  0.33269  0.69053  1.0000
  C   C82       1.0  0.17618  0.36332  0.67871  1.0000
  C   C83       1.0  0.19514  0.36713  0.65330  1.0000
  H   H75       1.0  0.21248  0.28909  0.64129  1.0000
  H   H76       1.0  0.26102  0.22673  0.71758  1.0000
  H   H77       1.0  0.16675  0.38408  0.68966  1.0000
  H   H78       1.0  0.19998  0.39089  0.64457  1.0000
  H   H79       1.0  0.31920  0.40389  0.86878  1.0000
  C   C84       1.0  0.13751  0.22799  0.52742  1.0000
  C   C85       1.0  0.16984  0.23056  0.52790  1.0000
  C   C86       1.0  0.18593  0.23434  0.50092  1.0000
  H   H80       1.0  0.15310  0.02789  0.94521  1.0000
  H   H81       1.0  0.20437  0.45626  0.89922  1.0000
  H   H82       1.0  0.12530  0.22501  0.54842  1.0000
  H   H83       1.0  0.18227  0.22916  0.54914  1.0000
  H   H84       1.0  0.04931  0.20518  0.80896  1.0000
  C   C87       1.0  0.19614  0.43968  0.88230  1.0000
  H   H85       1.0  0.08821  0.29705  0.73004  1.0000
  S   S40       1.0  0.05586  0.40970  0.78652  1.0000
  C   C88       1.0  0.32658  0.22893  0.48146  1.0000
  H   H86       1.0  0.21480  0.28929  0.74943  1.0000
  Fe  Fe19      1.0  0.08422  0.42698  0.74784  1.0000
  S   S41       1.0  0.15136  0.32662  0.72499  1.0000
  H   H87       1.0  0.22389  0.23258  0.69988  1.0000
  C   C89       1.0  0.27005  0.31765  0.68702  1.0000
  C   C90       1.0  0.26499  0.28499  0.69243  1.0000
  C   C91       1.0  0.23932  0.24076  0.71856  1.0000
  C   C92       1.0  0.18303  0.30599  0.67626  1.0000
  H   H88       1.0  0.16638  0.38093  0.82096  1.0000
  H   H89       1.0  0.19879  0.10075  0.93926  1.0000
  C   C93       1.0  0.34109  0.14490  0.63841  1.0000
  H   H90       1.0  0.19303  0.01262  0.74802  1.0000
  H   H91       1.0  0.14826  0.44586  0.89319  1.0000
  Fe  Fe20      1.0  0.10097  0.39169  0.80512  1.0000
  Fe  Fe21      1.0  0.12019  0.36390  0.74509  1.0000
  C   C94       1.0  0.15359  0.41241  0.85687  1.0000
  H   H92       1.0  0.28430  0.32550  0.66836  1.0000
  H   H93       1.0  0.12518  0.40951  0.93322  1.0000
  S   S42       1.0  0.11383  0.40508  0.85286  1.0000
  H   H94       1.0  0.10121  0.47219  0.86753  1.0000
  S   S43       1.0  0.08022  0.22827  0.50060  1.0000
  C   C95       1.0  0.23118  0.29695  0.73250  1.0000
  H   H95       1.0  0.05257  0.47373  0.78981  1.0000
  C   C96       1.0  0.04213  0.18755  0.56266  1.0000
  C   C97       1.0  0.20629  0.40315  0.84154  1.0000
  C   C98       1.0  0.23585  0.08044  0.96557  1.0000
  C   C99       1.0  0.21713  0.42421  0.86372  1.0000
  C   C100      1.0  0.13595  0.31047  0.55374  1.0000
  C   C101      1.0  0.31531  0.16469  0.63380  1.0000
  C   C102      1.0  0.16269  0.42761  0.96077  1.0000
  H   H96       1.0  0.29897  0.15509  0.88559  1.0000
  H   H97       1.0  0.30628  0.16867  0.61121  1.0000
  H   H98       1.0  0.22245  0.39121  0.82709  1.0000
  C   C103      1.0  0.02229  0.03773  0.72937  1.0000
  H   H99       1.0  0.30140  0.18341  0.70694  1.0000
  C   C104      1.0  0.15094  0.30927  0.50147  1.0000
  H   H100      1.0  0.30379  0.23102  0.49119  1.0000
  S   S44       1.0  0.26048  0.45794  0.95208  1.0000
  N   N8        1.0  0.06529  0.23289  0.77151  1.0000
  C   C105      1.0  0.08120  0.26007  0.76384  1.0000
  H   H101      1.0  0.06707  0.02828  0.74904  1.0000
  H   H102      1.0  0.03273  0.19762  0.75748  1.0000
  H   H103      1.0  0.01343  0.25565  0.82672  1.0000
  H   H104      1.0  0.30248  0.35685  0.96804  1.0000
  C   C106      1.0  0.07059  0.21755  0.80106  1.0000
  H   H105      1.0  0.09770  0.27053  0.77951  1.0000
  H   H106      1.0  0.21219  0.32589  0.54600  1.0000
  H   H107      1.0  0.10457  0.30046  0.51672  1.0000
  C   C107      1.0  0.31178  0.10902  0.86851  1.0000
  S   S45       1.0  0.25699  0.43049  0.86813  1.0000
  C   C108      1.0  0.04515  0.21927  0.75136  1.0000
  C   C109      1.0  0.16253  0.01696  0.96558  1.0000
  C   C110      1.0  0.16637  0.31756  0.56187  1.0000
  C   C111      1.0  0.20440  0.31840  0.48638  1.0000
  H   H108      1.0  0.04971  0.27411  0.69429  1.0000
  H   H109      1.0  0.08940  0.19971  0.79952  1.0000
  N   N9        1.0  0.18087  0.31545  0.50972  1.0000
  C   C112      1.0  0.31522  0.39280  0.91632  1.0000
  H   H110      1.0  0.17280  0.32094  0.58542  1.0000
  H   H111      1.0  0.05198  0.17551  0.54265  1.0000
  Fe  Fe22      1.0  0.30900  0.47535  0.95904  1.0000
  H   H112      1.0  0.29042  0.38941  0.91469  1.0000
  H   H113      1.0  0.32970  0.06697  0.84715  1.0000
  H   H114      1.0  0.20744  0.01134  0.94695  1.0000
  H   H115      1.0  0.25231  0.08208  0.94734  1.0000
  N   N10       1.0  0.33029  0.38975  0.94354  1.0000
  C   C113      1.0  0.11563  0.48669  0.82328  1.0000
  C   C114      1.0  0.10037  0.49112  0.85058  1.0000
  H   H116      1.0  0.01679  0.21085  0.51226  1.0000
  H   H117      1.0  0.11824  0.49539  0.92663  1.0000
  H   H118      1.0  0.02233  0.22351  0.70788  1.0000
  S   S46       1.0  0.32460  0.00397  0.88178  1.0000
  H   H119      1.0  0.04575  0.17142  0.58249  1.0000
  H   H120      1.0  0.14304  0.08750  0.95762  1.0000
  C   C115      1.0  0.04334  0.49464  0.77873  1.0000
  C   C116      1.0  0.19341  0.00743  0.96645  1.0000
  H   H121      1.0  0.08493  0.42607  0.96949  1.0000
  H   H122      1.0  0.14471  0.30564  0.47792  1.0000
  H   H123      1.0  0.01046  0.44885  0.68233  1.0000
  H   H124      1.0  0.02682  0.30885  0.80479  1.0000
  C   C117      1.0  0.33142  0.40097  0.89021  1.0000
  N   N11       1.0  0.00940  0.19470  0.55745  1.0000
  C   C118      1.0  0.33186  0.09260  0.84956  1.0000
  C   C119      1.0  0.33760  0.15892  0.85575  1.0000
  C   C120      1.0  0.10914  0.43042  0.97445  1.0000
  H   H125      1.0  0.20449  0.34308  0.47682  1.0000
  H   H126      1.0  0.33993  0.18452  0.85859  1.0000
  H   H127      1.0  0.29404  0.39884  0.97391  1.0000
  Fe  Fe23      1.0  0.19114  0.84848  0.25209  1.0000
  S   S47       1.0  0.21253  0.83897  0.20710  1.0000
  S   S48       1.0  0.16444  0.80780  0.27271  1.0000
  Fe  Fe24      1.0  0.22481  0.91144  0.26007  1.0000
  S   S49       1.0  0.24983  0.90635  0.21658  1.0000
  S   S50       1.0  0.22926  0.95539  0.28891  1.0000
  Fe  Fe25      1.0  0.20403  0.89107  0.19770  1.0000
  S   S51       1.0  0.19479  0.91290  0.15177  1.0000
  Fe  Fe26      1.0  0.25607  0.85486  0.22990  1.0000
  S   S52       1.0  0.30147  0.82969  0.22446  1.0000
  S   S53       1.0  0.17819  0.89931  0.24054  1.0000
  S   S54       1.0  0.23548  0.86138  0.27555  1.0000
  H   H128      1.0  0.08260  0.90325  0.16307  1.0000
  H   H129      1.0  0.05932  0.62793  0.45024  1.0000
  H   H130      1.0  0.32119  0.72132  0.31950  1.0000
  H   H131      1.0  0.32869  0.71179  0.28067  1.0000
  Fe  Fe27      1.0  0.05518  0.78950  0.40192  1.0000
  C   C121      1.0  0.27227  0.76366  0.29000  1.0000
  H   H132      1.0  0.26443  0.98020  0.19075  1.0000
  S   S55       1.0  0.05557  0.93602  0.11209  1.0000
  C   C122      1.0  0.19130  0.84473  0.35490  1.0000
  H   H133      1.0  0.19854  0.74475  0.26989  1.0000
  C   C123      1.0  0.33791  0.50303  0.20818  1.0000
  H   H134      1.0  0.25297  0.72496  0.20606  1.0000
  C   C124      1.0  0.27969  0.87358  0.14767  1.0000
  H   H135      1.0  0.33299  0.97021  0.24867  1.0000
  H   H136      1.0  0.16027  0.54886  0.01774  1.0000
  Fe  Fe28      1.0  0.02348  0.52378  0.07345  1.0000
  Fe  Fe29      1.0  0.03844  0.72037  0.38845  1.0000
  S   S56       1.0  0.08199  0.74380  0.40524  1.0000
  S   S57       1.0  0.07588  0.83434  0.38167  1.0000
  H   H137      1.0  0.13690  0.89420  0.17923  1.0000
  H   H138      1.0  0.23058  0.79144  0.28412  1.0000
  H   H139      1.0  0.33142  0.75227  0.29250  1.0000
  H   H140      1.0  0.26049  0.89109  0.14897  1.0000
  C   C125      1.0  0.12615  0.66822  0.44417  1.0000
  H   H141      1.0  0.19684  0.97800  0.03826  1.0000
  C   C126      1.0  0.16467  0.88353  0.38334  1.0000
  H   H142      1.0  0.05772  0.63883  0.39514  1.0000
  H   H143      1.0  0.24647  0.53318  0.22316  1.0000
  C   C127      1.0  0.19803  0.90147  0.34199  1.0000
  H   H144      1.0  0.17712  0.78498  0.45515  1.0000
  C   C128      1.0  0.18726  0.98884  0.01791  1.0000
  Fe  Fe30      1.0  0.06119  0.73935  0.45117  1.0000
  H   H145      1.0  0.10027  0.66922  0.37124  1.0000
  C   C129      1.0  0.28774  0.96330  0.26707  1.0000
  H   H146      1.0  0.23894  0.75449  0.13060  1.0000
  C   C130      1.0  0.27753  0.78425  0.14332  1.0000
  C   C131      1.0  0.30087  0.52521  0.27886  1.0000
  N   N12       1.0  0.28534  0.73396  0.28841  1.0000
  H   H147      1.0  0.28657  0.93842  0.26081  1.0000
  H   H148      1.0  0.29481  0.88078  0.12872  1.0000
  S   S58       1.0  0.30132  0.67864  0.21151  1.0000
  S   S59       1.0  0.05173  0.96158  0.02330  1.0000
  C   C132      1.0  0.30105  0.78775  0.22073  1.0000
  C   C133      1.0  0.31419  0.98128  0.26047  1.0000
  H   H149      1.0  0.14430  0.68852  0.40295  1.0000
  C   C134      1.0  0.30184  0.72069  0.21424  1.0000
  C   C135      1.0  0.27419  0.73772  0.21089  1.0000
  C   C136      1.0  0.27368  0.77108  0.21465  1.0000
  C   C137      1.0  0.17787  0.81997  0.37179  1.0000
  C   C138      1.0  0.26770  0.70791  0.28096  1.0000
  S   S60       1.0  0.32939  0.64035  0.28500  1.0000
  H   H150      1.0  0.25216  0.78381  0.21252  1.0000
  C   C139      1.0  0.13731  0.81624  0.30061  1.0000
  C   C140      1.0  0.13125  0.84763  0.30944  1.0000
  C   C141      1.0  0.11130  0.85323  0.33362  1.0000
  C   C142      1.0  0.09738  0.82747  0.34890  1.0000
  C   C143      1.0  0.10249  0.79628  0.33910  1.0000
  C   C144      1.0  0.12253  0.79067  0.31516  1.0000
  H   H151      1.0  0.14216  0.86749  0.29791  1.0000
  H   H152      1.0  0.10702  0.87745  0.34084  1.0000
  H   H153      1.0  0.09121  0.77636  0.35004  1.0000
  H   H154      1.0  0.12675  0.76638  0.30807  1.0000
  C   C145      1.0  0.09436  0.93032  0.12312  1.0000
  C   C146      1.0  0.11847  0.94267  0.10580  1.0000
  C   C147      1.0  0.14923  0.93725  0.11481  1.0000
  C   C148      1.0  0.15601  0.91979  0.14133  1.0000
  C   C149      1.0  0.13191  0.90780  0.15884  1.0000
  C   C150      1.0  0.10117  0.91293  0.14965  1.0000
  H   H155      1.0  0.11342  0.95603  0.08527  1.0000
  H   H156      1.0  0.16780  0.94654  0.10116  1.0000
  H   H157      1.0  0.31101  0.81966  0.15631  1.0000
  H   H158      1.0  0.29001  0.56288  0.24694  1.0000
  S   S61       1.0  0.03687  0.78680  0.44931  1.0000
  H   H159      1.0  0.20399  0.80086  0.12093  1.0000
  S   S62       1.0  0.21110  0.52691  0.98442  1.0000
  H   H160      1.0  0.12251  0.76741  0.45425  1.0000
  C   C151      1.0  0.28411  0.53911  0.25497  1.0000
  H   H161      1.0  0.22255  0.89645  0.33682  1.0000
  N   N13       1.0  0.10251  0.65146  0.45715  1.0000
  H   H162      1.0  0.14515  0.67720  0.45789  1.0000
  H   H163      1.0  0.27806  0.68444  0.27926  1.0000
  C   C152      1.0  0.17139  0.52525  0.97627  1.0000
  H   H164      1.0  0.22266  0.69070  0.26745  1.0000
  C   C153      1.0  0.23627  0.71132  0.27419  1.0000
  C   C154      1.0  0.15118  0.53724  0.99776  1.0000
  C   C155      1.0  0.24086  0.76787  0.28352  1.0000
  N   N14       1.0  0.26821  0.84093  0.14304  1.0000
  C   C156      1.0  0.23867  0.83588  0.13289  1.0000
  C   C157      1.0  0.07821  0.64088  0.43991  1.0000
  C   C158      1.0  0.22764  0.80475  0.12834  1.0000
  C   C159      1.0  0.26329  0.97731  0.28225  1.0000
  C   C160      1.0  0.32881  0.77083  0.22326  1.0000
  H   H165      1.0  0.18483  0.90354  0.32037  1.0000
  H   H166      1.0  0.18225  0.79518  0.36630  1.0000
  C   C161      1.0  0.15756  0.82741  0.39483  1.0000
  C   C162      1.0  0.20603  0.99356  0.99261  1.0000
  H   H167      1.0  0.15855  0.90823  0.38743  1.0000
  H   H168      1.0  0.13393  0.86520  0.41758  1.0000
  C   C163      1.0  0.25953  0.52223  0.24149  1.0000
  C   C164      1.0  0.11926  0.53387  0.99390  1.0000
  C   C165      1.0  0.10118  0.66390  0.39532  1.0000
  C   C166      1.0  0.22282  0.74155  0.27547  1.0000
  S   S63       1.0  0.03685  0.68523  0.35023  1.0000
  S   S64       1.0  0.01744  0.56386  0.10680  1.0000
  C   C167      1.0  0.24723  0.77880  0.13370  1.0000
  H   H169      1.0  0.10396  0.54357  0.01049  1.0000
  C   C168      1.0  0.12584  0.67471  0.41309  1.0000
  H   H170      1.0  0.14192  0.99523  0.03678  1.0000
  H   H171      1.0  0.29286  0.76424  0.14798  1.0000
  S   S65       1.0  0.06926  0.50983  0.05466  1.0000
  H   H172      1.0  0.21058  0.96616  0.20425  1.0000
  Fe  Fe31      1.0  0.04644  0.96995  0.07311  1.0000
  N   N15       1.0  0.18485  0.87604  0.36098  1.0000
  H   H173      1.0  0.28626  0.78443  0.29553  1.0000
  H   H174      1.0  0.19766  0.92513  0.35325  1.0000
  H   H175      1.0  0.20612  0.83872  0.33628  1.0000
  C   C169      1.0  0.28767  0.81566  0.14799  1.0000
  C   C170      1.0  0.13816  0.75797  0.47129  1.0000
  H   H176      1.0  0.22326  0.85592  0.12868  1.0000
  H   H177      1.0  0.14593  0.80848  0.40728  1.0000
  H   H178      1.0  0.06055  0.51201  0.12757  1.0000
  S   S66       1.0  0.24511  0.98231  0.99425  1.0000
  C   C171      1.0  0.07719  0.64690  0.40877  1.0000
  H   H179      1.0  0.04758  0.49600  0.18002  1.0000
  C   C172      1.0  0.32919  0.73738  0.22030  1.0000
  C   C173      1.0  0.15085  0.85936  0.40066  1.0000
  H   H180      1.0  0.29301  0.87494  0.16929  1.0000
  S   S67       1.0  0.02011  0.71114  0.43470  1.0000
  S   S68       1.0  0.33280  0.54493  0.29536  1.0000
  H   H181      1.0  0.12491  0.94323  0.98656  1.0000
  H   H182      1.0  0.17726  0.92971  0.98532  1.0000
  C   C174      1.0  0.31817  0.72971  0.29574  1.0000
  Fe  Fe32      1.0  0.33894  0.65124  0.23627  1.0000
  C   C175      1.0  0.07786  0.50084  0.14210  1.0000
  H   H183      1.0  0.33031  0.51449  0.16110  1.0000
  Fe  Fe33      1.0  0.04466  0.50343  0.01030  1.0000
  H   H184      1.0  0.11317  0.50162  0.10833  1.0000
  C   C176      1.0  0.22035  0.98910  0.21075  1.0000
  S   S69       1.0  0.01345  0.76652  0.38133  1.0000
  C   C177      1.0  0.16905  0.76797  0.47189  1.0000
  Fe  Fe34      1.0  0.27413  0.99074  0.95266  1.0000
  N   N16       1.0  0.33679  0.59697  0.77564  1.0000
  Fe  Fe35      1.0  0.30207  0.52988  0.91373  1.0000
  Fe  Fe36      1.0  0.09294  0.84667  0.74639  1.0000
  H   H185      1.0  0.02999  0.84588  0.79111  1.0000
  C   C178      1.0  0.18115  0.94194  0.80590  1.0000
  C   C179      1.0  0.02116  0.55099  0.75169  1.0000
  H   H186      1.0  0.04673  0.74720  0.79465  1.0000
  S   S70       1.0  0.25249  0.51818  0.90263  1.0000
  S   S71       1.0  0.07718  0.89313  0.76589  1.0000
  Fe  Fe37      1.0  0.32924  0.78753  0.54099  1.0000
  S   S72       1.0  0.31163  0.74478  0.51622  1.0000
  S   S73       1.0  0.11251  0.92821  0.70938  1.0000
  Fe  Fe38      1.0  0.28493  0.77707  0.59335  1.0000
  S   S74       1.0  0.26407  0.73284  0.57286  1.0000
  S   S75       1.0  0.27245  0.79227  0.64039  1.0000
  Fe  Fe39      1.0  0.31305  0.72053  0.56165  1.0000
  H   H187      1.0  0.27250  0.95940  0.77818  1.0000
  Fe  Fe40      1.0  0.26456  0.76164  0.52952  1.0000
  H   H188      1.0  0.13030  0.80445  0.63573  1.0000
  C   C180      1.0  0.01263  0.54307  0.78120  1.0000
  S   S76       1.0  0.28227  0.80680  0.55100  1.0000
  H   H189      1.0  0.33209  0.82625  0.63947  1.0000
  C   C181      1.0  0.20411  0.92577  0.94523  1.0000
  S   S77       1.0  0.33012  0.57186  0.89685  1.0000
  H   H190      1.0  0.16659  0.81300  0.54700  1.0000
  C   C182      1.0  0.01091  0.73118  0.72751  1.0000
  S   S78       1.0  0.07944  0.80119  0.77094  1.0000
  C   C183      1.0  0.20568  0.91061  0.71108  1.0000
  H   H191      1.0  0.07065  0.56434  0.83809  1.0000
  C   C184      1.0  0.22512  0.90917  0.82028  1.0000
  H   H192      1.0  0.17122  0.76580  0.64978  1.0000
  S   S79       1.0  0.14220  0.86310  0.74104  1.0000
  C   C185      1.0  0.17589  0.93135  0.89820  1.0000
  C   C186      1.0  0.05401  0.77386  0.75341  1.0000
  C   C187      1.0  0.04061  0.74950  0.77094  1.0000
  H   H193      1.0  0.13166  0.85857  0.58768  1.0000
  C   C188      1.0  0.04618  0.77649  0.72274  1.0000
  H   H194      1.0  0.20838  0.77559  0.56060  1.0000
  S   S80       1.0  0.14629  0.94828  0.78624  1.0000
  H   H195      1.0  0.05658  0.79489  0.70894  1.0000
  C   C189      1.0  0.19202  0.76729  0.60586  1.0000
  H   H196      1.0  0.19454  0.86835  0.60313  1.0000
  H   H197      1.0  0.33822  0.54595  0.77267  1.0000
  S   S81       1.0  0.22804  0.76976  0.49333  1.0000
  C   C190      1.0  0.11449  0.51066  0.80113  1.0000
  H   H198      1.0  0.01775  0.50891  0.81768  1.0000
  H   H199      1.0  0.12175  0.65745  0.50158  1.0000
  C   C191      1.0  0.14660  0.79709  0.61876  1.0000
  Fe  Fe41      1.0  0.28733  0.96748  0.88942  1.0000
  N   N17       1.0  0.08427  0.51864  0.85559  1.0000
  H   H200      1.0  0.12746  0.94056  0.90223  1.0000
  H   H201      1.0  0.10712  0.61793  0.49329  1.0000
  C   C192      1.0  0.01899  0.72835  0.75810  1.0000
  C   C193      1.0  0.24018  0.81726  0.64386  1.0000
  C   C194      1.0  0.22946  0.83565  0.61938  1.0000
  C   C195      1.0  0.20289  0.85438  0.62225  1.0000
  C   C196      1.0  0.18669  0.85450  0.64945  1.0000
  C   C197      1.0  0.19767  0.83652  0.67411  1.0000
  C   C198      1.0  0.22456  0.81818  0.67139  1.0000
  H   H202      1.0  0.24150  0.83532  0.59817  1.0000
  C   C199      1.0  0.19802  0.96521  0.72982  1.0000
  H   H203      1.0  0.18513  0.83614  0.69504  1.0000
  H   H204      1.0  0.23278  0.80393  0.69038  1.0000
  H   H205      1.0  0.18189  0.99002  0.82309  1.0000
  C   C200      1.0  0.14803  0.72437  0.51518  1.0000
  C   C201      1.0  0.17908  0.73429  0.51568  1.0000
  C   C202      1.0  0.18959  0.75623  0.49403  1.0000
  Fe  Fe42      1.0  0.12601  0.87902  0.69481  1.0000
  Fe  Fe43      1.0  0.24744  0.50979  0.95262  1.0000
  H   H206      1.0  0.13994  0.70747  0.53199  1.0000
  H   H207      1.0  0.19489  0.72474  0.53257  1.0000
  C   C203      1.0  0.19383  0.96733  0.82242  1.0000
  N   N18       1.0  0.14536  0.81007  0.59026  1.0000
  C   C204      1.0  0.04085  0.53067  0.73575  1.0000
  H   H208      1.0  0.09695  0.55741  0.78931  1.0000
  H   H209      1.0  0.06610  0.97054  0.73737  1.0000
  H   H210      1.0  0.22570  0.92243  0.95755  1.0000
  C   C205      1.0  0.22220  0.96379  0.83760  1.0000
  S   S82       1.0  0.15182  0.87569  0.65099  1.0000
  S   S83       1.0  0.33374  0.76240  0.58540  1.0000
  N   N19       1.0  0.21525  0.93782  0.72969  1.0000
  H   H211      1.0  0.11517  0.83324  0.55852  1.0000
  H   H212      1.0  0.23720  0.88657  0.81954  1.0000
  C   C206      1.0  0.10326  0.64394  0.48959  1.0000
  C   C207      1.0  0.12736  0.50747  0.94628  1.0000
  C   C208      1.0  0.12215  0.83439  0.58273  1.0000
  S   S84       1.0  0.07803  0.85915  0.69906  1.0000
  C   C209      1.0  0.19077  0.78092  0.57696  1.0000
  C   C210      1.0  0.33429  0.69284  0.62989  1.0000
  S   S85       1.0  0.08922  0.72219  0.49153  1.0000
  Fe  Fe44      1.0  0.12483  0.91091  0.75612  1.0000
  C   C211      1.0  0.05170  0.50218  0.74910  1.0000
  C   C212      1.0  0.14891  0.93629  0.91449  1.0000
  H   H213      1.0  0.25530  0.91388  0.74673  1.0000
  S   S86       1.0  0.27362  0.92987  0.85533  1.0000
  H   H214      1.0  0.18698  0.89302  0.79231  1.0000
  N   N20       1.0  0.14955  0.93583  0.94541  1.0000
  H   H215      1.0  0.08277  0.53850  0.89953  1.0000
  C   C213      1.0  0.23790  0.93470  0.83665  1.0000
  Fe  Fe45      1.0  0.34012  0.99227  0.92939  1.0000
  Fe  Fe46      1.0  0.06606  0.90702  0.71811  1.0000
  S   S87       1.0  0.34000  0.67555  0.57077  1.0000
  H   H216      1.0  0.31027  0.62329  0.84251  1.0000
  S   S88       1.0  0.30553  0.95251  0.93525  1.0000
  C   C214      1.0  0.16978  0.77533  0.62692  1.0000
  H   H217      1.0  0.21076  0.75138  0.61231  1.0000
  H   H218      1.0  0.20673  0.88802  0.72451  1.0000
  H   H219      1.0  0.18161  0.91319  0.70249  1.0000
  H   H220      1.0  0.33057  0.70764  0.67609  1.0000
  H   H221      1.0  0.04746  0.53689  0.71293  1.0000
  C   C215      1.0  0.12758  0.73607  0.49286  1.0000
  H   H222      1.0  0.01879  0.75732  0.68608  1.0000
  H   H223      1.0  0.17524  0.93149  0.87369  1.0000
  H   H224      1.0  0.31365  0.57413  0.81236  1.0000
  H   H225      1.0  0.01287  0.57287  0.74122  1.0000
  C   C216      1.0  0.17659  0.93013  0.96081  1.0000
  H   H226      1.0  0.33131  0.67459  0.82203  1.0000
  H   H227      1.0  0.01445  0.80789  0.80090  1.0000
  H   H228      1.0  0.31999  0.56664  0.74101  1.0000
  C   C217      1.0  0.19674  0.91275  0.80490  1.0000
  C   C218      1.0  0.16710  0.80230  0.56945  1.0000
  S   S89       1.0  0.29542  0.52643  0.96374  1.0000
  H   H229      1.0  0.22091  0.90854  0.69121  1.0000
  C   C219      1.0  0.33243  0.65289  0.80882  1.0000
  C   C220      1.0  0.20369  0.92635  0.91372  1.0000
  H   H230      1.0  0.04570  0.53465  0.88067  1.0000
  C   C221      1.0  0.02140  0.97207  0.71567  1.0000
  C   C222      1.0  0.09853  0.53890  0.80666  1.0000
  H   H231      1.0  0.10101  0.83095  0.59634  1.0000
  H   H232      1.0  0.23213  0.98381  0.84950  1.0000
  H   H233      1.0  0.31415  0.70610  0.62251  1.0000
  C   C223      1.0  0.32263  0.59637  0.80310  1.0000
  S   S90       1.0  0.02083  0.93102  0.70698  1.0000
  C   C224      1.0  0.08352  0.54256  0.83422  1.0000
  C   C225      1.0  0.04679  0.98541  0.73074  1.0000
  C   C226      1.0  0.02392  0.51496  0.79471  1.0000
  H   H234      1.0  0.08117  0.65113  0.50001  1.0000
  H   H235      1.0  0.33864  0.51659  0.85871  1.0000
  C   C227      1.0  0.32048  0.62422  0.82022  1.0000
  C   C228      1.0  0.06854  0.52319  0.88435  1.0000
  C   C229      1.0  0.23454  0.98953  0.76428  1.0000
  C   C230      1.0  0.24194  0.93578  0.74640  1.0000
  C   C231      1.0  0.25195  0.96153  0.76402  1.0000
  C   C232      1.0  0.02485  0.75506  0.70979  1.0000
  H   H236      1.0  0.12537  0.50703  0.77947  1.0000
  C   C233      1.0  0.12084  0.94100  0.96181  1.0000
  H   H237      1.0  0.22489  0.92296  0.90137  1.0000
  H   H238      1.0  0.10970  0.96366  0.95406  1.0000
  C   C234      1.0  0.15949  0.51077  0.95020  1.0000
  H   H239      1.0  0.10463  0.92076  0.95800  1.0000
  H   H240      1.0  0.01250  0.87417  0.74592  1.0000
  C   C235      1.0  0.33907  0.56764  0.75793  1.0000
  S   S91       1.0  0.06723  0.51209  0.96502  1.0000
  C   C236      1.0  0.10723  0.51854  0.96847  1.0000
  H   H241      1.0  0.17502  0.50149  0.93351  1.0000
  H   H242      1.0  0.17646  0.96666  0.71718  1.0000
  H   H243      1.0  0.33084  0.78492  0.67973  1.0000
  H   H244      1.0  0.06432  0.50005  0.89632  1.0000
  C   C237      1.0  0.20735  0.99142  0.74716  1.0000
  H   H245      1.0  0.00856  0.70996  0.77193  1.0000
  H   H246      1.0  0.60798  0.30379  0.45942  1.0000
  C   C238      1.0  0.36143  0.23716  0.43996  1.0000
  H   H247      1.0  0.47037  0.22840  0.30666  1.0000
  C   C239      1.0  0.44627  0.19694  0.24010  1.0000
  C   C240      1.0  0.45949  0.11372  0.15147  1.0000
  Fe  Fe47      1.0  0.36805  0.15290  0.28702  1.0000
  S   S92       1.0  0.37783  0.18455  0.32692  1.0000
  H   H248      1.0  0.65497  0.36803  0.31269  1.0000
  S   S93       1.0  0.35881  0.18003  0.24393  1.0000
  Fe  Fe48      1.0  0.38238  0.13906  0.22140  1.0000
  S   S94       1.0  0.53263  0.31037  0.45796  1.0000
  Fe  Fe49      1.0  0.51030  0.48693  0.01857  1.0000
  Fe  Fe50      1.0  0.52308  0.23883  0.40418  1.0000
  S   S95       1.0  0.51588  0.19757  0.37248  1.0000
  S   S96       1.0  0.50536  0.28773  0.39225  1.0000
  H   H249      1.0  0.39439  0.07963  0.10195  1.0000
  S   S97       1.0  0.52569  0.04835  0.17248  1.0000
  H   H250      1.0  0.65874  0.48333  0.13223  1.0000
  C   C241      1.0  0.40502  0.04566  0.20109  1.0000
  Fe  Fe51      1.0  0.48897  0.28779  0.44034  1.0000
  C   C242      1.0  0.44590  0.11906  0.17953  1.0000
  H   H251      1.0  0.43420  0.22266  0.46114  1.0000
  C   C243      1.0  0.40582  0.06377  0.11803  1.0000
  S   S98       1.0  0.41404  0.14492  0.18169  1.0000
  H   H252      1.0  0.42569  0.19409  0.22617  1.0000
  C   C244      1.0  0.41590  0.18635  0.34080  1.0000
  C   C245      1.0  0.43810  0.16424  0.33197  1.0000
  C   C246      1.0  0.46864  0.16709  0.34265  1.0000
  C   C247      1.0  0.47707  0.19220  0.36189  1.0000
  C   C248      1.0  0.45473  0.21395  0.37105  1.0000
  C   C249      1.0  0.42421  0.21098  0.36058  1.0000
  H   H253      1.0  0.43179  0.14500  0.31695  1.0000
  H   H254      1.0  0.48582  0.15005  0.33570  1.0000
  H   H255      1.0  0.46106  0.23338  0.38585  1.0000
  H   H256      1.0  0.40712  0.22818  0.36737  1.0000
  C   C250      1.0  0.64669  0.38596  0.09148  1.0000
  H   H257      1.0  0.62584  0.41976  0.03080  1.0000
  C   C251      1.0  0.47174  0.21637  0.28512  1.0000
  Fe  Fe52      1.0  0.35014  0.08904  0.25898  1.0000
  H   H258      1.0  0.36546  0.24569  0.41710  1.0000
  S   S99       1.0  0.48415  0.47322  0.97620  1.0000
  H   H259      1.0  0.43403  0.04111  0.08453  1.0000
  H   H260      1.0  0.49164  0.07045  0.22293  1.0000
  H   H261      1.0  0.44799  0.10807  0.22712  1.0000
  H   H262      1.0  0.62639  0.34072  0.44824  1.0000
  H   H263      1.0  0.47546  0.17203  0.20925  1.0000
  H   H264      1.0  0.62541  0.37239  0.09323  1.0000
  C   C252      1.0  0.43279  0.45752  0.00908  1.0000
  C   C253      1.0  0.44437  0.46745  0.98119  1.0000
  S   S100      1.0  0.50424  0.23768  0.45115  1.0000
  Fe  Fe53      1.0  0.54971  0.26007  0.46448  1.0000
  H   H265      1.0  0.42031  0.24122  0.42736  1.0000
  S   S101      1.0  0.55901  0.43245  0.10935  1.0000
  H   H266      1.0  0.61483  0.38957  0.23093  1.0000
  H   H267      1.0  0.66668  0.45365  0.99484  1.0000
  C   C254      1.0  0.50058  0.18802  0.24890  1.0000
  C   C255      1.0  0.48260  0.08238  0.20290  1.0000
  C   C256      1.0  0.44485  0.21274  0.26766  1.0000
  H   H268      1.0  0.37725  0.31464  0.46432  1.0000
  H   H269      1.0  0.39601  0.06943  0.20761  1.0000
  H   H270      1.0  0.67082  0.35586  0.12396  1.0000
  Fe  Fe54      1.0  0.55056  0.30541  0.41092  1.0000
  S   S102      1.0  0.57005  0.25641  0.41839  1.0000
  S   S103      1.0  0.58100  0.34496  0.39283  1.0000
  C   C257      1.0  0.45775  0.10360  0.20530  1.0000
  H   H271      1.0  0.38704  0.02726  0.20545  1.0000
  S   S104      1.0  0.58485  0.01776  0.11237  1.0000
  C   C258      1.0  0.62986  0.31769  0.46058  1.0000
  N   N21       1.0  0.49915  0.20415  0.27560  1.0000
  C   C259      1.0  0.62368  0.03709  0.00954  1.0000
  C   C260      1.0  0.38048  0.45967  0.98873  1.0000
  H   H272      1.0  0.49406  0.08769  0.12719  1.0000
  S   S105      1.0  0.55916  0.47302  0.02932  1.0000
  C   C261      1.0  0.62839  0.32560  0.30329  1.0000
  C   C262      1.0  0.63748  0.35170  0.32085  1.0000
  C   C263      1.0  0.62333  0.35708  0.34874  1.0000
  C   C264      1.0  0.60041  0.33615  0.35930  1.0000
  C   C265      1.0  0.59180  0.30971  0.34202  1.0000
  C   C266      1.0  0.60564  0.30457  0.31401  1.0000
  N   N22       1.0  0.41362  0.04533  0.16920  1.0000
  H   H273      1.0  0.63002  0.37759  0.36207  1.0000
  H   H274      1.0  0.57411  0.29349  0.35001  1.0000
  H   H275      1.0  0.59861  0.28432  0.30048  1.0000
  C   C267      1.0  0.59443  0.43643  0.12884  1.0000
  C   C268      1.0  0.60382  0.41221  0.14911  1.0000
  C   C269      1.0  0.63299  0.41354  0.16322  1.0000
  C   C270      1.0  0.65297  0.43902  0.15694  1.0000
  C   C271      1.0  0.64340  0.46352  0.13712  1.0000
  C   C272      1.0  0.61413  0.46233  0.12320  1.0000
  H   H276      1.0  0.58866  0.39211  0.15348  1.0000
  H   H277      1.0  0.64029  0.39447  0.17834  1.0000
  H   H278      1.0  0.46047  0.00599  0.12193  1.0000
  N   N23       1.0  0.38512  0.22448  0.45687  1.0000
  N   N24       1.0  0.56511  0.38584  0.30274  1.0000
  C   C273      1.0  0.56152  0.36305  0.28098  1.0000
  C   C274      1.0  0.58561  0.41048  0.29885  1.0000
  C   C275      1.0  0.57913  0.36424  0.25474  1.0000
  C   C276      1.0  0.60367  0.41233  0.27290  1.0000
  C   C277      1.0  0.60041  0.38898  0.25079  1.0000
  C   C278      1.0  0.54588  0.38470  0.32974  1.0000
  H   H279      1.0  0.54559  0.34330  0.28421  1.0000
  H   H280      1.0  0.58849  0.42851  0.31611  1.0000
  H   H281      1.0  0.57728  0.34540  0.23812  1.0000
  H   H282      1.0  0.62043  0.43143  0.27012  1.0000
  H   H283      1.0  0.44750  0.00892  0.17593  1.0000
  H   H284      1.0  0.55831  0.39490  0.34961  1.0000
  H   H285      1.0  0.52424  0.39824  0.32568  1.0000
  H   H286      1.0  0.54010  0.35959  0.33618  1.0000
  H   H287      1.0  0.65652  0.07579  0.00627  1.0000
  Fe  Fe55      1.0  0.53659  0.02819  0.12667  1.0000
  H   H288      1.0  0.67379  0.23071  0.45531  1.0000
  S   S106      1.0  0.52081  0.04350  0.08028  1.0000
  H   H289      1.0  0.52213  0.17768  0.24162  1.0000
  C   C279      1.0  0.52684  0.20668  0.29481  1.0000
  H   H290      1.0  0.60706  0.48117  0.10771  1.0000
  C   C280      1.0  0.39866  0.06481  0.14877  1.0000
  C   C281      1.0  0.43549  0.02428  0.15980  1.0000
  C   C282      1.0  0.65032  0.05214  0.99843  1.0000
  H   H291      1.0  0.53005  0.18414  0.30807  1.0000
  S   S107      1.0  0.39563  0.11446  0.26481  1.0000
  S   S108      1.0  0.49455  0.48129  0.06627  1.0000
  S   S109      1.0  0.43985  0.30433  0.44708  1.0000
  S   S110      1.0  0.64295  0.31994  0.26685  1.0000
  C   C283      1.0  0.42815  0.04239  0.10829  1.0000
  C   C284      1.0  0.61571  0.00665  0.99916  1.0000
  H   H292      1.0  0.61687  0.23310  0.45835  1.0000
  S   S111      1.0  0.60126  0.05659  0.03677  1.0000
  C   C285      1.0  0.49551  0.07620  0.17470  1.0000
  H   H293      1.0  0.54769  0.21123  0.28110  1.0000
  Fe  Fe56      1.0  0.54455  0.47284  0.07789  1.0000
  H   H294      1.0  0.45070  0.12592  0.13148  1.0000
  H   H295      1.0  0.38162  0.08183  0.15627  1.0000
  C   C286      1.0  0.47427  0.18453  0.23059  1.0000
  H   H296      1.0  0.61599  0.44810  0.05980  1.0000
  H   H297      1.0  0.60023  0.40869  0.06107  1.0000
  C   C287      1.0  0.48398  0.09201  0.14897  1.0000
  H   H298      1.0  0.44838  0.45245  0.02772  1.0000
  Fe  Fe57      1.0  0.56792  0.02757  0.06507  1.0000
  H   H299      1.0  0.42298  0.22164  0.27572  1.0000
  C   C288      1.0  0.40096  0.45328  0.01273  1.0000
  H   H300      1.0  0.62249  0.48333  0.01582  1.0000
  H   H301      1.0  0.52502  0.22658  0.31121  1.0000
  C   C289      1.0  0.67227  0.37648  0.10893  1.0000
  C   C290      1.0  0.44308  0.02257  0.12929  1.0000
  N   N25       1.0  0.64816  0.41260  0.07328  1.0000
  H   H302      1.0  0.39220  0.44518  0.03429  1.0000
  C   C291      1.0  0.66257  0.00071  0.06384  1.0000
  S   S112      1.0  0.34942  0.03522  0.25861  1.0000
  H   H303      1.0  0.41747  0.19821  0.43150  1.0000
  H   H304      1.0  0.56256  0.99829  0.23595  1.0000
  C   C292      1.0  0.41572  0.22131  0.44357  1.0000
  C   C293      1.0  0.62128  0.42262  0.05523  1.0000
  H   H305      1.0  0.64744  0.30335  0.44872  1.0000
  H   H306      1.0  0.42525  0.04076  0.21607  1.0000
  C   C294      1.0  0.66905  0.03668  0.97736  1.0000
  H   H307      1.0  0.65584  0.02263  0.07494  1.0000
  C   C295      1.0  0.66635  0.47953  0.99387  1.0000
  C   C296      1.0  0.67477  0.43017  0.07164  1.0000
  H   H308      1.0  0.35201  0.49519  0.25432  1.0000
  C   C297      1.0  0.62529  0.33430  0.54339  1.0000
  H   H309      1.0  0.36215  0.25064  0.63031  1.0000
  Fe  Fe58      1.0  0.41383  0.14446  0.78136  1.0000
  S   S113      1.0  0.40422  0.09697  0.76020  1.0000
  S   S114      1.0  0.38820  0.16469  0.82061  1.0000
  Fe  Fe59      1.0  0.46730  0.15965  0.73990  1.0000
  S   S115      1.0  0.46271  0.11268  0.71592  1.0000
  S   S116      1.0  0.50422  0.19359  0.72351  1.0000
  Fe  Fe60      1.0  0.41199  0.12297  0.71635  1.0000
  S   S117      1.0  0.38616  0.11591  0.67255  1.0000
  Fe  Fe61      1.0  0.45570  0.09120  0.76188  1.0000
  S   S118      1.0  0.47299  0.04433  0.78133  1.0000
  S   S119      1.0  0.41703  0.17137  0.73720  1.0000
  S   S120      1.0  0.46492  0.13729  0.78612  1.0000
  C   C298      1.0  0.47786  0.24505  0.75196  1.0000
  C   C299      1.0  0.50067  0.23434  0.73249  1.0000
  H   H310      1.0  0.46091  0.22841  0.76067  1.0000
  C   C300      1.0  0.52085  0.03814  0.74123  1.0000
  H   H311      1.0  0.51407  0.06110  0.73185  1.0000
  C   C301      1.0  0.48376  0.46708  0.65186  1.0000
  H   H312      1.0  0.39887  0.20368  0.49914  1.0000
  N   N26       1.0  0.63911  0.32362  0.49204  1.0000
  H   H313      1.0  0.43952  0.02806  0.83611  1.0000
  C   C302      1.0  0.65276  0.17116  0.54029  1.0000
  C   C303      1.0  0.40715  0.03634  0.87166  1.0000
  H   H314      1.0  0.40162  0.18238  0.66693  1.0000
  H   H315      1.0  0.37646  0.47475  0.94220  1.0000
  C   C304      1.0  0.38682  0.27741  0.53260  1.0000
  H   H316      1.0  0.42977  0.25733  0.54880  1.0000
  H   H317      1.0  0.66511  0.35303  0.78434  1.0000
  C   C305      1.0  0.46189  0.48398  0.74357  1.0000
  C   C306      1.0  0.35780  0.14274  0.83691  1.0000
  H   H318      1.0  0.60770  0.33708  0.56034  1.0000
  H   H319      1.0  0.41267  0.26769  0.61475  1.0000
  H   H320      1.0  0.59272  0.32562  0.50736  1.0000
  C   C307      1.0  0.36147  0.39462  0.94558  1.0000
  C   C308      1.0  0.45351  0.01102  0.70663  1.0000
  C   C309      1.0  0.38822  0.11450  0.90735  1.0000
  C   C310      1.0  0.42321  0.10041  0.86641  1.0000
  H   H321      1.0  0.36543  0.21132  0.61431  1.0000
  S   S121      1.0  0.61575  0.42496  0.82649  1.0000
  C   C311      1.0  0.66078  0.00636  0.96682  1.0000
  C   C312      1.0  0.66309  0.23697  0.47639  1.0000
  H   H322      1.0  0.54210  0.49173  0.72755  1.0000
  N   N27       1.0  0.40379  0.22563  0.64106  1.0000
  C   C313      1.0  0.66742  0.25133  0.52901  1.0000
  S   S122      1.0  0.50218  0.33769  0.76567  1.0000
  H   H323      1.0  0.40292  0.40773  0.92193  1.0000
  Fe  Fe62      1.0  0.61107  0.35856  0.73328  1.0000
  C   C314      1.0  0.41619  0.20124  0.65804  1.0000
  H   H324      1.0  0.36365  0.10855  0.91172  1.0000
  S   S123      1.0  0.58981  0.35386  0.77887  1.0000
  S   S124      1.0  0.56612  0.36652  0.70905  1.0000
  C   C315      1.0  0.50036  0.29865  0.75098  1.0000
  C   C316      1.0  0.47768  0.27720  0.76113  1.0000
  C   C317      1.0  0.52247  0.25611  0.72130  1.0000
  C   C318      1.0  0.52236  0.28813  0.73057  1.0000
  H   H325      1.0  0.46050  0.28523  0.77683  1.0000
  H   H326      1.0  0.54006  0.24799  0.70609  1.0000
  H   H327      1.0  0.53972  0.30448  0.72236  1.0000
  H   H328      1.0  0.35746  0.21612  0.65403  1.0000
  H   H329      1.0  0.46403  0.45477  0.64074  1.0000
  H   H330      1.0  0.45894  0.27205  0.50277  1.0000
  C   C319      1.0  0.50538  0.02540  0.76615  1.0000
  C   C320      1.0  0.47667  0.45574  0.73555  1.0000
  C   C321      1.0  0.66179  0.45791  0.79717  1.0000
  C   C322      1.0  0.43703  0.07793  0.84774  1.0000
  C   C323      1.0  0.61698  0.32792  0.51337  1.0000
  C   C324      1.0  0.66648  0.32722  0.68945  1.0000
  C   C325      1.0  0.43476  0.27804  0.50431  1.0000
  H   H331      1.0  0.64712  0.45740  0.77731  1.0000
  S   S125      1.0  0.36690  0.26569  0.56541  1.0000
  C   C326      1.0  0.42238  0.24892  0.62908  1.0000
  N   N28       1.0  0.40180  0.09097  0.88715  1.0000
  H   H332      1.0  0.34715  0.20789  0.52154  1.0000
  H   H333      1.0  0.62444  0.25863  0.55184  1.0000
  C   C327      1.0  0.46682  0.22459  0.65328  1.0000
  H   H334      1.0  0.34791  0.29956  0.51024  1.0000
  S   S126      1.0  0.64490  0.31984  0.72218  1.0000
  C   C328      1.0  0.66327  0.35601  0.67333  1.0000
  C   C329      1.0  0.41821  0.26980  0.53037  1.0000
  H   H335      1.0  0.37339  0.39288  0.96725  1.0000
  H   H336      1.0  0.49133  0.22433  0.65863  1.0000
  Fe  Fe63      1.0  0.57458  0.41872  0.71814  1.0000
  S   S127      1.0  0.55012  0.41864  0.76248  1.0000
  Fe  Fe64      1.0  0.54543  0.36559  0.75506  1.0000
  H   H337      1.0  0.64683  0.37372  0.68047  1.0000
  C   C330      1.0  0.37059  0.22592  0.63462  1.0000
  H   H338      1.0  0.46877  0.26768  0.62611  1.0000
  C   C331      1.0  0.42888  0.04573  0.85040  1.0000
  H   H339      1.0  0.55637  0.03038  0.70841  1.0000
  H   H340      1.0  0.45631  0.48853  0.76700  1.0000
  C   C332      1.0  0.38007  0.21352  0.48563  1.0000
  C   C333      1.0  0.39392  0.05938  0.89012  1.0000
  H   H341      1.0  0.42933  0.12548  0.86384  1.0000
  H   H342      1.0  0.45748  0.18099  0.67799  1.0000
  C   C334      1.0  0.65164  0.44442  0.82434  1.0000
  H   H343      1.0  0.35198  0.13391  0.61929  1.0000
  C   C335      1.0  0.54478  0.02073  0.72802  1.0000
  N   N29       1.0  0.57147  0.24876  0.77691  1.0000
  C   C336      1.0  0.56540  0.21668  0.77476  1.0000
  C   C337      1.0  0.55499  0.26733  0.79616  1.0000
  C   C338      1.0  0.54177  0.20259  0.79158  1.0000
  C   C339      1.0  0.53113  0.25406  0.81321  1.0000
  C   C340      1.0  0.52442  0.22150  0.81075  1.0000
  C   C341      1.0  0.59602  0.26339  0.75889  1.0000
  H   H344      1.0  0.57801  0.20195  0.75916  1.0000
  H   H345      1.0  0.55937  0.29285  0.79754  1.0000
  H   H346      1.0  0.53612  0.17746  0.78872  1.0000
  H   H347      1.0  0.51727  0.26923  0.82739  1.0000
  H   H348      1.0  0.50531  0.21108  0.82306  1.0000
  H   H349      1.0  0.60168  0.24872  0.73892  1.0000
  H   H350      1.0  0.58877  0.28717  0.74987  1.0000
  H   H351      1.0  0.61720  0.26661  0.77290  1.0000
  H   H352      1.0  0.66330  0.34138  0.57468  1.0000
  S   S128      1.0  0.56668  0.45198  0.67857  1.0000
  H   H353      1.0  0.34779  0.14962  0.71490  1.0000
  C   C342      1.0  0.67039  0.44635  0.85028  1.0000
  H   H354      1.0  0.38853  0.13891  0.89708  1.0000
  C   C343      1.0  0.37205  0.29350  0.50868  1.0000
  Fe  Fe65      1.0  0.59695  0.40685  0.78202  1.0000
  C   C344      1.0  0.57530  0.46774  0.91361  1.0000
  H   H355      1.0  0.37016  0.09681  0.81896  1.0000
  C   C345      1.0  0.42394  0.47318  0.95694  1.0000
  C   C346      1.0  0.36315  0.40630  0.89213  1.0000
  H   H356      1.0  0.56251  0.44768  0.90430  1.0000
  C   C347      1.0  0.65643  0.33662  0.55145  1.0000
  S   S129      1.0  0.62192  0.41072  0.73802  1.0000
  H   H357      1.0  0.40116  0.11472  0.92915  1.0000
  H   H358      1.0  0.45396  0.08533  0.83128  1.0000
  H   H359      1.0  0.40085  0.01129  0.87418  1.0000
  H   H360      1.0  0.64335  0.14645  0.54163  1.0000
  C   C348      1.0  0.48400  0.45069  0.70526  1.0000
  C   C349      1.0  0.39202  0.46984  0.96085  1.0000
  C   C350      1.0  0.35080  0.21571  0.49840  1.0000
  C   C351      1.0  0.35461  0.10955  0.83339  1.0000
  C   C352      1.0  0.44781  0.20034  0.66439  1.0000
  C   C353      1.0  0.45413  0.24895  0.63526  1.0000
  H   H361      1.0  0.37731  0.05181  0.90687  1.0000
  H   H362      1.0  0.61526  0.45931  0.88683  1.0000
  H   H363      1.0  0.63866  0.18719  0.55445  1.0000
  C   C354      1.0  0.35294  0.13950  0.66762  1.0000
  H   H364      1.0  0.66298  0.43547  0.87124  1.0000
  C   C355      1.0  0.63516  0.25247  0.53074  1.0000
  S   S130      1.0  0.57646  0.25004  0.50773  1.0000
  H   H365      1.0  0.37584  0.41330  0.87215  1.0000
  H   H366      1.0  0.45490  0.00006  0.95464  1.0000
  H   H367      1.0  0.49607  0.42896  0.69928  1.0000
  C   C356      1.0  0.61675  0.24657  0.50514  1.0000
  H   H368      1.0  0.43573  0.00732  0.68872  1.0000
  N   N30       1.0  0.47678  0.47317  0.68360  1.0000
  C   C357      1.0  0.37833  0.40309  0.91997  1.0000
  H   H369      1.0  0.50473  0.45199  0.64989  1.0000
  H   H370      1.0  0.48264  0.43797  0.75268  1.0000
  H   H371      1.0  0.65015  0.18007  0.51662  1.0000
  C   C358      1.0  0.66971  0.32610  0.49970  1.0000
  C   C359      1.0  0.38870  0.30201  0.48272  1.0000
  H   H372      1.0  0.47129  0.02796  0.69813  1.0000
  C   C360      1.0  0.55325  0.49165  0.68023  1.0000
  C   C361      1.0  0.60520  0.47445  0.90384  1.0000
  C   C362      1.0  0.63081  0.23850  0.47802  1.0000
  H   H373      1.0  0.53909  0.48185  0.94357  1.0000
  H   H374      1.0  0.66831  0.48538  0.91440  1.0000
  H   H375      1.0  0.43281  0.48081  0.93530  1.0000
  C   C363      1.0  0.56212  0.48697  0.93553  1.0000
  C   C364      1.0  0.42007  0.29428  0.48044  1.0000
  H   H376      1.0  0.48875  0.48982  0.63954  1.0000
  H   H377      1.0  0.67384  0.17175  0.59709  1.0000
  H   H378      1.0  0.44260  0.02287  0.72616  1.0000
  C   C365      1.0  0.51456  0.99579  0.77833  1.0000
  H   H379      1.0  0.64762  0.77503  0.47155  1.0000
  H   H380      1.0  0.45637  0.71364  0.28542  1.0000
  Fe  Fe66      1.0  0.40173  0.61906  0.23883  1.0000
  H   H381      1.0  0.58110  0.88012  0.26669  1.0000
  S   S131      1.0  0.35458  0.60100  0.22574  1.0000
  Fe  Fe67      1.0  0.37819  0.65630  0.29286  1.0000
  S   S132      1.0  0.38879  0.69388  0.32783  1.0000
  H   H382      1.0  0.53846  0.98245  0.18733  1.0000
  S   S133      1.0  0.38674  0.67009  0.24463  1.0000
  H   H383      1.0  0.64825  0.78846  0.33587  1.0000
  S   S134      1.0  0.55357  0.97675  0.05569  1.0000
  H   H384      1.0  0.36823  0.97796  0.99590  1.0000
  Fe  Fe68      1.0  0.53390  0.71597  0.42891  1.0000
  S   S135      1.0  0.51261  0.67551  0.40244  1.0000
  S   S136      1.0  0.51339  0.76430  0.43657  1.0000
  C   C366      1.0  0.48449  0.56799  0.14535  1.0000
  S   S137      1.0  0.46695  0.56506  0.08522  1.0000
  C   C367      1.0  0.46199  0.57508  0.12343  1.0000
  C   C368      1.0  0.40757  0.52256  0.25539  1.0000
  S   S138      1.0  0.39698  0.60688  0.28799  1.0000
  C   C369      1.0  0.47025  0.66528  0.27731  1.0000
  C   C370      1.0  0.57967  0.95066  0.24608  1.0000
  Fe  Fe69      1.0  0.50624  0.53333  0.07079  1.0000
  S   S139      1.0  0.66710  0.93749  0.24401  1.0000
  C   C371      1.0  0.35861  0.50510  0.23259  1.0000
  C   C372      1.0  0.42124  0.68741  0.35131  1.0000
  C   C373      1.0  0.43698  0.65831  0.35106  1.0000
  C   C374      1.0  0.46416  0.65445  0.36820  1.0000
  C   C375      1.0  0.47603  0.67980  0.38532  1.0000
  C   C376      1.0  0.45973  0.70858  0.38647  1.0000
  C   C377      1.0  0.43230  0.71232  0.36956  1.0000
  C   C378      1.0  0.45680  0.99158  0.00279  1.0000
  H   H385      1.0  0.47651  0.63201  0.36748  1.0000
  H   H386      1.0  0.46873  0.72829  0.39951  1.0000
  H   H387      1.0  0.42011  0.73487  0.36989  1.0000
  C   C379      1.0  0.59806  0.89569  0.25500  1.0000
  H   H388      1.0  0.59071  0.95789  0.26707  1.0000
  C   C380      1.0  0.64069  0.52968  0.00451  1.0000
  C   C381      1.0  0.56383  0.97360  0.22865  1.0000
  H   H389      1.0  0.57101  0.88657  0.20143  1.0000
  C   C382      1.0  0.44002  0.98336  0.02848  1.0000
  C   C383      1.0  0.37533  0.52963  0.17672  1.0000
  H   H390      1.0  0.41749  0.59641  0.11499  1.0000
  H   H391      1.0  0.40944  0.61157  0.16845  1.0000
  N   N31       1.0  0.49553  0.70044  0.31248  1.0000
  C   C384      1.0  0.43490  0.59077  0.13192  1.0000
  H   H392      1.0  0.51310  0.74786  0.31122  1.0000
  C   C385      1.0  0.51604  0.67678  0.32011  1.0000
  H   H393      1.0  0.45237  0.66097  0.26049  1.0000
  S   S140      1.0  0.60857  0.55127  0.01727  1.0000
  Fe  Fe70      1.0  0.50768  0.99180  0.07428  1.0000
  H   H394      1.0  0.50984  0.73074  0.34873  1.0000
  S   S141      1.0  0.59644  0.92495  0.11886  1.0000
  H   H395      1.0  0.45004  0.53784  0.02677  1.0000
  H   H396      1.0  0.62537  0.97284  0.08229  1.0000
  H   H397      1.0  0.54303  0.92624  0.16979  1.0000
  C   C386      1.0  0.37467  0.54160  0.00547  1.0000
  H   H398      1.0  0.49772  0.57168  0.19231  1.0000
  C   C387      1.0  0.66520  0.54627  0.99097  1.0000
  C   C388      1.0  0.51380  0.64659  0.30681  1.0000
  H   H399      1.0  0.35071  0.72459  0.22239  1.0000
  Fe  Fe71      1.0  0.56168  0.78229  0.42821  1.0000
  S   S142      1.0  0.58090  0.73424  0.41701  1.0000
  S   S143      1.0  0.57076  0.82168  0.39440  1.0000
  H   H400      1.0  0.47589  0.74353  0.32890  1.0000
  C   C389      1.0  0.49881  0.73224  0.32590  1.0000
  S   S144      1.0  0.51975  0.53931  0.02226  1.0000
  C   C390      1.0  0.43035  0.59945  0.16214  1.0000
  Fe  Fe72      1.0  0.56816  0.96791  0.10402  1.0000
  H   H401      1.0  0.42316  0.54361  0.25297  1.0000
  C   C391      1.0  0.45311  0.59283  0.18394  1.0000
  C   C392      1.0  0.43313  0.54814  0.98155  1.0000
  H   H402      1.0  0.39790  0.53200  0.04808  1.0000
  H   H403      1.0  0.50543  0.55594  0.13897  1.0000
  C   C393      1.0  0.64877  0.85689  0.35726  1.0000
  C   C394      1.0  0.61776  0.84969  0.36306  1.0000
  C   C395      1.0  0.60978  0.83115  0.38836  1.0000
  C   C396      1.0  0.63295  0.82032  0.40820  1.0000
  C   C397      1.0  0.64519  0.97289  0.06771  1.0000
  C   C398      1.0  0.65314  0.94519  0.05242  1.0000
  H   H404      1.0  0.59988  0.85840  0.34785  1.0000
  H   H405      1.0  0.62690  0.80628  0.42790  1.0000
  C   C399      1.0  0.39535  0.53133  0.20169  1.0000
  C   C400      1.0  0.61906  0.92939  0.15195  1.0000
  C   C401      1.0  0.63556  0.90316  0.16380  1.0000
  C   C402      1.0  0.65168  0.90565  0.19150  1.0000
  C   C403      1.0  0.65118  0.93440  0.20742  1.0000
  C   C404      1.0  0.63552  0.96081  0.19511  1.0000
  C   C405      1.0  0.61954  0.95833  0.16751  1.0000
  H   H406      1.0  0.63533  0.88069  0.15184  1.0000
  H   H407      1.0  0.61321  0.88079  0.24081  1.0000
  H   H408      1.0  0.63951  0.92356  0.05544  1.0000
  H   H409      1.0  0.65465  0.87129  0.33775  1.0000
  C   C406      1.0  0.64137  0.49625  0.00587  1.0000
  C   C407      1.0  0.48011  0.57703  0.17550  1.0000
  H   H410      1.0  0.48867  0.61766  0.27459  1.0000
  H   H411      1.0  0.63498  0.98308  0.20736  1.0000
  C   C408      1.0  0.47288  0.69506  0.29130  1.0000
  Fe  Fe73      1.0  0.56748  0.52524  0.03707  1.0000
  H   H412      1.0  0.46794  0.71184  0.45934  1.0000
  S   S145      1.0  0.55526  0.52470  0.08647  1.0000
  C   C409      1.0  0.66073  0.74889  0.38162  1.0000
  C   C410      1.0  0.49077  0.64091  0.28521  1.0000
  H   H413      1.0  0.38232  0.53934  0.15500  1.0000
  H   H414      1.0  0.53371  0.68086  0.33725  1.0000
  S   S146      1.0  0.44798  0.60253  0.22220  1.0000
  C   C411      1.0  0.55258  0.93315  0.19159  1.0000
  H   H415      1.0  0.35168  0.53841  0.01441  1.0000
  N   N32       1.0  0.58199  0.91976  0.23634  1.0000
  H   H416      1.0  0.63706  0.74610  0.37386  1.0000
  C   C412      1.0  0.56862  0.91084  0.20953  1.0000
  C   C413      1.0  0.66397  0.82807  0.40272  1.0000
  H   H417      1.0  0.41792  0.54202  0.19889  1.0000
  H   H418      1.0  0.60669  0.97855  0.15894  1.0000
  Fe  Fe74      1.0  0.34883  0.59195  0.27539  1.0000
  C   C414      1.0  0.40050  0.53782  0.02429  1.0000
  H   H419      1.0  0.61334  0.90698  0.27227  1.0000
  Fe  Fe75      1.0  0.59187  0.73109  0.46652  1.0000
  H   H420      1.0  0.42842  0.63884  0.33745  1.0000
  C   C415      1.0  0.42103  0.72863  0.46123  1.0000
  C   C416      1.0  0.42989  0.54116  0.01232  1.0000
  H   H421      1.0  0.66374  0.88513  0.20087  1.0000
  H   H422      1.0  0.42162  0.50052  0.25763  1.0000
  H   H423      1.0  0.66478  0.57216  0.98975  1.0000
  H   H424      1.0  0.39493  0.97225  0.04568  1.0000
  H   H425      1.0  0.37399  0.74197  0.47000  1.0000
  H   H426      1.0  0.52961  0.62768  0.31348  1.0000
  N   N33       1.0  0.38650  0.52000  0.22935  1.0000
  C   C417      1.0  0.67195  0.77848  0.33496  1.0000
  H   H427      1.0  0.42170  0.74056  0.43935  1.0000
  S   S147      1.0  0.45812  0.97778  0.06410  1.0000
  C   C418      1.0  0.66953  0.73576  0.40963  1.0000
  H   H428      1.0  0.65297  0.72281  0.42334  1.0000
  C   C419      1.0  0.39283  0.98196  0.99774  1.0000
  C   C420      1.0  0.40800  0.97874  0.02589  1.0000
  C   C421      1.0  0.55022  0.96470  0.20128  1.0000
  H   H429      1.0  0.35012  0.78360  0.22770  1.0000
  H   H430      1.0  0.67282  0.75944  0.31767  1.0000
  H   H431      1.0  0.48148  0.99508  0.00455  1.0000
  S   S148      1.0  0.52119  0.97741  0.12166  1.0000
  H   H432      1.0  0.39450  0.52612  0.27656  1.0000
  C   C422      1.0  0.67199  0.84591  0.37694  1.0000
  C   C423      1.0  0.34628  0.51565  0.18013  1.0000
  C   C424      1.0  0.63403  0.99149  0.97768  1.0000
  H   H433      1.0  0.59513  0.99498  0.00726  1.0000
  C   C425      1.0  0.44701  0.71265  0.47248  1.0000
  H   H434      1.0  0.54448  0.61999  0.72004  1.0000
  N   N34       1.0  0.40767  0.55205  0.96328  1.0000
  Fe  Fe76      1.0  0.43678  0.59246  0.76394  1.0000
  S   S149      1.0  0.42631  0.59732  0.71433  1.0000
  S   S150      1.0  0.41619  0.54828  0.78530  1.0000
  Fe  Fe77      1.0  0.47799  0.65166  0.76418  1.0000
  S   S151      1.0  0.47085  0.66094  0.71473  1.0000
  S   S152      1.0  0.51116  0.68291  0.79001  1.0000
  Fe  Fe78      1.0  0.42135  0.64955  0.72377  1.0000
  S   S153      1.0  0.38131  0.67983  0.70825  1.0000
  Fe  Fe79      1.0  0.47680  0.60785  0.71054  1.0000
  S   S154      1.0  0.50621  0.58936  0.67336  1.0000
  S   S155      1.0  0.42783  0.64413  0.77399  1.0000
  S   S156      1.0  0.48782  0.59917  0.75928  1.0000
  C   C426      1.0  0.48666  0.73561  0.76052  1.0000
  C   C427      1.0  0.50975  0.72381  0.77994  1.0000
  H   H435      1.0  0.46851  0.71991  0.75260  1.0000
  C   C428      1.0  0.53854  0.53938  0.65185  1.0000
  H   H436      1.0  0.53749  0.55234  0.63056  1.0000
  C   C429      1.0  0.36955  0.67657  0.67025  1.0000
  C   C430      1.0  0.46517  0.77552  0.52493  1.0000
  C   C431      1.0  0.63137  0.94788  0.88514  1.0000
  H   H437      1.0  0.39784  0.58075  0.92450  1.0000
  N   N35       1.0  0.46739  0.98031  0.71555  1.0000
  C   C432      1.0  0.44595  0.69794  0.50099  1.0000
  C   C433      1.0  0.37418  0.53003  0.82749  1.0000
  C   C434      1.0  0.35106  0.78737  0.66566  1.0000
  C   C435      1.0  0.40466  0.79956  0.52198  1.0000
  H   H438      1.0  0.46649  0.68615  0.50974  1.0000
  S   S157      1.0  0.57625  0.78069  0.47722  1.0000
  C   C436      1.0  0.56213  0.69728  0.73207  1.0000
  H   H439      1.0  0.56983  0.69580  0.75548  1.0000
  C   C437      1.0  0.34596  0.65346  0.78039  1.0000
  S   S158      1.0  0.63597  0.89542  0.73757  1.0000
  H   H440      1.0  0.40593  0.64468  0.65736  1.0000
  C   C438      1.0  0.37607  0.58822  0.85795  1.0000
  C   C439      1.0  0.41836  0.68296  0.54731  1.0000
  H   H441      1.0  0.39558  0.83384  0.58367  1.0000
  S   S159      1.0  0.57169  0.89454  0.77780  1.0000
  S   S160      1.0  0.56968  0.87610  0.70603  1.0000
  C   C440      1.0  0.55326  0.99057  0.73962  1.0000
  H   H442      1.0  0.37326  0.50752  0.81562  1.0000
  C   C441      1.0  0.62465  0.95244  0.83005  1.0000
  C   C442      1.0  0.39409  0.55436  0.81767  1.0000
  C   C443      1.0  0.66667  0.73306  0.49329  1.0000
  C   C444      1.0  0.54478  0.67197  0.68714  1.0000
  S   S161      1.0  0.51041  0.82890  0.74955  1.0000
  C   C445      1.0  0.34783  0.62513  0.76396  1.0000
  C   C446      1.0  0.45618  0.79574  0.50107  1.0000
  H   H443      1.0  0.64448  0.81695  0.60994  1.0000
  H   H444      1.0  0.39691  0.77156  0.56225  1.0000
  S   S162      1.0  0.60207  0.82680  0.75560  1.0000
  H   H445      1.0  0.43769  0.97330  0.75310  1.0000
  C   C447      1.0  0.51025  0.78862  0.76171  1.0000
  C   C448      1.0  0.48679  0.76801  0.75164  1.0000
  C   C449      1.0  0.53287  0.74456  0.79050  1.0000
  C   C450      1.0  0.53328  0.77684  0.78121  1.0000
  H   H446      1.0  0.46877  0.77707  0.73678  1.0000
  H   H447      1.0  0.55064  0.73564  0.80573  1.0000
  H   H448      1.0  0.55112  0.79271  0.78956  1.0000
  H   H449      1.0  0.41952  0.82456  0.48189  1.0000
  S   S163      1.0  0.64291  0.86990  0.82452  1.0000
  C   C451      1.0  0.52726  0.53559  0.70514  1.0000
  C   C452      1.0  0.52545  0.55248  0.67756  1.0000
  S   S164      1.0  0.58118  0.96792  0.72082  1.0000
  H   H450      1.0  0.41071  0.60217  0.82582  1.0000
  H   H451      1.0  0.51743  0.54565  0.72521  1.0000
  H   H452      1.0  0.45978  0.92042  0.76718  1.0000
  H   H453      1.0  0.65448  0.50640  0.88087  1.0000
  C   C453      1.0  0.38588  0.65799  0.64978  1.0000
  H   H454      1.0  0.37853  0.86159  0.60951  1.0000
  H   H455      1.0  0.55065  0.63969  0.75528  1.0000
  C   C454      1.0  0.62275  0.76268  0.55823  1.0000
  H   H456      1.0  0.54562  0.75298  0.67786  1.0000
  H   H457      1.0  0.45650  0.51877  0.67415  1.0000
  H   H458      1.0  0.45063  0.75132  0.56555  1.0000
  Fe  Fe80      1.0  0.61565  0.85303  0.71336  1.0000
  H   H459      1.0  0.44319  0.52869  0.72744  1.0000
  C   C455      1.0  0.42613  0.80817  0.49992  1.0000
  Fe  Fe81      1.0  0.52984  0.75780  0.48466  1.0000
  H   H460      1.0  0.57581  0.75286  0.54388  1.0000
  H   H461      1.0  0.56153  0.49899  0.63281  1.0000
  C   C456      1.0  0.44375  0.76703  0.54712  1.0000
  H   H462      1.0  0.55336  0.79289  0.57816  1.0000
  C   C457      1.0  0.57872  0.51286  0.94705  1.0000
  C   C458      1.0  0.39383  0.71381  0.50650  1.0000
  H   H463      1.0  0.62096  0.53942  0.94550  1.0000
  C   C459      1.0  0.54841  0.72964  0.68853  1.0000
  C   C460      1.0  0.41338  0.77851  0.54532  1.0000
  H   H464      1.0  0.56453  0.74898  0.73083  1.0000
  C   C461      1.0  0.54128  0.70175  0.67273  1.0000
  H   H465      1.0  0.45617  0.54978  0.97243  1.0000
  H   H466      1.0  0.44173  0.67758  0.55652  1.0000
  C   C462      1.0  0.40131  0.79292  0.62789  1.0000
  C   C463      1.0  0.35474  0.53503  0.85206  1.0000
  C   C464      1.0  0.40130  0.76942  0.65069  1.0000
  C   C465      1.0  0.37601  0.76673  0.66969  1.0000
  N   N36       1.0  0.55459  0.67009  0.71662  1.0000
  H   H467      1.0  0.42098  0.79468  0.61306  1.0000
  H   H468      1.0  0.56882  0.52793  0.96426  1.0000
  H   H469      1.0  0.42057  0.75312  0.65352  1.0000
  C   C466      1.0  0.40972  0.98942  0.97192  1.0000
  H   H470      1.0  0.40148  0.53849  0.91757  1.0000
  C   C467      1.0  0.55845  0.63879  0.73145  1.0000
  N   N37       1.0  0.64167  0.78037  0.57664  1.0000
  C   C468      1.0  0.39517  0.58341  0.83305  1.0000
  H   H471      1.0  0.53296  0.70313  0.64954  1.0000
  H   H472      1.0  0.35471  0.83573  0.58631  1.0000
  H   H473      1.0  0.37678  0.61085  0.86962  1.0000
  S   S165      1.0  0.63358  0.82266  0.67577  1.0000
  S   S166      1.0  0.63483  0.70828  0.48576  1.0000
  C   C469      1.0  0.41092  0.55879  0.93090  1.0000
  H   H474      1.0  0.40495  0.66031  0.54549  1.0000
  H   H475      1.0  0.35846  0.62576  0.74191  1.0000
  H   H476      1.0  0.36153  0.56681  0.74612  1.0000
  S   S167      1.0  0.36763  0.81664  0.52077  1.0000
  C   C470      1.0  0.37632  0.65690  0.61928  1.0000
  H   H477      1.0  0.38899  0.64264  0.60344  1.0000
  H   H478      1.0  0.63228  0.74521  0.54306  1.0000
  C   C471      1.0  0.53836  0.97842  0.76509  1.0000
  C   C472      1.0  0.46841  0.93357  0.74776  1.0000
  H   H479      1.0  0.61527  0.92720  0.88340  1.0000
  C   C473      1.0  0.65331  0.50518  0.90592  1.0000
  H   H480      1.0  0.60291  0.93969  0.83175  1.0000
  H   H481      1.0  0.54474  0.95542  0.77436  1.0000
  H   H482      1.0  0.65100  0.94003  0.89981  1.0000
  Fe  Fe82      1.0  0.55718  0.85247  0.74982  1.0000
  H   H483      1.0  0.61976  0.96815  0.89635  1.0000
  Fe  Fe83      1.0  0.61827  0.87120  0.77939  1.0000
  C   C474      1.0  0.37647  0.83727  0.59983  1.0000
  H   H484      1.0  0.43535  0.56254  0.92451  1.0000
  C   C475      1.0  0.55910  0.72742  0.71830  1.0000
  H   H485      1.0  0.53913  0.65038  0.67474  1.0000
  Fe  Fe84      1.0  0.58819  0.91612  0.73440  1.0000
  S   S168      1.0  0.39195  0.99197  0.93587  1.0000
  H   H486      1.0  0.58304  0.63160  0.73112  1.0000
  C   C476      1.0  0.59076  0.76683  0.55864  1.0000
  H   H487      1.0  0.37562  0.74842  0.68730  1.0000
  C   C477      1.0  0.66973  0.97411  0.85315  1.0000
  C   C478      1.0  0.39424  0.72930  0.47833  1.0000
  C   C479      1.0  0.54129  0.50511  0.70650  1.0000
  C   C480      1.0  0.59762  0.80721  0.59674  1.0000
  C   C481      1.0  0.66310  0.97793  0.79901  1.0000
  H   H488      1.0  0.35528  0.67561  0.77113  1.0000
  C   C482      1.0  0.63475  0.96232  0.80152  1.0000
  S   S169      1.0  0.50312  0.76106  0.52799  1.0000
  C   C483      1.0  0.60842  0.51908  0.93651  1.0000
  H   H489      1.0  0.50275  0.98589  0.79770  1.0000
  H   H490      1.0  0.50259  0.89812  0.73733  1.0000
  C   C484      1.0  0.57816  0.78932  0.57796  1.0000
  C   C485      1.0  0.45600  0.96341  0.73963  1.0000
  C   C486      1.0  0.49088  0.96808  0.69891  1.0000
  C   C487      1.0  0.55224  0.50917  0.65315  1.0000
  H   H491      1.0  0.58824  0.82467  0.61210  1.0000
  C   C488      1.0  0.62952  0.80261  0.59556  1.0000
  N   N38       1.0  0.64230  0.95805  0.85533  1.0000
  C   C489      1.0  0.35073  0.67469  0.60924  1.0000
  C   C490      1.0  0.35188  0.81069  0.64277  1.0000
  N   N39       1.0  0.41962  0.69886  0.51767  1.0000
  N   N40       1.0  0.37666  0.81301  0.62404  1.0000
  C   C491      1.0  0.35553  0.56419  0.86725  1.0000
  H   H492      1.0  0.62081  0.95765  0.78146  1.0000
  C   C492      1.0  0.66714  0.76507  0.48377  1.0000
  H   H493      1.0  0.40664  0.69852  0.56383  1.0000
  S   S170      1.0  0.54676  0.70795  0.47747  1.0000
  C   C493      1.0  0.49248  0.92103  0.73101  1.0000
  C   C494      1.0  0.34356  0.69362  0.66030  1.0000
  H   H494      1.0  0.47263  0.80260  0.48401  1.0000
  C   C495      1.0  0.44169  0.99437  0.97456  1.0000
  H   H495      1.0  0.66297  0.52788  0.91497  1.0000
  H   H496      1.0  0.37293  0.71417  0.51968  1.0000
  C   C496      1.0  0.50384  0.93838  0.70645  1.0000
  N   N41       1.0  0.62147  0.49970  0.91550  1.0000
  H   H497      1.0  0.52318  0.92936  0.69382  1.0000
  H   H498      1.0  0.62742  0.96810  0.96952  1.0000
  C   C497      1.0  0.45441  0.50659  0.72131  1.0000
  H   H499      1.0  0.35864  0.55193  0.96024  1.0000
  H   H500      1.0  0.67142  0.98521  0.77697  1.0000
  H   H501      1.0  0.50034  0.98166  0.68017  1.0000
  C   C498      1.0  0.46190  0.50072  0.69122  1.0000
  C   C499      1.0  0.37873  0.54897  0.97485  1.0000
  C   C500      1.0  0.67378  0.82208  0.67226  1.0000
  H   H502      1.0  0.67383  0.77437  0.65430  1.0000
  Fe  Fe85      1.0  0.73938  0.39118  0.26223  1.0000
  S   S171      1.0  0.75210  0.39142  0.21361  1.0000
  S   S172      1.0  0.77269  0.41876  0.29144  1.0000
  Fe  Fe86      1.0  0.74100  0.33908  0.21458  1.0000
  S   S173      1.0  0.77507  0.30674  0.19205  1.0000
  S   S174      1.0  0.73241  0.33781  0.26434  1.0000
  Fe  Fe87      1.0  0.82437  0.13724  0.23421  1.0000
  S   S175      1.0  0.84834  0.13721  0.27923  1.0000
  S   S176      1.0  0.77769  0.16098  0.23308  1.0000
  C   C501      1.0  0.70074  0.42143  0.08885  1.0000
  Fe  Fe88      1.0  0.70189  0.39952  0.20474  1.0000
  C   C502      1.0  0.76128  0.08023  0.26655  1.0000
  C   C503      1.0  0.96932  0.07586  0.10981  1.0000
  C   C504      1.0  0.76569  0.05447  0.28642  1.0000
  Fe  Fe89      1.0  0.89142  0.14511  0.25286  1.0000
  S   S177      1.0  0.92034  0.18724  0.26757  1.0000
  S   S178      1.0  0.93499  0.23752  0.44358  1.0000
  S   S179      1.0  0.86685  0.14864  0.20779  1.0000
  Fe  Fe90      1.0  0.85655  0.08513  0.27175  1.0000
  H   H503      1.0  0.90528  0.22314  0.34100  1.0000
  C   C505      1.0  0.88834  0.46490  0.99953  1.0000
  H   H504      1.0  0.76168  0.00360  0.29252  1.0000
  H   H505      1.0  0.96753  0.12975  0.40345  1.0000
  H   H506      1.0  0.88647  0.17007  0.33361  1.0000
  C   C506      1.0  0.94362  0.17111  0.38556  1.0000
  C   C507      1.0  0.88027  0.06214  0.01663  1.0000
  C   C508      1.0  0.92180  0.04784  0.12139  1.0000
  C   C509      1.0  0.75813  0.02353  0.27700  1.0000
  C   C510      1.0  0.90381  0.16127  0.34945  1.0000
  S   S180      1.0  0.84550  0.05045  0.30927  1.0000
  H   H507      1.0  0.93833  0.23010  0.36444  1.0000
  Fe  Fe91      1.0  0.68345  0.34921  0.25080  1.0000
  C   C511      1.0  0.91528  0.07008  0.14391  1.0000
  H   H508      1.0  0.95757  0.18772  0.39861  1.0000
  H   H509      1.0  0.90617  0.02804  0.11740  1.0000
  C   C512      1.0  0.74825  0.47700  0.27471  1.0000
  Fe  Fe92      1.0  0.87409  0.09531  0.20651  1.0000
  N   N42       1.0  0.92156  0.18222  0.36579  1.0000
  C   C513      1.0  0.99086  0.03478  0.17719  1.0000
  H   H510      1.0  0.95372  0.03308  0.08755  1.0000
  C   C514      1.0  0.95231  0.18105  0.29172  1.0000
  C   C515      1.0  0.96157  0.15036  0.30085  1.0000
  C   C516      1.0  0.98581  0.14664  0.32204  1.0000
  C   C517      1.0  0.91469  0.25676  0.47243  1.0000
  H   H511      1.0  0.87348  0.48583  0.35392  1.0000
  C   C518      1.0  0.96800  0.20783  0.30295  1.0000
  H   H512      1.0  0.94979  0.12955  0.29198  1.0000
  H   H513      1.0  0.71909  0.38785  0.12173  1.0000
  H   H514      1.0  0.97806  0.11842  0.13574  1.0000
  H   H515      1.0  0.96134  0.23159  0.29548  1.0000
  S   S181      1.0  0.90232  0.09259  0.24955  1.0000
  H   H516      1.0  0.89107  0.49475  0.06295  1.0000
  S   S182      1.0  0.68947  0.40268  0.25363  1.0000
  C   C519      1.0  0.94913  0.13826  0.38863  1.0000
  H   H517      1.0  0.73445  0.03932  0.20584  1.0000
  H   H518      1.0  0.85578  0.02037  0.25174  1.0000
  Fe  Fe93      1.0  0.98597  0.24557  0.43674  1.0000
  C   C520      1.0  0.76930  0.47842  0.19849  1.0000
  H   H519      1.0  0.93060  0.11290  0.16634  1.0000
  C   C521      1.0  0.77492  0.45946  0.28141  1.0000
  C   C522      1.0  0.74284  0.04340  0.22866  1.0000
  H   H520      1.0  0.72159  0.43576  0.08797  1.0000
  C   C523      1.0  0.90682  0.06629  0.03453  1.0000
  C   C524      1.0  0.69939  0.39444  0.10765  1.0000
  C   C525      1.0  0.93757  0.04932  0.99267  1.0000
  H   H521      1.0  0.87546  0.25253  0.23413  1.0000
  C   C526      1.0  0.92060  0.46686  0.00163  1.0000
  H   H522      1.0  0.85794  0.06713  0.02622  1.0000
  H   H523      1.0  0.82419  0.46156  0.28745  1.0000
  C   C527      1.0  0.77383  0.26561  0.20127  1.0000
  C   C528      1.0  0.79789  0.24577  0.19203  1.0000
  C   C529      1.0  0.79910  0.21356  0.20141  1.0000
  C   C530      1.0  0.77588  0.20081  0.21958  1.0000
  C   C531      1.0  0.75123  0.22035  0.22797  1.0000
  C   C532      1.0  0.75036  0.25279  0.21912  1.0000
  H   H524      1.0  0.81595  0.25545  0.17798  1.0000
  H   H525      1.0  0.81795  0.19859  0.19449  1.0000
  H   H526      1.0  0.73310  0.21058  0.24189  1.0000
  H   H527      1.0  0.73164  0.26787  0.22625  1.0000
  H   H528      1.0  0.87520  0.45782  0.01910  1.0000
  C   C533      1.0  0.68785  0.00042  0.04455  1.0000
  S   S183      1.0  0.69169  0.34705  0.20066  1.0000
  C   C534      1.0  0.96083  0.02928  0.18719  1.0000
  H   H529      1.0  0.00226  0.05709  0.18297  1.0000
  H   H530      1.0  0.00434  0.22486  0.33213  1.0000
  C   C535      1.0  0.91618  0.21675  0.36310  1.0000
  N   N43       1.0  0.88239  0.05172  0.98751  1.0000
  H   H531      1.0  0.99257  0.12293  0.32954  1.0000
  H   H532      1.0  0.85701  0.20472  0.26136  1.0000
  H   H533      1.0  0.95644  0.06279  0.03608  1.0000
  S   S184      1.0  0.69054  0.43986  0.17234  1.0000
  C   C536      1.0  0.99207  0.20410  0.32411  1.0000
  S   S185      1.0  0.82907  0.08426  0.22883  1.0000
  H   H534      1.0  0.75205  0.45958  0.19826  1.0000
  C   C537      1.0  0.93554  0.09562  0.14902  1.0000
  H   H535      1.0  0.77559  0.05834  0.30875  1.0000
  H   H536      1.0  0.90138  0.22478  0.38187  1.0000
  H   H537      1.0  0.70091  0.02233  0.04123  1.0000
  C   C538      1.0  0.96241  0.09862  0.13178  1.0000
  C   C539      1.0  0.94889  0.05051  0.10462  1.0000
  H   H538      1.0  0.77767  0.25715  0.28985  1.0000
  S   S186      1.0  0.93928  0.45788  0.03627  1.0000
  C   C540      1.0  0.00050  0.17358  0.33438  1.0000
  N   N44       1.0  0.83764  0.28172  0.24723  1.0000
  C   C541      1.0  0.85441  0.25404  0.24701  1.0000
  C   C542      1.0  0.81062  0.28312  0.26278  1.0000
  C   C543      1.0  0.84414  0.22681  0.26253  1.0000
  C   C544      1.0  0.79973  0.25631  0.27862  1.0000
  C   C545      1.0  0.81655  0.22792  0.27828  1.0000
  C   C546      1.0  0.84778  0.30915  0.22895  1.0000
  S   S187      1.0  0.88286  0.06365  0.16654  1.0000
  H   H539      1.0  0.79661  0.30458  0.26190  1.0000
  H   H540      1.0  0.76743  0.10435  0.27337  1.0000
  H   H541      1.0  0.80763  0.20648  0.28917  1.0000
  C   C547      1.0  0.94531  0.00154  0.17843  1.0000
  H   H542      1.0  0.84310  0.30429  0.20465  1.0000
  H   H543      1.0  0.83515  0.33134  0.23472  1.0000
  H   H544      1.0  0.87281  0.31366  0.23243  1.0000
  H   H545      1.0  0.84708  0.48866  0.20357  1.0000
  C   C548      1.0  0.83627  0.01212  0.29564  1.0000
  H   H546      1.0  0.90509  0.07440  0.05767  1.0000
  S   S188      1.0  0.99927  0.25199  0.38847  1.0000
  C   C549      1.0  0.93745  0.47563  0.97612  1.0000
  H   H547      1.0  0.87323  0.22952  0.46401  1.0000
  C   C550      1.0  0.93565  0.05981  0.02241  1.0000
  H   H548      1.0  0.72605  0.46511  0.27425  1.0000
  H   H549      1.0  0.80725  0.44533  0.20318  1.0000
  N   N45       1.0  0.74679  0.01833  0.24849  1.0000
  H   H550      1.0  0.94908  0.04709  0.20050  1.0000
  H   H551      1.0  0.92151  0.99783  0.18501  1.0000
  C   C551      1.0  0.74978  0.07475  0.23748  1.0000
  Fe  Fe94      1.0  0.98923  0.47242  0.04039  1.0000
  H   H552      1.0  0.74698  0.09472  0.22174  1.0000
  C   C552      1.0  0.90842  0.12822  0.35222  1.0000
  C   C553      1.0  0.93138  0.11672  0.37182  1.0000
  H   H553      1.0  0.89467  0.11166  0.33882  1.0000
  H   H554      1.0  0.93567  0.09120  0.37367  1.0000
  C   C554      1.0  0.80351  0.47507  0.28230  1.0000
  C   C555      1.0  0.80050  0.47025  0.20105  1.0000
  H   H555      1.0  0.96233  0.47705  0.97752  1.0000
  H   H556      1.0  0.81835  0.47040  0.35619  1.0000
  S   S189      1.0  0.00370  0.07942  0.08941  1.0000
  C   C556      1.0  0.84369  0.00360  0.26615  1.0000
  H   H557      1.0  0.76584  0.48355  0.34212  1.0000
  H   H558      1.0  0.83458  0.04046  0.98268  1.0000
  H   H559      1.0  0.95977  0.04337  0.98323  1.0000
  H   H560      1.0  0.72503  0.99713  0.99829  1.0000
  H   H561      1.0  0.67584  0.45139  0.05729  1.0000
  N   N46       1.0  0.00536  0.01275  0.15972  1.0000
  C   C557      1.0  0.82451  0.49529  0.35220  1.0000
  H   H562      1.0  0.81511  0.99655  0.33707  1.0000
  C   C558      1.0  0.82277  0.49446  0.20132  1.0000
  C   C559      1.0  0.91058  0.04560  0.97538  1.0000
  C   C560      1.0  0.73428  0.41107  0.77982  1.0000
  C   C561      1.0  0.99837  0.42305  0.72288  1.0000
  Fe  Fe95      1.0  0.78844  0.03412  0.90564  1.0000
  H   H563      1.0  0.75218  0.42287  0.72437  1.0000
  S   S190      1.0  0.81263  0.08059  0.89495  1.0000
  S   S191      1.0  0.87160  0.48515  0.91088  1.0000
  C   C562      1.0  0.83145  0.25956  0.68008  1.0000
  S   S192      1.0  0.00782  0.33979  0.74862  1.0000
  C   C563      1.0  0.74639  0.16984  0.56961  1.0000
  C   C564      1.0  0.69469  0.38116  0.75554  1.0000
  H   H564      1.0  0.80930  0.26506  0.66969  1.0000
  Fe  Fe96      1.0  0.81248  0.28637  0.55809  1.0000
  S   S193      1.0  0.79647  0.23573  0.55179  1.0000
  S   S194      1.0  0.86076  0.30375  0.54831  1.0000
  Fe  Fe97      1.0  0.75270  0.30582  0.58891  1.0000
  S   S195      1.0  0.73262  0.25650  0.58623  1.0000
  S   S196      1.0  0.72456  0.34695  0.60585  1.0000
  Fe  Fe98      1.0  0.78005  0.23986  0.59934  1.0000
  S   S197      1.0  0.78810  0.20076  0.63371  1.0000
  Fe  Fe99      1.0  0.75058  0.25744  0.53902  1.0000
  C   C565      1.0  0.94972  0.04943  0.84510  1.0000
  S   S198      1.0  0.79858  0.28925  0.60672  1.0000
  S   S199      1.0  0.76817  0.30792  0.54075  1.0000
  H   H565      1.0  0.93721  0.44711  0.79160  1.0000
  Fe  Fe100     1.0  0.91350  0.11429  0.75473  1.0000
  S   S200      1.0  0.93677  0.10306  0.71093  1.0000
  S   S201      1.0  0.87350  0.08178  0.76555  1.0000
  Fe  Fe101     1.0  0.95883  0.16775  0.76984  1.0000
  S   S202      1.0  0.98517  0.16070  0.72745  1.0000
  H   H566      1.0  0.92717  0.03651  0.74197  1.0000
  Fe  Fe102     1.0  0.93880  0.15646  0.70502  1.0000
  S   S203      1.0  0.93033  0.18376  0.66149  1.0000
  Fe  Fe103     1.0  0.98063  0.10830  0.73774  1.0000
  S   S204      1.0  0.74760  0.01065  0.88314  1.0000
  S   S205      1.0  0.91231  0.16756  0.74687  1.0000
  S   S206      1.0  0.95736  0.11553  0.78194  1.0000
  C   C566      1.0  0.91183  0.29445  0.51369  1.0000
  H   H567      1.0  0.79694  0.23550  0.73446  1.0000
  S   S207      1.0  0.77076  0.02477  0.95247  1.0000
  H   H568      1.0  0.81017  0.19695  0.72144  1.0000
  H   H569      1.0  0.86294  0.21328  0.73463  1.0000
  C   C567      1.0  0.82769  0.19353  0.63916  1.0000
  C   C568      1.0  0.83758  0.17173  0.66148  1.0000
  C   C569      1.0  0.86915  0.16810  0.66801  1.0000
  C   C570      1.0  0.89092  0.18607  0.65202  1.0000
  C   C571      1.0  0.88104  0.20719  0.62911  1.0000
  C   C572      1.0  0.84949  0.21095  0.62271  1.0000
  H   H570      1.0  0.82082  0.15800  0.67410  1.0000
  H   H571      1.0  0.87662  0.15152  0.68555  1.0000
  H   H572      1.0  0.89766  0.22147  0.61690  1.0000
  H   H573      1.0  0.84210  0.22793  0.60551  1.0000
  C   C573      1.0  0.72278  0.17039  0.59067  1.0000
  C   C574      1.0  0.70557  0.31013  0.65414  1.0000
  H   H574      1.0  0.71378  0.46248  0.86906  1.0000
  C   C575      1.0  0.72743  0.41597  0.72476  1.0000
  H   H575      1.0  0.98287  0.03248  0.77823  1.0000
  C   C576      1.0  0.80551  0.22223  0.71469  1.0000
  H   H576      1.0  0.72190  0.29240  0.64685  1.0000
  S   S208      1.0  0.77955  0.46461  0.90147  1.0000
  C   C577      1.0  0.85439  0.04852  0.96883  1.0000
  C   C578      1.0  0.70964  0.47438  0.82169  1.0000
  H   H577      1.0  0.00788  0.40051  0.71545  1.0000
  C   C579      1.0  0.70027  0.37814  0.80976  1.0000
  C   C580      1.0  0.88117  0.28539  0.51904  1.0000
  H   H578      1.0  0.97746  0.03950  0.70798  1.0000
  H   H579      1.0  0.95212  0.28750  0.48631  1.0000
  C   C581      1.0  0.82960  0.08122  0.85902  1.0000
  C   C582      1.0  0.82143  0.05827  0.83757  1.0000
  C   C583      1.0  0.83459  0.05926  0.80879  1.0000
  C   C584      1.0  0.85656  0.08268  0.80147  1.0000
  C   C585      1.0  0.86525  0.10533  0.82306  1.0000
  C   C586      1.0  0.85152  0.10477  0.85171  1.0000
  H   H580      1.0  0.80455  0.04004  0.84299  1.0000
  H   H581      1.0  0.82780  0.04166  0.79219  1.0000
  H   H582      1.0  0.88229  0.12339  0.81762  1.0000
  H   H583      1.0  0.85792  0.12257  0.86826  1.0000
  H   H584      1.0  0.68123  0.25663  0.54870  1.0000
  H   H585      1.0  0.70280  0.17134  0.50551  1.0000
  C   C587      1.0  0.88848  0.24448  0.70528  1.0000
  C   C588      1.0  0.88673  0.26628  0.68125  1.0000
  H   H586      1.0  0.96214  0.22385  0.50256  1.0000
  H   H587      1.0  0.91072  0.23774  0.71481  1.0000
  C   C589      1.0  0.99668  0.02443  0.71453  1.0000
  C   C590      1.0  0.68771  0.30435  0.67988  1.0000
  H   H588      1.0  0.90763  0.27658  0.67203  1.0000
  H   H589      1.0  0.78707  0.22134  0.69700  1.0000
  C   C591      1.0  0.86142  0.23049  0.71618  1.0000
  H   H590      1.0  0.85649  0.29061  0.64958  1.0000
  N   N47       1.0  0.68512  0.17147  0.55032  1.0000
  H   H591      1.0  0.73712  0.40691  0.82845  1.0000
  C   C592      1.0  0.68133  0.36191  0.64776  1.0000
  S   S209      1.0  0.72129  0.47406  0.96499  1.0000
  C   C593      1.0  0.98852  0.19041  0.58011  1.0000
  C   C594      1.0  0.88410  0.24765  0.47784  1.0000
  C   C595      1.0  0.95740  0.19803  0.57538  1.0000
  H   H592      1.0  0.98483  0.40420  0.76598  1.0000
  H   H593      1.0  0.75283  0.42856  0.77891  1.0000
  H   H594      1.0  0.70305  0.33420  0.53571  1.0000
  C   C596      1.0  0.92859  0.28021  0.49042  1.0000
  N   N48       1.0  0.93529  0.02575  0.78814  1.0000
  C   C597      1.0  0.68151  0.24366  0.50180  1.0000
  C   C598      1.0  0.97998  0.28110  0.74855  1.0000
  H   H595      1.0  0.72346  0.39862  0.70613  1.0000
  H   H596      1.0  0.92255  0.31273  0.52747  1.0000
  H   H597      1.0  0.84371  0.25492  0.50487  1.0000
  H   H598      1.0  0.84862  0.07173  0.95763  1.0000
  H   H599      1.0  0.77031  0.16964  0.57718  1.0000
  C   C599      1.0  0.91267  0.02867  0.80917  1.0000
  N   N49       1.0  0.83348  0.23759  0.70315  1.0000
  C   C600      1.0  0.91945  0.04072  0.83787  1.0000
  H   H600      1.0  0.94094  0.19438  0.59339  1.0000
  C   C601      1.0  0.92214  0.48138  0.94841  1.0000
  C   C602      1.0  0.85804  0.27413  0.66867  1.0000
  C   C603      1.0  0.70242  0.33896  0.63806  1.0000
  H   H601      1.0  0.68732  0.32245  0.48290  1.0000
  C   C604      1.0  0.67880  0.33259  0.52950  1.0000
  C   C605      1.0  0.92749  0.01539  0.75744  1.0000
  C   C606      1.0  0.72538  0.39902  0.80801  1.0000
  H   H602      1.0  0.97037  0.28830  0.72686  1.0000
  H   H603      1.0  0.95524  0.05924  0.86712  1.0000
  S   S210      1.0  0.72189  0.24138  0.49900  1.0000
  H   H604      1.0  0.92375  0.21661  0.54333  1.0000
  C   C607      1.0  0.97275  0.04597  0.82365  1.0000
  C   C608      1.0  0.86737  0.26190  0.50107  1.0000
  C   C609      1.0  0.98522  0.24146  0.78868  1.0000
  H   H605      1.0  0.95861  0.23432  0.74796  1.0000
  C   C610      1.0  0.69923  0.46155  0.84903  1.0000
  N   N50       1.0  0.71908  0.40188  0.75402  1.0000
  H   H606      1.0  0.85726  0.03018  0.95108  1.0000
  C   C611      1.0  0.69083  0.47273  0.79580  1.0000
  H   H607      1.0  0.96174  0.48105  0.80012  1.0000
  C   C612      1.0  0.96137  0.45600  0.79179  1.0000
  H   H608      1.0  0.88899  0.02254  0.80354  1.0000
  H   H609      1.0  0.91229  0.03698  0.95244  1.0000
  C   C613      1.0  0.97318  0.25066  0.76048  1.0000
  C   C614      1.0  0.70816  0.17059  0.52953  1.0000
  C   C615      1.0  0.99948  0.45007  0.70417  1.0000
  S   S211      1.0  0.97821  0.20295  0.80336  1.0000
  H   H610      1.0  0.68947  0.04846  0.96886  1.0000
  C   C616      1.0  0.98538  0.42536  0.75153  1.0000
  Fe  Fe104     1.0  0.73295  0.99647  0.92993  1.0000
  C   C617      1.0  0.88990  0.47912  0.94624  1.0000
  H   H611      1.0  0.71315  0.43757  0.72020  1.0000
  C   C618      1.0  0.96927  0.21461  0.52450  1.0000
  H   H612      1.0  0.99570  0.18104  0.60205  1.0000
  H   H613      1.0  0.72839  0.17064  0.61466  1.0000
  C   C619      1.0  0.97411  0.48029  0.74273  1.0000
  C   C620      1.0  0.99962  0.30199  0.76432  1.0000
  C   C621      1.0  0.94777  0.21032  0.54736  1.0000
  H   H614      1.0  0.90111  0.04394  0.85403  1.0000
  C   C622      1.0  0.98686  0.47878  0.71391  1.0000
  N   N51       1.0  0.97423  0.45396  0.76140  1.0000
  C   C623      1.0  0.73910  0.17011  0.53883  1.0000
  C   C624      1.0  0.96503  0.03419  0.79505  1.0000
  H   H615      1.0  0.69030  0.28209  0.69235  1.0000
  H   H616      1.0  0.90432  0.00400  0.75624  1.0000
  C   C625      1.0  0.00431  0.26263  0.80477  1.0000
  H   H617      1.0  0.99630  0.05315  0.82873  1.0000
  H   H618      1.0  0.75728  0.17070  0.52222  1.0000
  H   H619      1.0  0.97521  0.44145  0.80817  1.0000
  C   C626      1.0  0.69207  0.17118  0.58058  1.0000
  H   H620      1.0  0.68235  0.37432  0.73516  1.0000
  C   C627      1.0  0.68486  0.36901  0.78335  1.0000
  C   C628      1.0  0.00018  0.20694  0.53004  1.0000
  H   H621      1.0  0.93536  0.48720  0.92854  1.0000
  H   H622      1.0  0.69238  0.36961  0.83158  1.0000
  H   H623      1.0  0.67880  0.38422  0.63534  1.0000
  H   H624      1.0  0.69870  0.48287  0.77466  1.0000
  H   H625      1.0  0.94460  0.99778  0.74942  1.0000
  C   C629      1.0  0.87297  0.47142  0.97199  1.0000
  H   H626      1.0  0.84813  0.46940  0.97044  1.0000
  S   S212      1.0  0.74689  0.49052  0.81928  1.0000
  Fe  Fe105     1.0  0.76677  0.89129  0.27457  1.0000
  S   S213      1.0  0.73687  0.87821  0.23488  1.0000
  S   S214      1.0  0.81185  0.91273  0.25996  1.0000
  Fe  Fe106     1.0  0.72848  0.83244  0.26047  1.0000
  S   S215      1.0  0.72891  0.78325  0.23985  1.0000
  S   S216      1.0  0.76112  0.84399  0.29829  1.0000
  Fe  Fe107     1.0  0.85808  0.65519  0.24410  1.0000
  S   S217      1.0  0.84272  0.63390  0.28795  1.0000
  S   S218      1.0  0.85567  0.70895  0.23900  1.0000
  H   H627      1.0  0.82752  0.51988  0.27811  1.0000
  C   C630      1.0  0.90131  0.69472  0.33592  1.0000
  H   H628      1.0  0.84248  0.96639  0.23280  1.0000
  H   H629      1.0  0.72029  0.51746  0.17010  1.0000
  N   N52       1.0  0.68148  0.76563  0.36456  1.0000
  Fe  Fe108     1.0  0.88877  0.60980  0.28840  1.0000
  S   S219      1.0  0.91128  0.60882  0.33463  1.0000
  C   C631      1.0  0.93843  0.53373  0.14640  1.0000
  S   S220      1.0  0.90543  0.63313  0.24568  1.0000
  H   H630      1.0  0.89187  0.83882  0.44856  1.0000
  H   H631      1.0  0.94809  0.95802  0.15282  1.0000
  S   S221      1.0  0.83701  0.61581  0.21640  1.0000
  C   C632      1.0  0.71123  0.76956  0.37456  1.0000
  C   C633      1.0  0.72073  0.75698  0.40258  1.0000
  H   H632      1.0  0.92711  0.69524  0.40684  1.0000
  Fe  Fe109     1.0  0.99736  0.75899  0.42886  1.0000
  H   H633      1.0  0.83901  0.83513  0.42680  1.0000
  C   C634      1.0  0.97820  0.58618  0.15017  1.0000
  C   C635      1.0  0.95135  0.58517  0.16775  1.0000
  S   S222      1.0  0.89557  0.55789  0.18423  1.0000
  C   C636      1.0  0.90242  0.57885  0.09655  1.0000
  C   C637      1.0  0.88571  0.97321  0.01547  1.0000
  H   H634      1.0  0.90603  0.60206  0.10680  1.0000
  H   H635      1.0  0.72638  0.97275  0.25660  1.0000
  H   H636      1.0  0.88552  0.75605  0.46015  1.0000
  H   H637      1.0  0.75481  0.52406  0.33498  1.0000
  S   S223      1.0  0.78002  0.56798  0.26736  1.0000
  C   C638      1.0  0.91830  0.53808  0.06320  1.0000
  C   C639      1.0  0.69004  0.52953  0.97857  1.0000
  N   N53       1.0  0.76052  0.50981  0.19689  1.0000
  C   C640      1.0  0.98430  0.65579  0.37126  1.0000
  C   C641      1.0  0.94670  0.62917  0.33865  1.0000
  C   C642      1.0  0.95685  0.63824  0.36754  1.0000
  C   C643      1.0  0.82082  0.99008  0.31421  1.0000
  C   C644      1.0  0.98497  0.56115  0.13039  1.0000
  H   H638      1.0  0.77531  0.55862  0.19579  1.0000
  C   C645      1.0  0.96459  0.63692  0.31356  1.0000
  H   H639      1.0  0.94324  0.63205  0.38707  1.0000
  H   H640      1.0  0.72929  0.52394  0.26607  1.0000
  H   H641      1.0  0.84691  0.58341  0.33728  1.0000
  H   H642      1.0  0.95720  0.62963  0.29125  1.0000
  S   S224      1.0  0.72912  0.91479  0.30031  1.0000
  H   H643      1.0  0.89440  0.72045  0.39897  1.0000
  Fe  Fe110     1.0  0.82625  0.59207  0.26075  1.0000
  C   C646      1.0  0.91152  0.70041  0.30650  1.0000
  H   H644      1.0  0.89248  0.67759  0.39217  1.0000
  S   S225      1.0  0.94577  0.76109  0.43516  1.0000
  H   H645      1.0  0.87507  0.97663  0.03716  1.0000
  C   C647      1.0  0.81362  0.52636  0.19901  1.0000
  H   H646      1.0  0.94597  0.60483  0.18248  1.0000
  C   C648      1.0  0.82038  0.95111  0.27384  1.0000
  C   C649      1.0  0.81239  0.95979  0.30315  1.0000
  N   N54       1.0  0.80204  0.51786  0.34778  1.0000
  S   S226      1.0  0.68639  0.85148  0.28328  1.0000
  N   N55       1.0  0.92258  0.56767  0.07564  1.0000
  H   H647      1.0  0.94139  0.60201  0.04536  1.0000
  H   H648      1.0  0.80047  0.94287  0.31757  1.0000
  H   H649      1.0  0.96872  0.57325  0.06051  1.0000
  C   C650      1.0  0.78221  0.53368  0.19673  1.0000
  H   H650      1.0  0.00167  0.96811  0.13683  1.0000
  C   C651      1.0  0.76347  0.76121  0.24332  1.0000
  C   C652      1.0  0.76440  0.72954  0.23309  1.0000
  C   C653      1.0  0.79234  0.71247  0.23330  1.0000
  C   C654      1.0  0.81951  0.72721  0.24342  1.0000
  C   C655      1.0  0.81839  0.75846  0.25453  1.0000
  C   C656      1.0  0.79050  0.77540  0.25448  1.0000
  H   H651      1.0  0.74361  0.71840  0.22438  1.0000
  H   H652      1.0  0.79303  0.68841  0.22453  1.0000
  H   H653      1.0  0.83935  0.76999  0.26234  1.0000
  H   H654      1.0  0.79032  0.79988  0.26183  1.0000
  H   H655      1.0  0.68437  0.92425  0.02108  1.0000
  H   H656      1.0  0.83077  0.54531  0.19956  1.0000
  H   H657      1.0  0.94768  0.72068  0.27938  1.0000
  Fe  Fe111     1.0  0.71980  0.86585  0.31987  1.0000
  C   C657      1.0  0.93917  0.71682  0.30207  1.0000
  H   H658      1.0  0.74337  0.96747  0.02255  1.0000
  N   N56       1.0  0.83545  0.83138  0.20882  1.0000
  C   C658      1.0  0.84453  0.80182  0.19933  1.0000
  C   C659      1.0  0.80582  0.84146  0.20398  1.0000
  C   C660      1.0  0.82370  0.78159  0.18436  1.0000
  C   C661      1.0  0.78434  0.82175  0.18929  1.0000
  C   C662      1.0  0.79338  0.79162  0.17950  1.0000
  C   C663      1.0  0.85675  0.85172  0.22609  1.0000
  H   H659      1.0  0.86763  0.79317  0.20418  1.0000
  H   H660      1.0  0.79858  0.86464  0.21208  1.0000
  H   H661      1.0  0.83065  0.75766  0.17799  1.0000
  H   H662      1.0  0.76053  0.82926  0.18649  1.0000
  H   H663      1.0  0.77659  0.77561  0.16923  1.0000
  H   H664      1.0  0.88115  0.84453  0.22321  1.0000
  H   H665      1.0  0.85464  0.87717  0.21866  1.0000
  H   H666      1.0  0.85103  0.85040  0.25050  1.0000
  C   C664      1.0  0.95598  0.72783  0.32698  1.0000
  S   S227      1.0  0.97224  0.96931  0.98111  1.0000
  C   C665      1.0  0.94824  0.58796  0.06574  1.0000
  C   C666      1.0  0.80543  0.50816  0.27690  1.0000
  C   C667      1.0  0.96498  0.53491  0.12869  1.0000
  Fe  Fe112     1.0  0.00493  0.98440  0.01853  1.0000
  H   H667      1.0  0.76170  0.51058  0.37350  1.0000
  C   C668      1.0  0.89387  0.51850  0.07234  1.0000
  N   N57       1.0  0.69526  0.97329  0.02922  1.0000
  C   C669      1.0  0.84075  0.55859  0.34148  1.0000
  C   C670      1.0  0.76949  0.50859  0.34981  1.0000
  C   C671      1.0  0.77870  0.52600  0.27140  1.0000
  C   C672      1.0  0.87767  0.55992  0.10611  1.0000
  C   C673      1.0  0.80979  0.54922  0.34263  1.0000
  H   H668      1.0  0.72628  0.98461  0.21782  1.0000
  Fe  Fe113     1.0  0.88299  0.59151  0.22180  1.0000
  H   H669      1.0  0.92298  0.51344  0.14457  1.0000
  H   H670      1.0  0.76202  0.97218  0.23590  1.0000
  H   H671      1.0  0.86253  0.56840  0.12362  1.0000
  H   H672      1.0  0.72757  0.78318  0.36119  1.0000
  N   N58       1.0  0.91820  0.70518  0.36024  1.0000
  S   S228      1.0  0.99770  0.98772  0.06849  1.0000
  H   H673      1.0  0.71914  0.95583  0.99085  1.0000
  H   H674      1.0  0.88790  0.54278  0.34434  1.0000
  H   H675      1.0  0.79203  0.56710  0.33876  1.0000
  S   S229      1.0  0.87096  0.56601  0.26500  1.0000
  C   C674      1.0  0.86380  0.53572  0.34550  1.0000
  H   H676      1.0  0.85484  0.51425  0.10166  1.0000
  H   H677      1.0  0.88019  0.68123  0.33912  1.0000
  C   C675      1.0  0.96010  0.97942  0.16021  1.0000
  C   C676      1.0  0.72768  0.51771  0.19422  1.0000
  C   C677      1.0  0.93191  0.96869  0.98535  1.0000
  H   H678      1.0  0.68725  0.79846  0.32778  1.0000
  H   H679      1.0  0.95797  0.73053  0.37541  1.0000
  C   C678      1.0  0.90731  0.69930  0.39102  1.0000
  C   C679      1.0  0.94485  0.72210  0.35607  1.0000
  H   H680      1.0  0.68177  0.81974  0.41821  1.0000
  C   C680      1.0  0.86710  0.96889  0.98961  1.0000
  C   C681      1.0  0.99251  0.65365  0.31737  1.0000
  C   C682      1.0  0.93127  0.55898  0.16566  1.0000
  S   S230      1.0  0.71114  0.85247  0.36860  1.0000
  H   H681      1.0  0.95589  0.60448  0.08393  1.0000
  Fe  Fe114     1.0  0.69867  0.89875  0.26183  1.0000
  H   H682      1.0  0.74409  0.76078  0.41079  1.0000
  H   H683      1.0  0.89831  0.69172  0.28729  1.0000
  S   S231      1.0  0.00021  0.52320  0.02780  1.0000
  C   C683      1.0  0.83615  0.97301  0.25545  1.0000
  H   H684      1.0  0.97781  0.74014  0.32389  1.0000
  C   C684      1.0  0.00222  0.66351  0.34615  1.0000
  H   H685      1.0  0.99177  0.66294  0.39357  1.0000
  S   S232      1.0  0.82659  0.96963  0.99259  1.0000
  H   H686      1.0  0.99353  0.60662  0.15158  1.0000
  H   H687      1.0  0.71339  0.49994  0.20673  1.0000
  C   C685      1.0  0.91807  0.97334  0.01335  1.0000
  H   H688      1.0  0.70678  0.72998  0.44189  1.0000
  C   C686      1.0  0.84201  0.83872  0.45089  1.0000
  H   H689      1.0  0.96949  0.51574  0.11329  1.0000
  H   H690      1.0  0.93227  0.97685  0.03331  1.0000
  H   H691      1.0  0.00642  0.65934  0.29790  1.0000
  C   C687      1.0  0.75011  0.51029  0.27017  1.0000
  C   C688      1.0  0.69975  0.73983  0.42008  1.0000
  H   H692      1.0  0.77942  0.81171  0.45513  1.0000
  C   C689      1.0  0.87351  0.52949  0.09400  1.0000
  C   C690      1.0  0.74011  0.98542  0.23912  1.0000
  C   C691      1.0  0.67846  0.94579  0.03314  1.0000
  C   C692      1.0  0.78581  0.83745  0.45620  1.0000
  H   H693      1.0  0.72285  0.54157  0.20398  1.0000
  H   H694      1.0  0.93408  0.52911  0.04648  1.0000
  H   H695      1.0  0.78420  0.84832  0.43320  1.0000
  C   C693      1.0  0.99037  0.98539  0.15108  1.0000
  C   C694      1.0  0.72210  0.97336  0.00941  1.0000
  C   C695      1.0  0.87193  0.84100  0.46298  1.0000
  C   C696      1.0  0.85570  0.50382  0.35088  1.0000
  H   H696      1.0  0.76840  0.84960  0.47031  1.0000
  C   C697      1.0  0.93244  0.76822  0.47185  1.0000
  N   N59       1.0  0.81692  0.84079  0.46920  1.0000
  C   C698      1.0  0.69069  0.49609  0.98011  1.0000
  H   H697      1.0  0.78707  0.55279  0.78161  1.0000
  C   C699      1.0  0.81564  0.59002  0.76291  1.0000
  Fe  Fe115     1.0  0.78339  0.55715  0.90446  1.0000
  C   C700      1.0  0.71779  0.73959  0.51568  1.0000
  S   S233      1.0  0.78685  0.61094  0.90476  1.0000
  H   H698      1.0  0.73376  0.80298  0.84523  1.0000
  H   H699      1.0  0.69983  0.82717  0.83825  1.0000
  C   C701      1.0  0.75736  0.58436  0.82447  1.0000
  H   H700      1.0  0.93114  0.56785  0.84753  1.0000
  H   H701      1.0  0.69171  0.69559  0.51664  1.0000
  C   C702      1.0  0.72546  0.82675  0.83732  1.0000
  Fe  Fe116     1.0  0.84589  0.77917  0.57576  1.0000
  S   S234      1.0  0.81893  0.74360  0.54862  1.0000
  S   S235      1.0  0.89490  0.79310  0.56486  1.0000
  Fe  Fe117     1.0  0.79283  0.78991  0.61945  1.0000
  S   S236      1.0  0.76170  0.75520  0.59533  1.0000
  S   S237      1.0  0.77797  0.82001  0.65880  1.0000
  Fe  Fe118     1.0  0.80413  0.72450  0.59379  1.0000
  S   S238      1.0  0.80245  0.67107  0.59985  1.0000
  Fe  Fe119     1.0  0.77967  0.77786  0.55297  1.0000
  C   C703      1.0  0.77478  0.85341  0.77290  1.0000
  S   S239      1.0  0.83415  0.75751  0.62087  1.0000
  S   S240      1.0  0.80772  0.81503  0.57708  1.0000
  C   C704      1.0  0.67520  0.77683  0.57475  1.0000
  Fe  Fe120     1.0  0.91519  0.65743  0.79291  1.0000
  S   S241      1.0  0.91098  0.60530  0.78290  1.0000
  S   S242      1.0  0.88993  0.68242  0.82981  1.0000
  Fe  Fe121     1.0  0.95972  0.66956  0.74149  1.0000
  S   S243      1.0  0.95947  0.61782  0.72765  1.0000
  H   H702      1.0  0.92237  0.63127  0.66242  1.0000
  Fe  Fe122     1.0  0.90849  0.62104  0.73447  1.0000
  S   S244      1.0  0.87506  0.59638  0.70338  1.0000
  Fe  Fe123     1.0  0.96225  0.60696  0.77736  1.0000
  H   H703      1.0  0.77623  0.85877  0.82110  1.0000
  S   S245      1.0  0.90826  0.67320  0.74481  1.0000
  S   S246      1.0  0.96686  0.65851  0.79095  1.0000
  H   H704      1.0  0.97491  0.78309  0.76959  1.0000
  C   C705      1.0  0.69545  0.90034  0.80421  1.0000
  H   H705      1.0  0.86514  0.76832  0.51064  1.0000
  S   S247      1.0  0.79738  0.52668  0.94442  1.0000
  H   H706      1.0  0.72635  0.91466  0.88565  1.0000
  C   C706      1.0  0.82137  0.65202  0.63047  1.0000
  C   C707      1.0  0.83710  0.66900  0.65315  1.0000
  C   C708      1.0  0.85354  0.65232  0.67605  1.0000
  C   C709      1.0  0.85399  0.61874  0.67631  1.0000
  C   C710      1.0  0.83770  0.60203  0.65404  1.0000
  C   C711      1.0  0.82158  0.61856  0.63122  1.0000
  H   H707      1.0  0.83687  0.69485  0.65285  1.0000
  H   H708      1.0  0.86582  0.66547  0.69329  1.0000
  H   H709      1.0  0.83782  0.57612  0.65414  1.0000
  H   H710      1.0  0.80940  0.60531  0.61386  1.0000
  C   C712      1.0  0.73783  0.82078  0.66364  1.0000
  C   C713      1.0  0.72388  0.84786  0.67590  1.0000
  Fe  Fe124     1.0  0.82071  0.49638  0.90996  1.0000
  H   H711      1.0  0.68160  0.75172  0.56968  1.0000
  H   H712      1.0  0.85200  0.60520  0.94600  1.0000
  C   C714      1.0  0.71969  0.79425  0.65610  1.0000
  H   H713      1.0  0.73775  0.86859  0.68151  1.0000
  H   H714      1.0  0.73721  0.72967  0.52816  1.0000
  H   H715      1.0  0.73036  0.77285  0.64779  1.0000
  C   C715      1.0  0.72450  0.91464  0.80885  1.0000
  C   C716      1.0  0.71775  0.91107  0.86293  1.0000
  S   S248      1.0  0.75995  0.95074  0.93138  1.0000
  C   C717      1.0  0.90920  0.78199  0.52939  1.0000
  H   H716      1.0  0.68426  0.79280  0.55668  1.0000
  H   H717      1.0  0.88778  0.72405  0.56817  1.0000
  C   C718      1.0  0.81494  0.63001  0.88253  1.0000
  C   C719      1.0  0.81908  0.66307  0.88524  1.0000
  C   C720      1.0  0.84187  0.67894  0.86861  1.0000
  C   C721      1.0  0.86044  0.66196  0.84881  1.0000
  C   C722      1.0  0.85595  0.62900  0.84555  1.0000
  C   C723      1.0  0.83339  0.61306  0.86253  1.0000
  H   H718      1.0  0.80494  0.67642  0.90063  1.0000
  H   H719      1.0  0.84528  0.70445  0.87129  1.0000
  H   H720      1.0  0.87023  0.61561  0.83053  1.0000
  H   H721      1.0  0.83058  0.58771  0.86014  1.0000
  C   C724      1.0  0.89954  0.66055  0.61546  1.0000
  C   C725      1.0  0.68772  0.79500  0.66016  1.0000
  C   C726      1.0  0.87037  0.60150  0.92999  1.0000
  C   C727      1.0  0.89988  0.56638  0.89861  1.0000
  H   H722      1.0  0.76723  0.84394  0.72554  1.0000
  H   H723      1.0  0.86903  0.66852  0.57713  1.0000
  S   S249      1.0  0.75039  0.79586  0.51400  1.0000
  H   H724      1.0  0.88081  0.65173  0.92481  1.0000
  H   H725      1.0  0.84133  0.63184  0.74919  1.0000
  C   C728      1.0  0.68075  0.98392  0.82496  1.0000
  H   H726      1.0  0.68692  0.78314  0.59636  1.0000
  H   H727      1.0  0.67580  0.88836  0.87757  1.0000
  H   H728      1.0  0.96063  0.58040  0.87408  1.0000
  Fe  Fe125     1.0  0.76567  0.50038  0.86584  1.0000
  C   C729      1.0  0.73576  0.91986  0.83824  1.0000
  C   C730      1.0  0.73044  0.82527  0.75301  1.0000
  H   H729      1.0  0.99138  0.84355  0.80608  1.0000
  H   H730      1.0  0.89107  0.63639  0.61925  1.0000
  H   H731      1.0  0.92071  0.64300  0.88645  1.0000
  H   H732      1.0  0.86495  0.55021  0.92963  1.0000
  C   C731      1.0  0.88947  0.77077  0.50658  1.0000
  C   C732      1.0  0.82427  0.62216  0.76455  1.0000
  S   S250      1.0  0.77305  0.93538  0.84396  1.0000
  H   H733      1.0  0.96499  0.50294  0.75037  1.0000
  C   C733      1.0  0.90899  0.62245  0.89627  1.0000
  H   H734      1.0  0.97659  0.78217  0.49029  1.0000
  C   C734      1.0  0.69203  0.72036  0.50917  1.0000
  H   H735      1.0  0.79622  0.86631  0.76944  1.0000
  S   S251      1.0  0.81844  0.99076  0.90404  1.0000
  H   H736      1.0  0.95883  0.65160  0.65755  1.0000
  C   C735      1.0  0.81093  0.64176  0.78605  1.0000
  Fe  Fe126     1.0  0.79915  0.98014  0.94986  1.0000
  N   N60       1.0  0.73609  0.83313  0.80653  1.0000
  C   C736      1.0  0.87730  0.57067  0.92047  1.0000
  H   H737      1.0  0.69363  0.80884  0.48205  1.0000
  C   C737      1.0  0.69322  0.78413  0.48965  1.0000
  H   H738      1.0  0.96025  0.82135  0.68026  1.0000
  H   H739      1.0  0.81798  0.66664  0.78788  1.0000
  C   C738      1.0  0.82078  0.84410  0.49975  1.0000
  N   N61       1.0  0.92118  0.67365  0.63449  1.0000
  C   C739      1.0  0.76337  0.84896  0.80208  1.0000
  N   N62       1.0  0.91494  0.59217  0.88638  1.0000
  H   H740      1.0  0.95606  0.79475  0.54092  1.0000
  H   H741      1.0  0.75875  0.59590  0.84698  1.0000
  S   S252      1.0  0.98240  0.70639  0.71119  1.0000
  H   H742      1.0  0.73407  0.58838  0.81451  1.0000
  H   H743      1.0  0.69773  0.80931  0.78595  1.0000
  C   C740      1.0  0.79374  0.57784  0.78300  1.0000
  H   H744      1.0  0.77895  0.64417  0.82258  1.0000
  C   C741      1.0  0.99627  0.99161  0.70765  1.0000
  C   C742      1.0  0.68911  0.89614  0.85832  1.0000
  C   C743      1.0  0.78895  0.62887  0.80565  1.0000
  H   H745      1.0  0.92385  0.96037  0.93794  1.0000
  C   C744      1.0  0.97812  0.80235  0.75328  1.0000
  N   N63       1.0  0.78095  0.59719  0.80420  1.0000
  C   C745      1.0  0.93363  0.65513  0.66011  1.0000
  C   C746      1.0  0.93135  0.70434  0.62998  1.0000
  S   S253      1.0  0.73850  0.53148  0.89649  1.0000
  H   H746      1.0  0.95245  0.77779  0.71833  1.0000
  H   H747      1.0  0.85353  0.84887  0.53683  1.0000
  C   C747      1.0  0.94067  0.78592  0.52343  1.0000
  H   H748      1.0  0.76041  0.55825  0.82843  1.0000
  C   C748      1.0  0.71954  0.82152  0.78246  1.0000
  S   S254      1.0  0.98793  0.56744  0.80203  1.0000
  C   C749      1.0  0.71846  0.77146  0.50582  1.0000
  C   C750      1.0  0.93831  0.58715  0.86328  1.0000
  H   H749      1.0  0.89908  0.84650  0.50380  1.0000
  H   H750      1.0  0.73837  0.92142  0.78966  1.0000
  C   C751      1.0  0.75834  0.84115  0.74827  1.0000
  C   C752      1.0  0.88707  0.67854  0.59147  1.0000
  H   H751      1.0  0.92980  0.66826  0.68139  1.0000
  C   C753      1.0  0.88651  0.62758  0.91809  1.0000
  Fe  Fe127     1.0  0.77609  0.96611  0.88557  1.0000
  H   H752      1.0  0.71737  0.81585  0.73396  1.0000
  H   H753      1.0  0.90493  0.54226  0.89124  1.0000
  H   H754      1.0  0.97666  0.98141  0.69582  1.0000
  S   S255      1.0  0.80903  0.52867  0.87082  1.0000
  H   H755      1.0  0.94845  0.71467  0.64520  1.0000
  C   C754      1.0  0.95233  0.77884  0.49478  1.0000
  H   H756      1.0  0.92757  0.74727  0.60243  1.0000
  C   C755      1.0  0.96982  0.82355  0.70291  1.0000
  C   C756      1.0  0.89733  0.70982  0.58665  1.0000
  C   C757      1.0  0.91966  0.72285  0.60594  1.0000
  C   C758      1.0  0.96522  0.79928  0.72430  1.0000
  C   C759      1.0  0.90103  0.76413  0.47785  1.0000
  C   C760      1.0  0.87602  0.84529  0.49398  1.0000
  H   H757      1.0  0.94191  0.60905  0.84922  1.0000
  C   C761      1.0  0.85037  0.84661  0.51256  1.0000
  H   H758      1.0  0.82592  0.57472  0.74611  1.0000
  C   C762      1.0  0.91327  0.96416  0.95961  1.0000
  H   H759      1.0  0.68358  0.97874  0.87326  1.0000
  H   H760      1.0  0.73404  0.84529  0.85322  1.0000
  H   H761      1.0  0.86695  0.96055  0.94173  1.0000
  C   C763      1.0  0.88101  0.96445  0.96168  1.0000
  H   H762      1.0  0.80091  0.84459  0.51440  1.0000
  H   H763      1.0  0.68117  0.86959  0.68940  1.0000
  C   C764      1.0  0.69188  0.84845  0.68040  1.0000
  H   H764      1.0  0.68717  0.89589  0.78152  1.0000
  S   S256      1.0  0.68279  0.98612  0.93986  1.0000
  C   C765      1.0  0.98691  0.85062  0.71079  1.0000
  N   N64       1.0  0.99535  0.82871  0.76062  1.0000
  H   H765      1.0  0.99060  0.86979  0.69444  1.0000
  C   C766      1.0  0.99941  0.85292  0.73998  1.0000
  H   H766      1.0  0.70879  0.54249  0.96810  1.0000
  H   H767      1.0  0.98786  0.50002  0.69965  1.0000
  Fe  Fe128     1.0  0.75486  0.49775  0.93299  1.0000
  C   C767      1.0  0.67787  0.89075  0.82900  1.0000
  C   C768      1.0  0.00823  0.83174  0.79125  1.0000
  H   H768      1.0  0.70302  0.99570  0.82331  1.0000
