data_image0
_chemical_formula_structural       FeS2CFeHSFeS2NFeHS2FeS2FeS2FeSFeS3FeS4H2FeSHSC3HC6H4C2FeHNCSH2C3SC2H3C2H3SH4C2HC3FeH2C6H6C2H2SH3C6H4C2H5C2H3SHC3H3C2H2C2H2C2HCHCHCHC2H3N2C6H6CSHNHCSHCS2HNHCHCH2CHC2H2CSFeCHCHC2H4CNCNC5H3FeCHCSH3CH2C2H2CSH3C3HC2HSCHCFeS2H2FeSC2SHFeS2FeS2FeSFeS2FeS2FeSCFeSFeS3FeS4N2FeSNSFe2S2Fe2S2H2C4H3C6H4CNCHC7H5C3FeHCH2CSHC7H4C6H6CH2C3HC3H2C2HCFeH3C5HC2HSHC3HC2SC2NC2H3FeH3CH4CNC6H9CH3CH2SCH4SHC2HC2H5C2HCH3FeCH3C2H3NC2HCH2CHCHC5HNHFeS2FeS2FeCFeS3FeSHFeS2FeCFeSCSFeS2FeS2FeSFeS3FeSCFeS2FeSHSCFeS2FeS2FeSFeS3HC2H2C3H2C6H5C6H4C2NH3CHC2H3C2H2C6H4C6H4C6NHC4HNC6H7NC6H6CH2C4HCHC2HCH4NCHNC4HCH3FeH2C3H3C2HCH3CHC2H2C2SHCH2NC5H3CH3CH4CH2C3NCH2C3H2CH10CHCH3C4HC3H2C3HC2NSH4SC2HC2SH2NFeSCSFeSCFeS2Fe2S3FeS2FeSFeSFeS3NCN2C2H2C6H5C7H5C3HC6H5C4H3SH4C3FeCHNC6H3CH8CH2S2CSHC2H3CH2SCH2NHCHSHC2H3S2NHCHCH2CH6CNC6HSH3CSC2H2CH6CHC3FeH3FeH2CHCH2CNSFeSFeS2FeSFeCS2FeSFeS2FeSFeS3FeS2FeS2FeSFeS2FeHCFeS2FeHFeS3FeSFeSHFeSFeSHSCNHNC2HCHCH2C7H4CHSH2CHC6H4C6H5CHC3HCH2C7H4C4H2C2SC2H3SH3C3H2CHCHC2NC6NC3HC2H4C2H2NCHCHCHCHSHCHCH2C2HSH2CH2CH2CHC3HNH2CH3CSH2CH3SHNSH4CHNH3NHCH2CHCHC2HCHCH2CNHCSH2C2HCFeSCSFeSNSFeS2FeS2FeSFeS3CH3C2HCFe2SFeHSCHFeSHSCHCHCHCH2CH2CH2C2H2NC2HCH3CH2CHCHC3HCH2C2H2CH2CSHC6H4CHC2HCHC3HC2HNHC2S2C3H2C2H2NHC5HCHCHSNHC7H5CH2CH2CH2CH4SCH3FeS2FeS2FeSFeCS2CHCSHFeSCSHCHC3HC2FeH2C2H3C3SHCNC2HCHSHCH2CHCHC6H6C6H5C2H2CSC4H2CHC2HC4H8CHCHC2SCH2CHCSNCH2N2C6H9C3H6FeH2C3HFeSHCHC2NHNC2HSCHFeS2FeSFeSFeS3CFeS2FeSFeHFeS3FeSHFeS2FeSFeCSHFeS2FeSFeSFeS3FeSHFeS2FeHFeS3H2SHC6H4CH2C6H4C6H5SH3C2HCH4CHC6H4CHCH2C2SNCHCHC3H3C2H3C3HC2HC2HNSHCHC3NC6H8C3HC2H3SH2CHCNC7SH6C2HCHC2HSHCHS2H2N2HCNC4H3C2H2SHCHNCHCH2C2HC2H3C2H2C4H2CHCH4SH2CFeSHFeS2FeSFeS3C2S2NCSC3SHSHCSCFeSHFeSFeSHSNCH2FeS2FeHFeNSHC2HCHCHCHCHC2HC3HC3HC2HCHFe2C5H3CH6C6H4C6H4C6H5NCSHCH7CH2CNC2HC3FeH3SCFeCH2CH2CH2CNCH2FeCSH2C3HC4H2NCH6CHC2NCH2C2H5NSCHC2HCHCHSHSH2FeS2FeS2FeSFeS3FeS2FeS2FeSFeS3FeS2FeS2Fe2S2FeS2FeSFeSFeS2C2FeSHSHFeC4H3C7H3C4HCH2C8H4C6H4C6H4CHC5H3CH2C4H2CH3CHSNHC2NFeHCH2C3HC3HCHC4HSCNC2NHSH3C2HNHCHCH3C2H3CNCHCHS2H4NH2C2FeCHCHCHCHNHC2H5C2HCHCHC2H2C2HCH2SCNC2H5CH2CH4C3H3C3HCHCHCH2CHC2HS2H2C2HC3H3NHSHFeS2FeSHFe2S3H3SFeS2FeH2FeHS2FeS2FeS2FeSFeS3FeS2FeS2FeSFeS3H3C2HSH2C6H2C6H7C6H5C8H4C5H2C6H6C3SH3C5FeNCNH2C4SHFeHC2H2SHC7HSC2HC2H3CH2CSH2C2SHFeSHCHCH2CNC6H9SCNC6H2SH2CNHNC6H8NC6HCHCH4NCH3CHCH3C2HCFeSCH2SCSCH3C4H3C2FeCH6SCSCFeSFeS2FeSFeSFe2S2HC2NSFeCHFeS2FeS2FeSFeS3C3HCHC2FeSHFeSHFeSFeS3C4H2CH2C4H7C6H4C6H4C3H2C3H4C2HCH2C2HC7H5C4H2NHCHSCH3C2H3C2HCSH2CH2C2H6CH2CHCFeNH2C4H2C2HC3HCSNCHNSC2HCH2CHCH2SC2H2N2SCNC6H4CH3CHCFeH2C3HC2HCHC3FeS2FeS2FeSFeS3C2FeS2HCSHCFeS2FeS2FeSFeS3HFeSHFeS2FeSFeHS3FeS2FeSFeSCH2FeCHCHC6H4C3HCNC6H4C6H2NHC4H3C6H4C6H4C6H4CH2NC2SCH2C5H11SH2NCH2CSH3SHCHCHC2H3CH4FeCNSC2SHC2HNH2C3FeH3C2FeSC2H2C2H3NC6H8C4H2C2HCHCH2C3H3C2HC3NH2C2H8CH3C3FeCNHCSHCFeS2FeS2FeSFeS3FeS2FeS2FeSFeS3H2FeSFeSFeSCFeSFeHSHCHCH3FeHSC6H5C8H4C6H4C6H8C3SH2CHC3SH2C4H3C9H2CHNC2H2CHCH2C2S2HSNCH4CH4C2HSNC6H9CH2C2H2CHSHCSC2HCHC2NC5H6CH2NFeHNH2CSCHCHCHC4HC3NH2C4HCH2CSHSNSH2CH2C3H2C5H2FeSFeCSFeHFeS3FeS2FeS2FeSFeS3H2C2H2FeSCSFeS2FeS2FeSFeHS2C6H4C6H4C6H4CH2CSH6SCSHC6H4C5HCHC2HC6H2C4HCSCHNC2H2FeS3HNC6H7CHC3H2C2H9CHFeSCH2C2H2CHC2SCFeH3NC3H3NC4HCH2C2HCH3NC3H2CH5C3NC4HCSH2NC2H2SCHCH2NC3H2CSHNC2HCHCH2SH2NSH3SFe2HCHFeSC2FeS2FeSCFeSFeS2CSFeHSHFeSHFeS2FeSFeS3FeCSCHFeC2S2FeS2FeS2FeSFeS3HC2HC5H2CSCSHSH2C7H4C6H3C4HCH3CHC2HCH6FeHNHC4HC2HC2HC6H2CNC6H9CH2NC6H8NC2HCH3C3FeS3HNHC2S2C2H4C2H2C2HSH5CH2CHC3NH3CNC2H3C2H2FeHSCHCH4CHFeH2CH2CHC2HFeS2NFeS2CFeS2FeS2FeSFeS3FeS3H3FeSHSHCFeSCFeS2FeCFeS3FeS2FeS2FeSFeS3CHC7H6CHC2H4C6H5C6H4CH2C6H4C3N2C5SHCHC6H4SC2HNC4H5C4H2C3NC6H7NC5H8FeHCH3SHCH2CH2CHCSHCHNFeC2SHC5H2CH2CH3CH2CSHC2HC2HC2HCH2CHCHCH5NHC4H3CHC2S2HCH2FeSNFeS2FeSFeS3FeSCFeS2FeSFeS4H2C4S2CNH2CH3CHCSH2C3SC2HC3H2C8HCH2C6H4C6H8C2H3SH7NC4HC2HCH7C2HC6H4NC6H2CH3SC4H4NH2C3SHCHC3H2CH8CH6FeHFeS2FeS2FeSFeS3FeSHFeS2FeSFeS3C2HCHC3NH2C2HCHC3H4C2H3C5NCH4CH2C4H3C6H4C2HCH2CH3SHC4HCH2NC2H4NH5CHCNHCH2C3H2C2HC2SCH2SC3HN2C7HCH6NC3HC2HC2H2FeS2FeNSFeS2FeCSFeSFeS3FeS2FeHCFeHFeS3CFeS2FeS2FeSFeS3FeHFeS2Fe2S3C6H4CHCH3C4H5SHC7H4C6H4CHC7H4C5SH2CHCFeC5H2SCHC2HCHNH5CHCH3NSHC2H3SC2H3NC6HSHCH3CHCHCNC6H8NC6H4CH5C2H3CNHC3HCHC4H2SHSHCH2CHCH2C2SCHC2H2FeS2FeS2FeSFeS3FeSFeS2FeSFeS3H5CHC2HC6H7C2HC2H2SC2NH2C6H3C7H2C4HC2H5CH3C2HCH2C2H3C4NHC2H2C2H2CH3C2HC4H2CHNCH3CHNCHCH2SCNC2SC3H2CFeS2FeS2FeSFeS3FeSHFeS2FeSFeS3HFeS2HS2FeHFeSHSFeS2FeS2FeSFeNSCFeS2Fe2S2C2SH3C2H6C6H4CHCHC7HCH3CHSH2C7H4C6H4C5H3C6H4C3SCH3CSHSCSCH2CHC2HCHC2H3NC6H8NC5H3CH2CNC5H5FeHCH3CH2C3H3CH2NC6H9FeCSCHNCNHSNC6H2CHC2HNC2HCH3CHC2HSHCH3C2HCFeH4CH2CFeHSH2SFeSFeS2FeSFeSCSCSHFeS3FeSCS3FeC2FeS2FeSFeHS2FeSCFeS2FeHFeS3FeSFeS2HC2SCH4C6H4C6H5CHCHC3NSHC2HCHC4SCH2C2HC6H4C6H2CH3FeCNC6H8CH2CNC3SH3C3HCH4CH4NHNCHC4SHNHCH3CH2C3H2CH2FeHCNCHFeH2FeCSCNCH2CHSCFeH2CH5CHCSCH2SH5CHCH2SH2SH3CH4FeCHC2H2SFeS2FeS2FeSFeS3FeS2FeS2FeSFeS3HC8H2C2H2SH2C2H2C7H4NC2H3C2HC7H3CHCHCHCHC4H2CH2C3H8CH2NCHNC8H4C3NC6H9C3HC2H2C2H2CHC2HCHCH3CSC4NC6H3NH5CH3CHC2H2N2H5SHCHC2HCNHCH2CSHSHCNSC
_chemical_formula_sum              "Fe384 S768 C2304 H2304 N192"
_cell_length_a       66.8826
_cell_length_b       66.944
_cell_length_c       67.3024
_cell_angle_alpha    77.8454
_cell_angle_beta     77.8431
_cell_angle_gamma    77.8214

_space_group_name_H-M_alt    "P 1"
_space_group_IT_number       1

loop_
  _space_group_symop_operation_xyz
  'x, y, z'

loop_
  _atom_site_type_symbol
  _atom_site_label
  _atom_site_symmetry_multiplicity
  _atom_site_fract_x
  _atom_site_fract_y
  _atom_site_fract_z
  _atom_site_occupancy
  Fe  Fe1       1.0  0.29104  0.16548  0.41090  1.0000
  S   S1        1.0  0.25857  0.15941  0.41228  1.0000
  S   S2        1.0  0.30126  0.16884  0.43968  1.0000
  C   C1        1.0  0.29222  0.02310  0.30721  1.0000
  Fe  Fe2       1.0  0.29937  0.02035  0.14351  1.0000
  H   H1        1.0  0.06497  0.10317  0.24393  1.0000
  S   S3        1.0  0.31004  0.01904  0.17372  1.0000
  Fe  Fe3       1.0  0.26806  0.01307  0.11852  1.0000
  S   S4        1.0  0.28960  0.01985  0.08858  1.0000
  S   S5        1.0  0.23857  0.99963  0.12105  1.0000
  N   N1        1.0  0.21932  0.17424  0.45946  1.0000
  Fe  Fe4       1.0  0.29625  0.04586  0.10150  1.0000
  H   H2        1.0  0.13382  0.22319  0.04496  1.0000
  S   S6        1.0  0.29268  0.99201  0.13500  1.0000
  S   S7        1.0  0.27235  0.04110  0.13036  1.0000
  Fe  Fe5       1.0  0.21188  0.11953  0.33269  1.0000
  S   S8        1.0  0.21878  0.08537  0.34460  1.0000
  S   S9        1.0  0.23539  0.13963  0.33230  1.0000
  Fe  Fe6       1.0  0.17199  0.11632  0.31822  1.0000
  S   S10       1.0  0.17600  0.08194  0.32911  1.0000
  S   S11       1.0  0.14458  0.13578  0.30393  1.0000
  Fe  Fe7       1.0  0.18463  0.08906  0.35695  1.0000
  S   S12       1.0  0.17174  0.07399  0.38867  1.0000
  Fe  Fe8       1.0  0.20983  0.08143  0.31562  1.0000
  S   S13       1.0  0.22728  0.05694  0.29667  1.0000
  S   S14       1.0  0.17820  0.12362  0.34738  1.0000
  S   S15       1.0  0.20534  0.11545  0.30238  1.0000
  Fe  Fe9       1.0  0.01578  0.16475  0.27961  1.0000
  S   S16       1.0  0.02161  0.13886  0.30593  1.0000
  S   S17       1.0  0.01581  0.19711  0.28450  1.0000
  S   S18       1.0  0.09801  0.22217  0.29703  1.0000
  S   S19       1.0  0.01180  0.10813  0.27818  1.0000
  H   H3        1.0  0.18886  0.02431  0.33296  1.0000
  H   H4        1.0  0.20988  0.04238  0.38141  1.0000
  Fe  Fe10      1.0  0.03942  0.12111  0.28115  1.0000
  S   S20       1.0  0.07019  0.10017  0.28576  1.0000
  H   H5        1.0  0.09950  0.21989  0.39703  1.0000
  S   S21       1.0  0.03510  0.14762  0.25474  1.0000
  C   C2        1.0  0.28180  0.03894  0.31828  1.0000
  C   C3        1.0  0.26296  0.02879  0.28939  1.0000
  C   C4        1.0  0.25247  0.04448  0.30060  1.0000
  H   H6        1.0  0.25572  0.02480  0.27814  1.0000
  C   C5        1.0  0.12475  0.12537  0.29782  1.0000
  C   C6        1.0  0.10819  0.13903  0.28972  1.0000
  C   C7        1.0  0.09128  0.13157  0.28620  1.0000
  C   C8        1.0  0.09099  0.11025  0.29032  1.0000
  C   C9        1.0  0.10771  0.09654  0.29807  1.0000
  C   C10       1.0  0.12442  0.10405  0.30199  1.0000
  H   H7        1.0  0.10831  0.15552  0.28641  1.0000
  H   H8        1.0  0.07857  0.14231  0.28015  1.0000
  H   H9        1.0  0.10767  0.08002  0.30124  1.0000
  H   H10       1.0  0.13702  0.09334  0.30824  1.0000
  C   C11       1.0  0.26203  0.04965  0.31494  1.0000
  C   C12       1.0  0.28271  0.01800  0.29279  1.0000
  Fe  Fe11      1.0  0.99361  0.12880  0.30055  1.0000
  H   H11       1.0  0.15301  0.18285  0.43934  1.0000
  N   N2        1.0  0.27424  0.10227  0.25798  1.0000
  C   C13       1.0  0.10550  0.19937  0.42538  1.0000
  S   S22       1.0  0.31745  0.14001  0.40318  1.0000
  H   H12       1.0  0.28203  0.15553  0.11973  1.0000
  H   H13       1.0  0.31895  0.05865  0.29972  1.0000
  C   C14       1.0  0.30140  0.06162  0.17104  1.0000
  C   C15       1.0  0.30191  0.07400  0.44278  1.0000
  C   C16       1.0  0.32107  0.10664  0.11904  1.0000
  S   S23       1.0  0.32042  0.22229  0.43066  1.0000
  C   C17       1.0  0.27560  0.08847  0.24328  1.0000
  C   C18       1.0  0.07501  0.21578  0.29327  1.0000
  H   H14       1.0  0.29260  0.06188  0.15919  1.0000
  H   H15       1.0  0.18146  0.04219  0.36307  1.0000
  H   H16       1.0  0.32186  0.16290  0.17529  1.0000
  C   C19       1.0  0.29974  0.11448  0.46588  1.0000
  C   C20       1.0  0.31123  0.09474  0.09131  1.0000
  H   H17       1.0  0.06757  0.18517  0.32633  1.0000
  H   H18       1.0  0.29418  0.12119  0.23700  1.0000
  H   H19       1.0  0.27322  0.12114  0.06793  1.0000
  S   S24       1.0  0.32287  0.20497  0.10036  1.0000
  H   H20       1.0  0.00915  0.23070  0.25265  1.0000
  H   H21       1.0  0.03340  0.05583  0.23911  1.0000
  H   H22       1.0  0.10087  0.18737  0.33594  1.0000
  H   H23       1.0  0.99102  0.22096  0.37689  1.0000
  C   C21       1.0  0.27992  0.10087  0.42329  1.0000
  C   C22       1.0  0.26528  0.10929  0.13609  1.0000
  H   H24       1.0  0.26334  0.09732  0.14964  1.0000
  C   C23       1.0  0.03878  0.20374  0.28809  1.0000
  C   C24       1.0  0.05831  0.19300  0.28067  1.0000
  C   C25       1.0  0.07637  0.19923  0.28298  1.0000
  Fe  Fe12      1.0  0.00570  0.13616  0.25384  1.0000
  H   H25       1.0  0.05951  0.18018  0.27278  1.0000
  H   H26       1.0  0.09146  0.19108  0.27692  1.0000
  C   C26       1.0  0.19558  0.09781  0.43629  1.0000
  C   C27       1.0  0.20635  0.09907  0.41601  1.0000
  C   C28       1.0  0.19890  0.09196  0.40132  1.0000
  C   C29       1.0  0.18113  0.08278  0.40707  1.0000
  C   C30       1.0  0.17082  0.08072  0.42758  1.0000
  C   C31       1.0  0.17795  0.08840  0.44216  1.0000
  H   H27       1.0  0.20698  0.09357  0.38557  1.0000
  H   H28       1.0  0.15713  0.07350  0.43209  1.0000
  H   H29       1.0  0.16988  0.08687  0.45794  1.0000
  H   H30       1.0  0.29697  0.12588  0.45234  1.0000
  H   H31       1.0  0.11210  0.13124  0.34121  1.0000
  H   H32       1.0  0.28598  0.05534  0.46872  1.0000
  C   C32       1.0  0.28415  0.06770  0.45556  1.0000
  C   C33       1.0  0.31131  0.04267  0.18076  1.0000
  H   H33       1.0  0.24716  0.10242  0.43398  1.0000
  H   H34       1.0  0.14145  0.23215  0.01767  1.0000
  S   S25       1.0  0.11300  0.17177  0.46049  1.0000
  H   H35       1.0  0.25354  0.10797  0.30732  1.0000
  H   H36       1.0  0.30629  0.13024  0.32947  1.0000
  H   H37       1.0  0.24130  0.99570  0.31347  1.0000
  C   C34       1.0  0.25289  0.15300  0.39011  1.0000
  C   C35       1.0  0.23526  0.14405  0.39186  1.0000
  C   C36       1.0  0.23015  0.13911  0.37439  1.0000
  C   C37       1.0  0.24230  0.14372  0.35494  1.0000
  C   C38       1.0  0.25998  0.15258  0.35324  1.0000
  C   C39       1.0  0.26541  0.15697  0.37077  1.0000
  H   H38       1.0  0.22557  0.14094  0.40679  1.0000
  H   H39       1.0  0.21661  0.13214  0.37584  1.0000
  H   H40       1.0  0.26947  0.15623  0.33826  1.0000
  H   H41       1.0  0.27900  0.16392  0.36921  1.0000
  C   C40       1.0  0.14130  0.19096  0.43029  1.0000
  C   C41       1.0  0.24626  0.07146  0.46610  1.0000
  H   H42       1.0  0.24574  0.13010  0.07640  1.0000
  H   H43       1.0  0.04767  0.06987  0.27537  1.0000
  H   H44       1.0  0.25263  0.00141  0.07623  1.0000
  H   H45       1.0  0.22149  0.14958  0.44312  1.0000
  H   H46       1.0  0.25697  0.10286  0.08106  1.0000
  C   C42       1.0  0.31406  0.08016  0.19214  1.0000
  C   C43       1.0  0.03032  0.08321  0.21600  1.0000
  H   H47       1.0  0.29475  0.09481  0.16944  1.0000
  H   H48       1.0  0.21834  0.18615  0.42764  1.0000
  H   H49       1.0  0.16311  0.20501  0.40570  1.0000
  S   S26       1.0  0.20388  0.10890  0.45377  1.0000
  H   H50       1.0  0.26815  0.10962  0.47408  1.0000
  C   C44       1.0  0.13200  0.21388  0.39904  1.0000
  C   C45       1.0  0.32091  0.13585  0.32576  1.0000
  C   C46       1.0  0.27260  0.12706  0.13704  1.0000
  H   H51       1.0  0.22019  0.10595  0.41148  1.0000
  H   H52       1.0  0.07398  0.06710  0.26163  1.0000
  H   H53       1.0  0.25420  0.06178  0.32357  1.0000
  C   C47       1.0  0.27557  0.14205  0.11935  1.0000
  C   C48       1.0  0.27114  0.13906  0.10089  1.0000
  H   H54       1.0  0.19643  0.17524  0.37684  1.0000
  H   H55       1.0  0.27399  0.15053  0.08708  1.0000
  C   C49       1.0  0.14699  0.20355  0.41121  1.0000
  C   C50       1.0  0.21302  0.03416  0.36846  1.0000
  H   H56       1.0  0.28894  0.04283  0.32963  1.0000
  H   H57       1.0  0.25602  0.09261  0.11656  1.0000
  C   C51       1.0  0.03537  0.10295  0.20882  1.0000
  C   C52       1.0  0.26110  0.10675  0.11734  1.0000
  H   H58       1.0  0.18828  0.14588  0.40338  1.0000
  C   C53       1.0  0.19703  0.03411  0.35813  1.0000
  H   H59       1.0  0.12078  0.16454  0.33755  1.0000
  C   C54       1.0  0.12055  0.18867  0.43738  1.0000
  H   H60       1.0  0.02002  0.07781  0.20859  1.0000
  C   C55       1.0  0.23667  0.01353  0.34509  1.0000
  H   H61       1.0  0.05128  0.12577  0.21384  1.0000
  C   C56       1.0  0.27322  0.12757  0.28623  1.0000
  C   C57       1.0  0.26237  0.11103  0.29186  1.0000
  H   H62       1.0  0.23397  0.12228  0.47068  1.0000
  H   H63       1.0  0.31725  0.06658  0.44594  1.0000
  H   H64       1.0  0.31885  0.07945  0.31267  1.0000
  N   N3        1.0  0.26410  0.12154  0.10004  1.0000
  N   N4        1.0  0.16722  0.16480  0.38431  1.0000
  C   C58       1.0  0.17230  0.15044  0.40104  1.0000
  C   C59       1.0  0.14706  0.17018  0.38123  1.0000
  C   C60       1.0  0.15688  0.14180  0.41571  1.0000
  C   C61       1.0  0.13125  0.16179  0.39559  1.0000
  C   C62       1.0  0.13622  0.14764  0.41302  1.0000
  C   C63       1.0  0.18348  0.17417  0.36934  1.0000
  H   H65       1.0  0.14299  0.18176  0.36812  1.0000
  H   H66       1.0  0.16083  0.13097  0.42932  1.0000
  H   H67       1.0  0.11516  0.16691  0.39370  1.0000
  H   H68       1.0  0.12403  0.14165  0.42473  1.0000
  H   H69       1.0  0.18982  0.16476  0.35690  1.0000
  H   H70       1.0  0.17727  0.19032  0.36232  1.0000
  C   C64       1.0  0.12940  0.22522  0.02955  1.0000
  S   S27       1.0  0.31716  0.01024  0.31152  1.0000
  H   H71       1.0  0.11298  0.17626  0.31321  1.0000
  N   N5        1.0  0.22087  0.01362  0.33501  1.0000
  H   H72       1.0  0.05059  0.12498  0.33741  1.0000
  C   C65       1.0  0.30262  0.08024  0.17687  1.0000
  S   S28       1.0  0.17005  0.15672  0.47329  1.0000
  H   H73       1.0  0.23451  0.07015  0.45717  1.0000
  C   C66       1.0  0.29974  0.09065  0.42652  1.0000
  S   S29       1.0  0.14011  0.22763  0.37422  1.0000
  S   S30       1.0  0.29950  0.07767  0.08250  1.0000
  H   H74       1.0  0.31667  0.14634  0.35489  1.0000
  N   N6        1.0  0.26476  0.07766  0.45215  1.0000
  H   H75       1.0  0.31342  0.09595  0.41682  1.0000
  C   C67       1.0  0.03741  0.22053  0.29807  1.0000
  H   H76       1.0  0.08617  0.10897  0.34394  1.0000
  C   C68       1.0  0.26249  0.09415  0.43636  1.0000
  H   H77       1.0  0.08941  0.19774  0.43080  1.0000
  H   H78       1.0  0.19421  0.19193  0.44530  1.0000
  C   C69       1.0  0.26297  0.09854  0.27744  1.0000
  H   H79       1.0  0.27806  0.11420  0.41100  1.0000
  C   C70       1.0  0.05797  0.06511  0.26126  1.0000
  C   C71       1.0  0.11119  0.21194  0.40626  1.0000
  H   H80       1.0  0.29115  0.07840  0.24165  1.0000
  H   H81       1.0  0.25232  0.00576  0.33995  1.0000
  C   C72       1.0  0.04791  0.11015  0.21890  1.0000
  S   S31       1.0  0.30679  0.19137  0.39139  1.0000
  Fe  Fe13      1.0  0.31424  0.99978  0.10545  1.0000
  C   C73       1.0  0.20128  0.02386  0.34122  1.0000
  H   H82       1.0  0.26354  0.07840  0.24831  1.0000
  C   C74       1.0  0.28505  0.11839  0.25234  1.0000
  H   H83       1.0  0.27340  0.09767  0.22785  1.0000
  C   C75       1.0  0.03790  0.07092  0.23329  1.0000
  C   C76       1.0  0.10723  0.17255  0.33010  1.0000
  H   H84       1.0  0.04130  0.16349  0.32851  1.0000
  H   H85       1.0  0.05838  0.04835  0.26174  1.0000
  H   H86       1.0  0.25430  0.08591  0.28191  1.0000
  H   H87       1.0  0.29059  0.00581  0.28419  1.0000
  C   C77       1.0  0.25966  0.11885  0.08042  1.0000
  N   N7        1.0  0.05056  0.07793  0.24284  1.0000
  C   C78       1.0  0.05544  0.09735  0.23599  1.0000
  N   N8        1.0  0.09126  0.15953  0.33383  1.0000
  C   C79       1.0  0.07164  0.16849  0.33046  1.0000
  C   C80       1.0  0.09638  0.13843  0.33911  1.0000
  C   C81       1.0  0.05666  0.15627  0.33181  1.0000
  C   C82       1.0  0.08179  0.12572  0.34063  1.0000
  C   C83       1.0  0.06185  0.13473  0.33683  1.0000
  H   H88       1.0  0.22018  0.01360  0.30366  1.0000
  H   H89       1.0  0.21540  0.98992  0.32129  1.0000
  H   H90       1.0  0.24565  0.02414  0.36958  1.0000
  Fe  Fe14      1.0  0.31997  0.19218  0.41964  1.0000
  C   C84       1.0  0.28455  0.13138  0.26631  1.0000
  H   H91       1.0  0.27652  0.12900  0.15130  1.0000
  C   C85       1.0  0.32269  0.04254  0.19615  1.0000
  S   S32       1.0  0.31470  0.10399  0.19915  1.0000
  H   H92       1.0  0.21556  0.20545  0.44318  1.0000
  H   H93       1.0  0.27303  0.13727  0.29738  1.0000
  H   H94       1.0  0.30964  0.07797  0.12240  1.0000
  C   C86       1.0  0.23302  0.02391  0.36187  1.0000
  H   H95       1.0  0.32236  0.10450  0.13512  1.0000
  H   H96       1.0  0.29337  0.14397  0.26200  1.0000
  C   C87       1.0  0.22464  0.00261  0.31754  1.0000
  C   C88       1.0  0.31390  0.09160  0.11187  1.0000
  H   H97       1.0  0.24150  0.98583  0.05079  1.0000
  H   H98       1.0  0.02885  0.11300  0.19597  1.0000
  C   C89       1.0  0.21138  0.19025  0.44312  1.0000
  S   S33       1.0  0.30717  0.23124  0.04600  1.0000
  H   H99       1.0  0.31128  0.99388  0.21948  1.0000
  H   H100      1.0  0.02231  0.22895  0.30374  1.0000
  H   H101      1.0  0.12925  0.20958  0.02649  1.0000
  C   C90       1.0  0.22365  0.15390  0.45708  1.0000
  C   C91       1.0  0.23082  0.98932  0.10198  1.0000
  C   C92       1.0  0.24044  0.99217  0.08123  1.0000
  H   H102      1.0  0.29472  0.98517  0.20685  1.0000
  C   C93       1.0  0.05547  0.22638  0.30092  1.0000
  C   C94       1.0  0.23089  0.13835  0.47258  1.0000
  H   H103      1.0  0.10335  0.22567  0.00441  1.0000
  S   S34       1.0  0.99408  0.13662  0.22397  1.0000
  C   C95       1.0  0.31973  0.10834  0.47061  1.0000
  H   H104      1.0  0.31445  0.11527  0.06192  1.0000
  C   C96       1.0  0.31637  0.11276  0.07788  1.0000
  Fe  Fe15      1.0  0.14360  0.11545  0.51428  1.0000
  S   S35       1.0  0.13333  0.14966  0.51391  1.0000
  S   S36       1.0  0.13319  0.08950  0.53944  1.0000
  H   H105      1.0  0.04662  0.04387  0.86879  1.0000
  H   H106      1.0  0.00033  0.12380  0.89615  1.0000
  Fe  Fe16      1.0  0.16741  0.15071  0.50768  1.0000
  S   S37       1.0  0.17982  0.16954  0.52478  1.0000
  C   C97       1.0  0.00934  0.08118  0.62314  1.0000
  C   C98       1.0  0.28677  0.09000  0.49541  1.0000
  S   S38       1.0  0.17756  0.11639  0.51013  1.0000
  H   H107      1.0  0.23929  0.08319  0.47621  1.0000
  Fe  Fe17      1.0  0.07075  0.09191  0.65095  1.0000
  S   S39       1.0  0.04653  0.07139  0.65988  1.0000
  S   S40       1.0  0.07446  0.11441  0.62088  1.0000
  Fe  Fe18      1.0  0.08203  0.08197  0.69372  1.0000
  S   S41       1.0  0.05936  0.06026  0.70622  1.0000
  S   S42       1.0  0.09823  0.09005  0.71604  1.0000
  Fe  Fe19      1.0  0.07059  0.04908  0.67597  1.0000
  S   S43       1.0  0.07647  0.01462  0.67745  1.0000
  Fe  Fe20      1.0  0.03736  0.08437  0.68935  1.0000
  S   S44       1.0  0.09569  0.06855  0.66490  1.0000
  S   S45       1.0  0.05927  0.10699  0.67896  1.0000
  Fe  Fe21      1.0  0.04423  0.19077  0.88413  1.0000
  S   S46       1.0  0.07025  0.17334  0.86449  1.0000
  S   S47       1.0  0.01257  0.19548  0.87527  1.0000
  Fe  Fe22      1.0  0.07338  0.20118  0.90913  1.0000
  S   S48       1.0  0.10163  0.18333  0.89157  1.0000
  C   C99       1.0  0.13267  0.00297  0.65288  1.0000
  Fe  Fe23      1.0  0.08758  0.19865  0.86348  1.0000
  S   S49       1.0  0.25044  0.01037  0.60130  1.0000
  Fe  Fe24      1.0  0.08175  0.15911  0.89397  1.0000
  S   S50       1.0  0.09463  0.12448  0.89765  1.0000
  S   S51       1.0  0.06056  0.21778  0.88042  1.0000
  S   S52       1.0  0.05449  0.17538  0.91423  1.0000
  Fe  Fe25      1.0  0.11363  0.01021  0.80686  1.0000
  S   S53       1.0  0.07985  0.02365  0.81396  1.0000
  S   S54       1.0  0.12775  0.00705  0.77419  1.0000
  S   S55       1.0  0.14408  0.11798  0.48028  1.0000
  S   S56       1.0  0.08427  0.01001  0.86267  1.0000
  N   N9        1.0  0.01087  0.03630  0.84345  1.0000
  N   N10       1.0  0.15397  0.01569  0.53529  1.0000
  Fe  Fe26      1.0  0.08919  0.03752  0.83765  1.0000
  S   S57       1.0  0.07338  0.07075  0.83973  1.0000
  N   N11       1.0  0.01402  0.11489  0.63878  1.0000
  S   S58       1.0  0.12346  0.02644  0.82832  1.0000
  Fe  Fe27      1.0  0.29627  0.06552  0.57489  1.0000
  Fe  Fe28      1.0  0.25132  0.08739  0.58163  1.0000
  S   S59       1.0  0.23988  0.06607  0.56674  1.0000
  S   S60       1.0  0.23055  0.11528  0.59264  1.0000
  Fe  Fe29      1.0  0.26052  0.04069  0.58413  1.0000
  Fe  Fe30      1.0  0.26865  0.06936  0.54305  1.0000
  S   S61       1.0  0.26976  0.06190  0.60138  1.0000
  S   S62       1.0  0.27843  0.09272  0.55658  1.0000
  H   H108      1.0  0.31911  0.04331  0.64114  1.0000
  H   H109      1.0  0.31140  0.11819  0.52755  1.0000
  C   C100      1.0  0.16887  0.12554  0.60196  1.0000
  C   C101      1.0  0.05648  0.07853  0.78591  1.0000
  C   C102      1.0  0.23386  0.14365  0.49056  1.0000
  C   C103      1.0  0.99089  0.17534  0.85778  1.0000
  H   H110      1.0  0.14928  0.04873  0.53131  1.0000
  H   H111      1.0  0.23971  0.13167  0.50259  1.0000
  H   H112      1.0  0.18832  0.07457  0.57648  1.0000
  C   C104      1.0  0.08713  0.10891  0.88311  1.0000
  C   C105      1.0  0.07151  0.11681  0.87116  1.0000
  C   C106      1.0  0.06703  0.10468  0.85848  1.0000
  C   C107      1.0  0.07804  0.08447  0.85764  1.0000
  C   C108      1.0  0.09310  0.07618  0.87017  1.0000
  C   C109      1.0  0.09763  0.08839  0.88283  1.0000
  H   H113      1.0  0.06278  0.13226  0.87170  1.0000
  H   H114      1.0  0.05516  0.11116  0.84907  1.0000
  H   H115      1.0  0.10161  0.06057  0.86977  1.0000
  H   H116      1.0  0.10957  0.08202  0.89218  1.0000
  C   C110      1.0  0.16423  0.99636  0.62836  1.0000
  N   N12       1.0  0.03842  0.09964  0.75933  1.0000
  C   C111      1.0  0.30665  0.08417  0.50055  1.0000
  H   H117      1.0  0.01768  0.15289  0.89686  1.0000
  C   C112      1.0  0.02099  0.09538  0.79465  1.0000
  C   C113      1.0  0.10820  0.06720  0.73152  1.0000
  C   C114      1.0  0.11101  0.06772  0.75142  1.0000
  C   C115      1.0  0.11691  0.04920  0.76467  1.0000
  C   C116      1.0  0.12100  0.03029  0.75763  1.0000
  C   C117      1.0  0.11902  0.02984  0.73744  1.0000
  C   C118      1.0  0.11213  0.04825  0.72454  1.0000
  H   H118      1.0  0.10809  0.08239  0.75678  1.0000
  H   H119      1.0  0.11860  0.04955  0.78023  1.0000
  H   H120      1.0  0.12236  0.01522  0.73196  1.0000
  H   H121      1.0  0.11004  0.04782  0.70914  1.0000
  H   H122      1.0  0.01872  0.06157  0.73260  1.0000
  C   C119      1.0  0.07767  0.00607  0.65422  1.0000
  C   C120      1.0  0.07487  0.02006  0.63595  1.0000
  C   C121      1.0  0.07695  0.01260  0.61742  1.0000
  Fe  Fe31      1.0  0.07805  0.99521  0.83809  1.0000
  H   H123      1.0  0.06942  0.08343  0.75363  1.0000
  C   C122      1.0  0.29423  0.02738  0.64101  1.0000
  H   H124      1.0  0.07134  0.03657  0.63602  1.0000
  H   H125      1.0  0.07508  0.02338  0.60324  1.0000
  C   C123      1.0  0.11288  0.01917  0.55539  1.0000
  S   S63       1.0  0.28871  0.04216  0.55908  1.0000
  H   H126      1.0  0.13672  0.15005  0.56795  1.0000
  C   C124      1.0  0.14804  0.13823  0.57522  1.0000
  C   C125      1.0  0.11699  0.09643  0.56216  1.0000
  C   C126      1.0  0.10662  0.11680  0.56264  1.0000
  C   C127      1.0  0.09378  0.12206  0.58081  1.0000
  C   C128      1.0  0.09121  0.10702  0.59868  1.0000
  C   C129      1.0  0.10164  0.08661  0.59832  1.0000
  C   C130      1.0  0.11449  0.08133  0.58006  1.0000
  H   H127      1.0  0.10814  0.12847  0.54890  1.0000
  H   H128      1.0  0.08568  0.13784  0.58097  1.0000
  H   H129      1.0  0.09969  0.07491  0.61204  1.0000
  H   H130      1.0  0.12252  0.06554  0.57986  1.0000
  C   C131      1.0  0.19479  0.15474  0.54305  1.0000
  C   C132      1.0  0.20633  0.13523  0.54023  1.0000
  C   C133      1.0  0.21819  0.12355  0.55493  1.0000
  C   C134      1.0  0.21797  0.13098  0.57292  1.0000
  C   C135      1.0  0.20668  0.15063  0.57563  1.0000
  C   C136      1.0  0.19533  0.16261  0.56058  1.0000
  H   H131      1.0  0.20641  0.12925  0.52657  1.0000
  H   H132      1.0  0.22724  0.10866  0.55244  1.0000
  H   H133      1.0  0.20656  0.15652  0.58946  1.0000
  H   H134      1.0  0.18658  0.17778  0.56276  1.0000
  H   H135      1.0  0.04009  0.01869  0.84963  1.0000
  H   H136      1.0  0.19361  0.09201  0.55235  1.0000
  C   C137      1.0  0.08226  0.99559  0.74267  1.0000
  H   H137      1.0  0.01028  0.23338  0.84198  1.0000
  H   H138      1.0  0.05207  0.11642  0.73102  1.0000
  C   C138      1.0  0.99643  0.08992  0.72972  1.0000
  C   C139      1.0  0.28336  0.10525  0.47820  1.0000
  C   C140      1.0  0.14533  0.00903  0.63409  1.0000
  H   H139      1.0  0.29919  0.12631  0.56177  1.0000
  C   C141      1.0  0.02105  0.10383  0.77376  1.0000
  C   C142      1.0  0.22321  0.01044  0.57539  1.0000
  C   C143      1.0  0.00383  0.17340  0.87227  1.0000
  H   H140      1.0  0.28455  0.03263  0.65468  1.0000
  H   H141      1.0  0.04556  0.98518  0.77165  1.0000
  C   C144      1.0  0.31892  0.13376  0.57948  1.0000
  C   C145      1.0  0.12428  0.22488  0.95275  1.0000
  H   H142      1.0  0.03985  0.09573  0.72864  1.0000
  C   C146      1.0  0.14250  0.03486  0.53748  1.0000
  Fe  Fe32      1.0  0.17715  0.12210  0.47631  1.0000
  H   H143      1.0  0.14034  0.02330  0.62396  1.0000
  H   H144      1.0  0.05437  0.99565  0.80152  1.0000
  H   H145      1.0  0.07052  0.06879  0.79047  1.0000
  C   C147      1.0  0.08240  0.98475  0.65398  1.0000
  C   C148      1.0  0.01805  0.06486  0.86467  1.0000
  C   C149      1.0  0.09659  0.22752  0.79518  1.0000
  C   C150      1.0  0.31357  0.03336  0.63344  1.0000
  C   C151      1.0  0.12453  0.99978  0.55257  1.0000
  H   H146      1.0  0.14720  0.15444  0.59992  1.0000
  C   C152      1.0  0.14518  0.99828  0.54250  1.0000
  C   C153      1.0  0.03244  0.04673  0.86243  1.0000
  H   H147      1.0  0.18294  0.02645  0.52590  1.0000
  S   S64       1.0  0.00465  0.09761  0.70300  1.0000
  H   H148      1.0  0.00793  0.06771  0.61728  1.0000
  C   C154      1.0  0.18127  0.08763  0.56548  1.0000
  C   C155      1.0  0.02270  0.09453  0.61171  1.0000
  C   C156      1.0  0.00780  0.02190  0.83112  1.0000
  H   H149      1.0  0.30855  0.08543  0.61065  1.0000
  C   C157      1.0  0.15393  0.14067  0.59313  1.0000
  C   C158      1.0  0.15712  0.12057  0.56647  1.0000
  S   S65       1.0  0.07138  0.22358  0.93150  1.0000
  C   C159      1.0  0.17768  0.10810  0.59275  1.0000
  C   C160      1.0  0.01689  0.13239  0.64718  1.0000
  N   N13       1.0  0.17154  0.10567  0.57537  1.0000
  C   C161      1.0  0.00774  0.15453  0.88563  1.0000
  C   C162      1.0  0.31511  0.12647  0.56285  1.0000
  H   H150      1.0  0.17536  0.01482  0.50727  1.0000
  H   H151      1.0  0.01380  0.12922  0.66437  1.0000
  H   H152      1.0  0.03324  0.13507  0.64244  1.0000
  Fe  Fe33      1.0  0.13685  0.15250  0.47940  1.0000
  H   H153      1.0  0.02098  0.07613  0.87273  1.0000
  H   H154      1.0  0.32171  0.00490  0.57645  1.0000
  H   H155      1.0  0.03680  0.22805  0.84569  1.0000
  C   C163      1.0  0.09044  0.23099  0.94221  1.0000
  H   H156      1.0  0.09691  0.02036  0.56347  1.0000
  H   H157      1.0  0.99149  0.10522  0.66467  1.0000
  H   H158      1.0  0.03506  0.12189  0.61071  1.0000
  H   H159      1.0  0.01370  0.00553  0.83773  1.0000
  C   C164      1.0  0.03855  0.10836  0.73742  1.0000
  N   N14       1.0  0.12119  0.13950  0.84166  1.0000
  C   C165      1.0  0.12641  0.11836  0.84388  1.0000
  C   C166      1.0  0.10822  0.15026  0.82828  1.0000
  C   C167      1.0  0.11858  0.10743  0.83255  1.0000
  C   C168      1.0  0.09971  0.13977  0.81708  1.0000
  C   C169      1.0  0.10495  0.11820  0.81926  1.0000
  C   C170      1.0  0.13002  0.15049  0.85346  1.0000
  H   H160      1.0  0.13628  0.10980  0.85486  1.0000
  H   H161      1.0  0.10411  0.16705  0.82644  1.0000
  H   H162      1.0  0.12241  0.09062  0.83464  1.0000
  H   H163      1.0  0.08896  0.14830  0.80696  1.0000
  H   H164      1.0  0.09814  0.10973  0.81107  1.0000
  H   H165      1.0  0.14705  0.14907  0.84817  1.0000
  H   H166      1.0  0.12317  0.16725  0.85172  1.0000
  H   H167      1.0  0.12685  0.14388  0.87019  1.0000
  H   H168      1.0  0.00708  0.09847  0.80599  1.0000
  C   C171      1.0  0.20857  0.00203  0.56891  1.0000
  H   H169      1.0  0.30615  0.13896  0.59119  1.0000
  H   H170      1.0  0.11488  0.99189  0.69106  1.0000
  H   H171      1.0  0.15262  0.11894  0.55244  1.0000
  C   C172      1.0  0.03889  0.08279  0.80074  1.0000
  H   H172      1.0  0.11758  0.98598  0.55819  1.0000
  H   H173      1.0  0.01620  0.02547  0.81505  1.0000
  S   S66       1.0  0.26634  0.07743  0.50944  1.0000
  C   C173      1.0  0.11026  0.21906  0.94286  1.0000
  H   H174      1.0  0.17411  0.12757  0.61550  1.0000
  H   H175      1.0  0.03917  0.07635  0.81691  1.0000
  H   H176      1.0  0.00703  0.11353  0.76918  1.0000
  H   H177      1.0  0.18985  0.09683  0.59929  1.0000
  S   S67       1.0  0.10664  0.20898  0.83272  1.0000
  H   H178      1.0  0.02413  0.11958  0.73478  1.0000
  C   C174      1.0  0.05587  0.08698  0.76514  1.0000
  C   C175      1.0  0.02464  0.11157  0.61970  1.0000
  H   H179      1.0  0.16956  0.08192  0.55961  1.0000
  C   C176      1.0  0.02868  0.03261  0.85156  1.0000
  C   C177      1.0  0.17535  0.01392  0.52393  1.0000
  H   H180      1.0  0.11798  0.01286  0.65714  1.0000
  H   H181      1.0  0.23010  0.16855  0.50750  1.0000
  H   H182      1.0  0.21683  0.19549  0.47985  1.0000
  H   H183      1.0  0.11460  0.20508  0.93618  1.0000
  H   H184      1.0  0.20229  0.00993  0.55526  1.0000
  C   C178      1.0  0.07110  0.99110  0.72924  1.0000
  C   C179      1.0  0.22124  0.17952  0.47746  1.0000
  H   H185      1.0  0.11288  0.05213  0.54953  1.0000
  C   C180      1.0  0.99785  0.13809  0.88524  1.0000
  H   H186      1.0  0.08222  0.01155  0.74372  1.0000
  H   H187      1.0  0.06226  0.00382  0.72006  1.0000
  H   H188      1.0  0.17409  0.00072  0.61372  1.0000
  Fe  Fe34      1.0  0.11792  0.99778  0.85170  1.0000
  C   C181      1.0  0.09254  0.22808  0.81633  1.0000
  H   H189      1.0  0.10728  0.21466  0.78934  1.0000
  H   H190      1.0  0.22811  0.02461  0.56665  1.0000
  H   H191      1.0  0.00630  0.14667  0.64162  1.0000
  C   C182      1.0  0.23169  0.00034  0.59292  1.0000
  C   C183      1.0  0.00625  0.07160  0.74062  1.0000
  H   H192      1.0  0.29396  0.99910  0.60480  1.0000
  H   H193      1.0  0.18491  0.99891  0.52975  1.0000
  H   H194      1.0  0.03177  0.09160  0.59690  1.0000
  N   N15       1.0  0.31843  0.01490  0.60529  1.0000
  C   C184      1.0  0.99653  0.05391  0.84582  1.0000
  C   C185      1.0  0.00030  0.10232  0.64975  1.0000
  H   H195      1.0  0.32162  0.10176  0.63418  1.0000
  C   C186      1.0  0.99991  0.06845  0.85641  1.0000
  H   H196      1.0  0.13936  0.21522  0.95353  1.0000
  H   H197      1.0  0.27212  0.01026  0.63626  1.0000
  C   C187      1.0  0.99788  0.08519  0.64220  1.0000
  H   H198      1.0  0.00717  0.05169  0.77025  1.0000
  C   C188      1.0  0.99958  0.06594  0.76195  1.0000
  H   H199      1.0  0.30942  0.07224  0.51376  1.0000
  C   C189      1.0  0.22876  0.16435  0.49318  1.0000
  C   C190      1.0  0.28726  0.01482  0.63074  1.0000
  C   C191      1.0  0.08227  0.99123  0.61717  1.0000
  C   C192      1.0  0.29966  0.00865  0.61282  1.0000
  C   C193      1.0  0.12185  0.03689  0.54771  1.0000
  H   H200      1.0  0.99108  0.02308  0.83055  1.0000
  N   N16       1.0  0.13869  0.98481  0.66560  1.0000
  H   H201      1.0  0.24997  0.05629  0.47629  1.0000
  Fe  Fe35      1.0  0.17548  0.44771  0.30668  1.0000
  S   S68       1.0  0.15571  0.43669  0.33662  1.0000
  S   S69       1.0  0.20247  0.46517  0.30331  1.0000
  Fe  Fe36      1.0  0.14627  0.43741  0.28138  1.0000
  S   S70       1.0  0.12375  0.42717  0.30961  1.0000
  S   S71       1.0  0.13808  0.43967  0.24996  1.0000
  Fe  Fe37      1.0  0.12888  0.45430  0.32142  1.0000
  C   C194      1.0  0.04135  0.32158  0.22092  1.0000
  Fe  Fe38      1.0  0.15257  0.41044  0.32185  1.0000
  S   S72       1.0  0.15292  0.37762  0.33950  1.0000
  S   S73       1.0  0.14858  0.46630  0.29199  1.0000
  S   S74       1.0  0.17516  0.41951  0.29298  1.0000
  Fe  Fe39      1.0  0.11600  0.24599  0.35511  1.0000
  S   S75       1.0  0.12637  0.25315  0.32076  1.0000
  H   H202      1.0  0.03145  0.36300  0.25286  1.0000
  Fe  Fe40      1.0  0.07214  0.26840  0.35170  1.0000
  S   S76       1.0  0.07883  0.27688  0.31726  1.0000
  S   S77       1.0  0.04152  0.27835  0.37135  1.0000
  Fe  Fe41      1.0  0.09639  0.24425  0.31873  1.0000
  C   C195      1.0  0.00373  0.31194  0.33146  1.0000
  Fe  Fe42      1.0  0.10802  0.28516  0.32248  1.0000
  S   S78       1.0  0.11741  0.31487  0.30279  1.0000
  C   C196      1.0  0.30299  0.25682  0.00897  1.0000
  S   S79       1.0  0.10011  0.27883  0.35702  1.0000
  Fe  Fe43      1.0  0.11916  0.36204  0.19134  1.0000
  S   S80       1.0  0.08614  0.36574  0.20739  1.0000
  S   S81       1.0  0.14393  0.36082  0.20993  1.0000
  Fe  Fe44      1.0  0.10794  0.35715  0.15090  1.0000
  S   S82       1.0  0.07388  0.36018  0.16407  1.0000
  S   S83       1.0  0.12097  0.35776  0.11676  1.0000
  Fe  Fe45      1.0  0.07904  0.38593  0.17794  1.0000
  S   S84       1.0  0.05389  0.41383  0.17934  1.0000
  Fe  Fe46      1.0  0.08394  0.33965  0.19247  1.0000
  S   S85       1.0  0.06846  0.31476  0.21428  1.0000
  S   S86       1.0  0.11238  0.38472  0.16288  1.0000
  S   S87       1.0  0.11782  0.33419  0.17826  1.0000
  Fe  Fe47      1.0  0.13643  0.27733  0.98899  1.0000
  S   S88       1.0  0.10865  0.30019  0.00008  1.0000
  C   C197      1.0  0.19361  0.44899  0.17007  1.0000
  Fe  Fe48      1.0  0.16676  0.30130  0.99917  1.0000
  S   S89       1.0  0.14133  0.32622  0.01017  1.0000
  S   S90       1.0  0.19972  0.30506  0.99843  1.0000
  Fe  Fe49      1.0  0.12475  0.30001  0.02655  1.0000
  S   S91       1.0  0.10962  0.29666  0.06043  1.0000
  H   H203      1.0  0.01219  0.40325  0.19920  1.0000
  S   S92       1.0  0.15111  0.27488  0.01704  1.0000
  C   C198      1.0  0.13962  0.27369  0.26695  1.0000
  Fe  Fe50      1.0  0.26866  0.33744  0.11391  1.0000
  S   S93       1.0  0.26070  0.37190  0.10356  1.0000
  S   S94       1.0  0.29339  0.31954  0.13263  1.0000
  Fe  Fe51      1.0  0.23724  0.32827  0.09088  1.0000
  S   S95       1.0  0.22713  0.36178  0.07853  1.0000
  S   S96       1.0  0.22270  0.30272  0.08568  1.0000
  Fe  Fe52      1.0  0.26112  0.36334  0.07281  1.0000
  S   S97       1.0  0.27993  0.37691  0.04323  1.0000
  Fe  Fe53      1.0  0.22733  0.36711  0.11028  1.0000
  S   S98       1.0  0.19811  0.38427  0.12750  1.0000
  S   S99       1.0  0.27123  0.32926  0.08268  1.0000
  S   S100      1.0  0.23528  0.33319  0.12320  1.0000
  H   H204      1.0  0.07197  0.43318  0.12115  1.0000
  C   C199      1.0  0.25143  0.37064  0.02206  1.0000
  C   C200      1.0  0.18552  0.45523  0.11658  1.0000
  H   H205      1.0  0.30092  0.36219  0.12534  1.0000
  H   H206      1.0  0.18120  0.36485  0.06063  1.0000
  C   C201      1.0  0.19290  0.41156  0.12206  1.0000
  C   C202      1.0  0.20723  0.42275  0.10863  1.0000
  C   C203      1.0  0.17464  0.42224  0.13243  1.0000
  H   H207      1.0  0.22137  0.41464  0.10061  1.0000
  H   H208      1.0  0.16354  0.41362  0.14293  1.0000
  C   C204      1.0  0.20508  0.30524  0.02292  1.0000
  C   C205      1.0  0.21604  0.32000  0.02540  1.0000
  C   C206      1.0  0.22130  0.31965  0.04468  1.0000
  C   C207      1.0  0.21609  0.30413  0.06138  1.0000
  C   C208      1.0  0.20527  0.28931  0.05879  1.0000
  C   C209      1.0  0.19946  0.29007  0.03974  1.0000
  H   H209      1.0  0.22043  0.33172  0.01239  1.0000
  H   H210      1.0  0.22967  0.33114  0.04650  1.0000
  H   H211      1.0  0.20117  0.27731  0.07166  1.0000
  H   H212      1.0  0.19110  0.27857  0.03793  1.0000
  H   H213      1.0  0.10380  0.46203  0.15686  1.0000
  C   C210      1.0  0.11578  0.34141  0.10154  1.0000
  C   C211      1.0  0.12050  0.34659  0.07994  1.0000
  C   C212      1.0  0.11856  0.33311  0.06723  1.0000
  C   C213      1.0  0.11168  0.31433  0.07597  1.0000
  C   C214      1.0  0.10640  0.30940  0.09758  1.0000
  C   C215      1.0  0.10848  0.32284  0.11033  1.0000
  H   H214      1.0  0.12607  0.36094  0.07297  1.0000
  H   H215      1.0  0.12236  0.33732  0.05066  1.0000
  H   H216      1.0  0.10091  0.29500  0.10452  1.0000
  H   H217      1.0  0.10476  0.31866  0.12694  1.0000
  C   C216      1.0  0.06154  0.43804  0.16992  1.0000
  C   C217      1.0  0.04638  0.45514  0.16477  1.0000
  N   N17       1.0  0.11449  0.30131  0.25280  1.0000
  H   H218      1.0  0.30266  0.30272  0.04972  1.0000
  H   H219      1.0  0.30075  0.27549  0.97888  1.0000
  H   H220      1.0  0.03035  0.45327  0.16682  1.0000
  C   C218      1.0  0.29279  0.30357  0.03860  1.0000
  H   H221      1.0  0.11167  0.25534  0.05150  1.0000
  C   C219      1.0  0.27144  0.37442  0.02104  1.0000
  C   C220      1.0  0.02069  0.29858  0.33927  1.0000
  H   H222      1.0  0.06962  0.24877  0.00172  1.0000
  H   H223      1.0  0.21477  0.45311  0.09560  1.0000
  H   H224      1.0  0.09850  0.25515  0.26003  1.0000
  C   C221      1.0  0.10836  0.26618  0.25986  1.0000
  C   C222      1.0  0.17097  0.44403  0.12975  1.0000
  H   H225      1.0  0.03226  0.28952  0.32934  1.0000
  H   H226      1.0  0.25338  0.28294  0.03233  1.0000
  C   C223      1.0  0.14378  0.35996  0.32890  1.0000
  C   C224      1.0  0.14120  0.36411  0.30824  1.0000
  C   C225      1.0  0.13360  0.34989  0.30030  1.0000
  C   C226      1.0  0.12827  0.33157  0.31300  1.0000
  C   C227      1.0  0.13102  0.32736  0.33359  1.0000
  C   C228      1.0  0.13887  0.34145  0.34146  1.0000
  H   H227      1.0  0.14496  0.37830  0.29838  1.0000
  H   H228      1.0  0.13158  0.35326  0.28432  1.0000
  H   H229      1.0  0.12709  0.31326  0.34348  1.0000
  H   H230      1.0  0.14095  0.33806  0.35742  1.0000
  C   C229      1.0  0.13787  0.41679  0.24109  1.0000
  C   C230      1.0  0.15100  0.39825  0.24719  1.0000
  C   C231      1.0  0.15239  0.38092  0.23792  1.0000
  C   C232      1.0  0.14039  0.38193  0.22285  1.0000
  C   C233      1.0  0.12666  0.40019  0.21736  1.0000
  C   C234      1.0  0.12557  0.41764  0.22631  1.0000
  H   H231      1.0  0.16059  0.39749  0.25851  1.0000
  H   H232      1.0  0.16299  0.36677  0.24226  1.0000
  H   H233      1.0  0.11734  0.40110  0.20575  1.0000
  H   H234      1.0  0.11533  0.43187  0.22156  1.0000
  C   C235      1.0  0.20625  0.46707  0.34348  1.0000
  C   C236      1.0  0.99809  0.24487  0.24958  1.0000
  C   C237      1.0  0.29520  0.31767  0.02006  1.0000
  C   C238      1.0  0.09759  0.23693  0.01468  1.0000
  C   C239      1.0  0.27864  0.37353  0.98429  1.0000
  C   C240      1.0  0.99785  0.33150  0.23165  1.0000
  N   N18       1.0  0.10911  0.23863  0.02862  1.0000
  H   H235      1.0  0.08742  0.46837  0.30653  1.0000
  C   C241      1.0  0.20204  0.36125  0.31582  1.0000
  C   C242      1.0  0.26737  0.30637  0.01015  1.0000
  C   C243      1.0  0.99068  0.27996  0.23136  1.0000
  C   C244      1.0  0.07131  0.26505  0.02567  1.0000
  H   H236      1.0  0.05916  0.31680  0.33945  1.0000
  N   N19       1.0  0.17142  0.33590  0.10814  1.0000
  C   C245      1.0  0.16620  0.31923  0.10292  1.0000
  C   C246      1.0  0.17679  0.35213  0.09322  1.0000
  C   C247      1.0  0.16580  0.31875  0.08234  1.0000
  C   C248      1.0  0.17676  0.35206  0.07245  1.0000
  C   C249      1.0  0.17113  0.33528  0.06703  1.0000
  C   C250      1.0  0.17203  0.33588  0.12978  1.0000
  H   H237      1.0  0.16205  0.30633  0.11471  1.0000
  H   H238      1.0  0.18117  0.36521  0.09738  1.0000
  H   H239      1.0  0.16129  0.30569  0.07827  1.0000
  H   H240      1.0  0.17100  0.33496  0.05100  1.0000
  H   H241      1.0  0.15844  0.32990  0.14001  1.0000
  H   H242      1.0  0.18665  0.32608  0.13399  1.0000
  H   H243      1.0  0.17128  0.35182  0.13262  1.0000
  N   N20       1.0  0.08213  0.35759  0.33850  1.0000
  C   C251      1.0  0.08409  0.35440  0.35882  1.0000
  C   C252      1.0  0.07337  0.34428  0.33149  1.0000
  C   C253      1.0  0.07708  0.33756  0.37273  1.0000
  C   C254      1.0  0.06605  0.32739  0.34501  1.0000
  C   C255      1.0  0.06781  0.32413  0.36577  1.0000
  C   C256      1.0  0.02206  0.29638  0.36015  1.0000
  H   H244      1.0  0.28949  0.25000  0.00971  1.0000
  H   H245      1.0  0.07215  0.34654  0.31532  1.0000
  H   H246      1.0  0.07879  0.33493  0.38879  1.0000
  H   H247      1.0  0.04023  0.38366  0.21807  1.0000
  H   H248      1.0  0.10171  0.46986  0.26407  1.0000
  H   H249      1.0  0.09359  0.37317  0.30846  1.0000
  C   C257      1.0  0.00832  0.39451  0.21461  1.0000
  H   H250      1.0  0.12271  0.47557  0.12010  1.0000
  H   H251      1.0  0.05669  0.27554  0.02435  1.0000
  C   C258      1.0  0.12718  0.25936  0.26701  1.0000
  C   C259      1.0  0.29478  0.48249  0.35806  1.0000
  C   C260      1.0  0.03002  0.33693  0.20805  1.0000
  C   C261      1.0  0.08228  0.44055  0.16725  1.0000
  H   H252      1.0  0.13394  0.39886  0.10917  1.0000
  C   C262      1.0  0.99036  0.32166  0.36505  1.0000
  H   H253      1.0  0.31668  0.47296  0.37904  1.0000
  C   C263      1.0  0.10822  0.32341  0.24494  1.0000
  C   C264      1.0  0.99190  0.26044  0.35851  1.0000
  H   H254      1.0  0.09162  0.32721  0.24318  1.0000
  C   C265      1.0  0.03091  0.31126  0.23922  1.0000
  H   H255      1.0  0.99561  0.29309  0.22029  1.0000
  H   H256      1.0  0.03791  0.34484  0.19382  1.0000
  H   H257      1.0  0.02088  0.26056  0.22768  1.0000
  H   H258      1.0  0.19412  0.46549  0.16634  1.0000
  N   N21       1.0  0.27819  0.29101  0.04267  1.0000
  C   C266      1.0  0.20349  0.44452  0.10586  1.0000
  H   H259      1.0  0.11043  0.33299  0.25570  1.0000
  N   N22       1.0  0.19142  0.40691  0.17842  1.0000
  C   C267      1.0  0.20730  0.41398  0.16405  1.0000
  C   C268      1.0  0.17683  0.42038  0.18891  1.0000
  C   C269      1.0  0.20860  0.43511  0.15963  1.0000
  C   C270      1.0  0.17771  0.44158  0.18499  1.0000
  H   H260      1.0  0.22071  0.44078  0.14761  1.0000
  C   C271      1.0  0.00925  0.31639  0.24470  1.0000
  H   H261      1.0  0.21857  0.40342  0.15528  1.0000
  H   H262      1.0  0.16428  0.41476  0.20022  1.0000
  H   H263      1.0  0.17602  0.38361  0.17481  1.0000
  Fe  Fe54      1.0  0.12788  0.32433  0.98292  1.0000
  H   H264      1.0  0.16598  0.45220  0.19330  1.0000
  H   H265      1.0  0.13195  0.24299  0.27283  1.0000
  C   C272      1.0  0.25874  0.36941  0.98544  1.0000
  C   C273      1.0  0.00830  0.34165  0.21327  1.0000
  C   C274      1.0  0.31334  0.48234  0.36449  1.0000
  H   H266      1.0  0.03959  0.29925  0.24916  1.0000
  H   H267      1.0  0.24077  0.36972  0.03648  1.0000
  H   H268      1.0  0.18953  0.36648  0.30633  1.0000
  C   C275      1.0  0.09114  0.48286  0.20357  1.0000
  C   C276      1.0  0.00481  0.26168  0.23542  1.0000
  H   H269      1.0  0.19170  0.37739  0.35061  1.0000
  C   C277      1.0  0.21055  0.47520  0.32240  1.0000
  H   H270      1.0  0.00140  0.30815  0.25868  1.0000
  H   H271      1.0  0.14262  0.30587  0.25989  1.0000
  H   H272      1.0  0.25711  0.30760  0.99929  1.0000
  C   C278      1.0  0.18916  0.38506  0.18187  1.0000
  H   H273      1.0  0.31628  0.32546  0.08558  1.0000
  C   C279      1.0  0.99339  0.35953  0.27455  1.0000
  C   C280      1.0  0.10223  0.28734  0.25273  1.0000
  H   H274      1.0  0.11782  0.32778  0.22961  1.0000
  H   H275      1.0  0.28439  0.32959  0.99120  1.0000
  C   C281      1.0  0.13305  0.29472  0.25963  1.0000
  C   C282      1.0  0.27567  0.27667  0.06239  1.0000
  S   S101      1.0  0.10602  0.47789  0.33768  1.0000
  H   H276      1.0  0.14301  0.46782  0.09958  1.0000
  C   C283      1.0  0.12594  0.46987  0.10520  1.0000
  H   H277      1.0  0.19671  0.45516  0.34875  1.0000
  H   H278      1.0  0.15710  0.45209  0.13812  1.0000
  N   N23       1.0  0.11784  0.45054  0.10805  1.0000
  C   C284      1.0  0.13113  0.43209  0.10662  1.0000
  C   C285      1.0  0.09683  0.45107  0.11287  1.0000
  C   C286      1.0  0.12342  0.41353  0.11012  1.0000
  C   C287      1.0  0.08861  0.43278  0.11668  1.0000
  C   C288      1.0  0.10203  0.41393  0.11520  1.0000
  H   H279      1.0  0.26606  0.28508  0.07467  1.0000
  H   H280      1.0  0.14780  0.43158  0.10283  1.0000
  H   H281      1.0  0.09767  0.47504  0.19056  1.0000
  C   C289      1.0  0.08776  0.46022  0.15925  1.0000
  H   H282      1.0  0.09403  0.42738  0.17138  1.0000
  H   H283      1.0  0.09588  0.39958  0.11821  1.0000
  H   H284      1.0  0.07465  0.38911  0.32467  1.0000
  C   C290      1.0  0.08811  0.37617  0.32452  1.0000
  H   H285      1.0  0.20158  0.40888  0.35669  1.0000
  H   H286      1.0  0.21525  0.35127  0.30761  1.0000
  H   H287      1.0  0.09120  0.36485  0.36434  1.0000
  H   H288      1.0  0.06220  0.31103  0.37638  1.0000
  C   C291      1.0  0.20181  0.38581  0.33845  1.0000
  H   H289      1.0  0.19566  0.35154  0.33038  1.0000
  H   H290      1.0  0.08756  0.29245  0.24725  1.0000
  C   C292      1.0  0.24499  0.36842  0.00424  1.0000
  C   C293      1.0  0.26537  0.29245  0.02886  1.0000
  C   C294      1.0  0.20734  0.40361  0.34201  1.0000
  N   N24       1.0  0.20867  0.37937  0.31979  1.0000
  C   C295      1.0  0.31323  0.33067  0.13760  1.0000
  H   H291      1.0  0.15409  0.26860  0.27285  1.0000
  H   H292      1.0  0.18594  0.37872  0.19864  1.0000
  C   C296      1.0  0.22084  0.39044  0.30426  1.0000
  C   C297      1.0  0.21991  0.41485  0.32634  1.0000
  C   C298      1.0  0.28494  0.37615  0.00204  1.0000
  H   H293      1.0  0.10108  0.38112  0.32915  1.0000
  H   H294      1.0  0.00667  0.35521  0.28303  1.0000
  C   C299      1.0  0.22662  0.40835  0.30729  1.0000
  H   H295      1.0  0.22573  0.38572  0.28927  1.0000
  H   H296      1.0  0.22414  0.42882  0.32877  1.0000
  H   H297      1.0  0.22945  0.36561  0.00515  1.0000
  H   H298      1.0  0.20333  0.37524  0.17480  1.0000
  H   H299      1.0  0.31976  0.25674  0.45025  1.0000
  H   H300      1.0  0.00405  0.25301  0.36809  1.0000
  H   H301      1.0  0.23581  0.41747  0.29484  1.0000
  H   H302      1.0  0.30676  0.32766  0.01682  1.0000
  H   H303      1.0  0.30035  0.37931  0.00111  1.0000
  H   H304      1.0  0.07804  0.27869  0.04934  1.0000
  C   C300      1.0  0.00688  0.30796  0.37294  1.0000
  H   H305      1.0  0.26801  0.26376  0.06144  1.0000
  C   C301      1.0  0.05187  0.47462  0.15658  1.0000
  H   H306      1.0  0.08631  0.46568  0.11423  1.0000
  H   H307      1.0  0.99958  0.35323  0.20301  1.0000
  H   H308      1.0  0.11834  0.48201  0.09380  1.0000
  C   C302      1.0  0.01902  0.37199  0.24499  1.0000
  C   C303      1.0  0.02413  0.38351  0.22528  1.0000
  C   C304      1.0  0.30925  0.27135  0.99157  1.0000
  C   C305      1.0  0.31348  0.35197  0.13211  1.0000
  H   H309      1.0  0.28354  0.47328  0.36755  1.0000
  C   C306      1.0  0.28252  0.31889  0.00571  1.0000
  C   C307      1.0  0.21502  0.47376  0.35778  1.0000
  C   C308      1.0  0.08323  0.26678  0.03972  1.0000
  H   H310      1.0  0.00782  0.30628  0.38909  1.0000
  H   H311      1.0  0.29101  0.26937  0.06680  1.0000
  C   C309      1.0  0.07250  0.47725  0.15382  1.0000
  C   C310      1.0  0.10161  0.47936  0.22024  1.0000
  C   C311      1.0  0.10229  0.25348  0.04088  1.0000
  H   H312      1.0  0.21217  0.46680  0.37392  1.0000
  C   C312      1.0  0.31450  0.25058  0.02509  1.0000
  C   C313      1.0  0.07851  0.25004  0.01303  1.0000
  N   N25       1.0  0.99867  0.37183  0.25399  1.0000
  S   S102      1.0  0.08727  0.23490  0.35294  1.0000
  H   H313      1.0  0.00259  0.31350  0.31542  1.0000
  H   H314      1.0  0.05429  0.23915  0.30888  1.0000
  H   H315      1.0  0.11650  0.46903  0.21977  1.0000
  H   H316      1.0  0.99884  0.26052  0.34198  1.0000
  S   S103      1.0  0.18214  0.48248  0.11342  1.0000
  C   C314      1.0  0.00143  0.24714  0.87663  1.0000
  C   C315      1.0  0.28225  0.40447  0.91654  1.0000
  H   H317      1.0  0.02711  0.25142  0.82889  1.0000
  C   C316      1.0  0.11375  0.34358  0.91269  1.0000
  C   C317      1.0  0.16492  0.47185  0.81232  1.0000
  S   S104      1.0  0.00048  0.37440  0.75360  1.0000
  H   H318      1.0  0.03226  0.28881  0.87927  1.0000
  H   H319      1.0  0.13685  0.36403  0.86568  1.0000
  N   N26       1.0  0.31005  0.45295  0.82392  1.0000
  Fe  Fe55      1.0  0.28675  0.31645  0.91596  1.0000
  S   S105      1.0  0.27246  0.29711  0.90116  1.0000
  C   C318      1.0  0.26350  0.40629  0.93051  1.0000
  S   S106      1.0  0.28193  0.31331  0.95034  1.0000
  Fe  Fe56      1.0  0.02354  0.35398  0.77317  1.0000
  S   S107      1.0  0.02767  0.36371  0.80204  1.0000
  C   C319      1.0  0.08510  0.24904  0.95121  1.0000
  Fe  Fe57      1.0  0.05043  0.31157  0.78314  1.0000
  S   S108      1.0  0.05580  0.31757  0.81288  1.0000
  S   S109      1.0  0.06462  0.28207  0.77090  1.0000
  Fe  Fe58      1.0  0.02204  0.33161  0.81720  1.0000
  Fe  Fe59      1.0  0.06144  0.34885  0.79501  1.0000
  S   S110      1.0  0.09329  0.35612  0.79545  1.0000
  S   S111      1.0  0.01617  0.32290  0.78890  1.0000
  S   S112      1.0  0.05773  0.34196  0.76463  1.0000
  Fe  Fe60      1.0  0.18834  0.40379  0.87965  1.0000
  S   S113      1.0  0.17723  0.38042  0.86722  1.0000
  S   S114      1.0  0.18901  0.39907  0.91349  1.0000
  Fe  Fe61      1.0  0.20001  0.42953  0.83779  1.0000
  S   S115      1.0  0.18934  0.40851  0.82134  1.0000
  Fe  Fe62      1.0  0.16173  0.40773  0.84700  1.0000
  S   S116      1.0  0.12782  0.40949  0.84466  1.0000
  Fe  Fe63      1.0  0.20540  0.38268  0.84276  1.0000
  S   S117      1.0  0.22346  0.35306  0.83294  1.0000
  S   S118      1.0  0.17070  0.43137  0.86155  1.0000
  S   S119      1.0  0.21821  0.40355  0.85704  1.0000
  N   N27       1.0  0.24495  0.40904  0.92389  1.0000
  C   C320      1.0  0.02880  0.26616  0.86221  1.0000
  N   N28       1.0  0.14446  0.44667  0.79859  1.0000
  N   N29       1.0  0.30265  0.34294  0.81964  1.0000
  C   C321      1.0  0.00720  0.27246  0.89458  1.0000
  C   C322      1.0  0.17411  0.46294  0.79489  1.0000
  H   H320      1.0  0.28665  0.46336  0.80535  1.0000
  H   H321      1.0  0.24173  0.29124  0.97261  1.0000
  C   C323      1.0  0.10225  0.37026  0.81037  1.0000
  C   C324      1.0  0.08878  0.38384  0.82244  1.0000
  C   C325      1.0  0.09685  0.39559  0.83301  1.0000
  C   C326      1.0  0.11840  0.39364  0.83190  1.0000
  C   C327      1.0  0.13185  0.37969  0.82026  1.0000
  C   C328      1.0  0.12380  0.36821  0.80943  1.0000
  H   H322      1.0  0.07218  0.38567  0.82322  1.0000
  H   H323      1.0  0.08629  0.40641  0.84193  1.0000
  H   H324      1.0  0.14847  0.37802  0.81922  1.0000
  H   H325      1.0  0.13437  0.35779  0.80008  1.0000
  H   H326      1.0  0.22096  0.45602  0.86159  1.0000
  C   C329      1.0  0.13461  0.35351  0.88031  1.0000
  C   C330      1.0  0.25744  0.31216  0.88308  1.0000
  C   C331      1.0  0.25533  0.30396  0.86629  1.0000
  C   C332      1.0  0.24453  0.31646  0.85102  1.0000
  C   C333      1.0  0.23547  0.33701  0.85279  1.0000
  C   C334      1.0  0.23678  0.34484  0.87005  1.0000
  C   C335      1.0  0.24794  0.33251  0.88503  1.0000
  H   H327      1.0  0.26254  0.28816  0.86477  1.0000
  H   H328      1.0  0.24343  0.31028  0.83774  1.0000
  H   H329      1.0  0.22946  0.36049  0.87179  1.0000
  H   H330      1.0  0.24864  0.33860  0.89838  1.0000
  H   H331      1.0  0.21587  0.35835  0.94282  1.0000
  C   C336      1.0  0.30978  0.37816  0.85376  1.0000
  C   C337      1.0  0.29061  0.45087  0.81838  1.0000
  C   C338      1.0  0.28192  0.40561  0.89569  1.0000
  H   H332      1.0  0.00908  0.33457  0.73967  1.0000
  C   C339      1.0  0.13535  0.36620  0.94814  1.0000
  C   C340      1.0  0.13372  0.37930  0.92914  1.0000
  C   C341      1.0  0.15009  0.38962  0.91852  1.0000
  C   C342      1.0  0.16768  0.38771  0.92739  1.0000
  C   C343      1.0  0.16871  0.37569  0.94699  1.0000
  C   C344      1.0  0.15286  0.36446  0.95707  1.0000
  H   H333      1.0  0.11991  0.38131  0.92254  1.0000
  H   H334      1.0  0.14896  0.39930  0.90362  1.0000
  H   H335      1.0  0.18191  0.37466  0.95426  1.0000
  H   H336      1.0  0.15992  0.31054  0.90777  1.0000
  H   H337      1.0  0.17111  0.44300  0.77496  1.0000
  C   C345      1.0  0.12928  0.32679  0.91781  1.0000
  C   C346      1.0  0.22932  0.46737  0.85119  1.0000
  C   C347      1.0  0.07396  0.26082  0.78878  1.0000
  C   C348      1.0  0.06955  0.26122  0.80998  1.0000
  H   H338      1.0  0.99225  0.23594  0.87568  1.0000
  H   H339      1.0  0.09969  0.34632  0.92397  1.0000
  H   H340      1.0  0.05930  0.27431  0.81560  1.0000
  S   S120      1.0  0.32193  0.43459  0.62580  1.0000
  H   H341      1.0  0.10290  0.30118  0.75315  1.0000
  H   H342      1.0  0.30382  0.32147  0.86973  1.0000
  H   H343      1.0  0.13074  0.29223  0.74880  1.0000
  H   H344      1.0  0.29697  0.40188  0.92189  1.0000
  C   C349      1.0  0.30995  0.31850  0.54634  1.0000
  C   C350      1.0  0.28791  0.35117  0.80531  1.0000
  C   C351      1.0  0.01132  0.39071  0.69582  1.0000
  Fe  Fe64      1.0  0.27797  0.34795  0.94388  1.0000
  C   C352      1.0  0.24450  0.40978  0.90351  1.0000
  H   H345      1.0  0.10729  0.38914  0.88461  1.0000
  N   N30       1.0  0.22688  0.30618  0.94678  1.0000
  C   C353      1.0  0.21861  0.30405  0.93056  1.0000
  C   C354      1.0  0.22580  0.32542  0.95130  1.0000
  C   C355      1.0  0.20855  0.32144  0.91862  1.0000
  C   C356      1.0  0.21632  0.34315  0.93937  1.0000
  C   C357      1.0  0.20745  0.34110  0.92308  1.0000
  C   C358      1.0  0.08707  0.24369  0.78149  1.0000
  H   H346      1.0  0.22004  0.28885  0.92665  1.0000
  H   H347      1.0  0.17320  0.48126  0.81792  1.0000
  H   H348      1.0  0.29363  0.32063  0.55456  1.0000
  C   C359      1.0  0.02326  0.24062  0.84355  1.0000
  H   H349      1.0  0.06982  0.25838  0.95085  1.0000
  H   H350      1.0  0.21973  0.39524  0.94174  1.0000
  H   H351      1.0  0.11833  0.43195  0.80061  1.0000
  H   H352      1.0  0.13831  0.47457  0.83664  1.0000
  H   H353      1.0  0.10385  0.31357  0.81871  1.0000
  H   H354      1.0  0.12025  0.45227  0.82416  1.0000
  H   H355      1.0  0.22979  0.41152  0.89837  1.0000
  H   H356      1.0  0.27756  0.45201  0.83166  1.0000
  C   C360      1.0  0.30664  0.38495  0.83324  1.0000
  H   H357      1.0  0.14332  0.41692  0.79318  1.0000
  H   H358      1.0  0.12711  0.31679  0.93279  1.0000
  S   S121      1.0  0.15477  0.30163  0.97031  1.0000
  S   S122      1.0  0.21524  0.45671  0.81942  1.0000
  C   C361      1.0  0.22541  0.41021  0.93873  1.0000
  S   S123      1.0  0.99974  0.32577  0.84704  1.0000
  H   H359      1.0  0.12864  0.25354  0.78259  1.0000
  C   C362      1.0  0.15045  0.33681  0.88489  1.0000
  C   C363      1.0  0.99602  0.25743  0.89355  1.0000
  H   H360      1.0  0.25166  0.28071  0.94912  1.0000
  H   H361      1.0  0.26253  0.40877  0.87293  1.0000
  H   H362      1.0  0.08770  0.37681  0.90236  1.0000
  C   C364      1.0  0.23737  0.28762  0.95888  1.0000
  H   H363      1.0  0.20232  0.31976  0.90556  1.0000
  H   H364      1.0  0.20009  0.35475  0.91367  1.0000
  S   S124      1.0  0.25119  0.36458  0.96372  1.0000
  C   C365      1.0  0.02368  0.27691  0.87880  1.0000
  H   H365      1.0  0.26391  0.40509  0.94676  1.0000
  H   H366      1.0  0.11259  0.27430  0.75374  1.0000
  N   N31       1.0  0.01759  0.25163  0.86117  1.0000
  H   H367      1.0  0.13257  0.43851  0.77503  1.0000
  C   C366      1.0  0.10053  0.37467  0.88907  1.0000
  H   H368      1.0  0.02429  0.39753  0.68535  1.0000
  S   S125      1.0  0.31907  0.39682  0.79173  1.0000
  H   H369      1.0  0.23948  0.47717  0.87548  1.0000
  C   C367      1.0  0.22917  0.47053  0.82999  1.0000
  C   C368      1.0  0.09929  0.25509  0.96071  1.0000
  H   H370      1.0  0.22736  0.41331  0.95374  1.0000
  H   H371      1.0  0.23214  0.32720  0.96427  1.0000
  H   H372      1.0  0.01689  0.37397  0.70130  1.0000
  S   S126      1.0  0.11578  0.35158  0.96018  1.0000
  S   S127      1.0  0.27991  0.35124  0.90977  1.0000
  N   N32       1.0  0.11664  0.35681  0.89422  1.0000
  H   H373      1.0  0.28876  0.33984  0.79513  1.0000
  C   C369      1.0  0.26295  0.40821  0.88907  1.0000
  H   H374      1.0  0.21329  0.42269  0.93258  1.0000
  C   C370      1.0  0.11891  0.24288  0.96178  1.0000
  H   H375      1.0  0.00300  0.28076  0.90747  1.0000
  H   H376      1.0  0.29153  0.38567  0.82946  1.0000
  C   C371      1.0  0.16364  0.45026  0.78824  1.0000
  H   H377      1.0  0.18955  0.46542  0.78697  1.0000
  H   H378      1.0  0.11609  0.27868  0.83840  1.0000
  H   H379      1.0  0.00679  0.39809  0.70985  1.0000
  H   H380      1.0  0.27932  0.33512  0.84535  1.0000
  H   H381      1.0  0.09487  0.26898  0.96753  1.0000
  H   H382      1.0  0.09395  0.37263  0.87594  1.0000
  C   C372      1.0  0.14774  0.32343  0.90383  1.0000
  N   N33       1.0  0.11579  0.28580  0.77995  1.0000
  C   C373      1.0  0.10920  0.30249  0.78984  1.0000
  C   C374      1.0  0.12329  0.26678  0.79044  1.0000
  C   C375      1.0  0.10935  0.30025  0.81096  1.0000
  C   C376      1.0  0.12345  0.26390  0.81161  1.0000
  C   C377      1.0  0.11631  0.28076  0.82193  1.0000
  C   C378      1.0  0.11566  0.28852  0.75778  1.0000
  H   H383      1.0  0.10353  0.31764  0.78146  1.0000
  S   S128      1.0  0.32137  0.31413  0.91161  1.0000
  H   H384      1.0  0.16478  0.33445  0.87389  1.0000
  H   H385      1.0  0.29717  0.37359  0.86567  1.0000
  H   H386      1.0  0.04156  0.26977  0.85002  1.0000
  C   C379      1.0  0.13528  0.45542  0.81566  1.0000
  S   S129      1.0  0.31158  0.34892  0.94175  1.0000
  C   C380      1.0  0.30953  0.32745  0.85369  1.0000
  C   C381      1.0  0.13414  0.43290  0.79147  1.0000
  H   H387      1.0  0.29152  0.36607  0.79563  1.0000
  H   H388      1.0  0.12860  0.24857  0.82004  1.0000
  C   C382      1.0  0.99187  0.29207  0.83450  1.0000
  H   H389      1.0  0.27162  0.35445  0.81361  1.0000
  H   H390      1.0  0.00538  0.29340  0.82266  1.0000
  H   H391      1.0  0.29516  0.47548  0.84299  1.0000
  H   H392      1.0  0.09037  0.24322  0.76513  1.0000
  H   H393      1.0  0.29642  0.40415  0.88478  1.0000
  H   H394      1.0  0.29188  0.43558  0.81370  1.0000
  C   C383      1.0  0.99531  0.34375  0.73417  1.0000
  H   H395      1.0  0.00288  0.36414  0.67539  1.0000
  C   C384      1.0  0.07868  0.24474  0.82381  1.0000
  C   C385      1.0  0.14538  0.46808  0.82281  1.0000
  C   C386      1.0  0.29569  0.33509  0.83980  1.0000
  Fe  Fe65      1.0  0.31407  0.34890  0.90794  1.0000
  H   H396      1.0  0.22677  0.27613  0.96476  1.0000
  H   H397      1.0  0.28916  0.37492  0.96974  1.0000
  H   H398      1.0  0.31333  0.30441  0.53910  1.0000
  Fe  Fe66      1.0  0.31584  0.31424  0.94575  1.0000
  H   H399      1.0  0.31190  0.33181  0.53345  1.0000
  H   H400      1.0  0.15411  0.35466  0.97187  1.0000
  C   C387      1.0  0.30973  0.46646  0.83672  1.0000
  H   H401      1.0  0.07578  0.24536  0.84010  1.0000
  C   C388      1.0  0.99191  0.37864  0.67485  1.0000
  H   H402      1.0  0.32160  0.41444  0.66767  1.0000
  H   H403      1.0  0.99226  0.32115  0.71688  1.0000
  C   C389      1.0  0.23981  0.47940  0.85903  1.0000
  N   N34       1.0  0.99367  0.39362  0.68512  1.0000
  S   S130      1.0  0.13668  0.24851  0.97544  1.0000
  Fe  Fe67      1.0  0.28629  0.55189  0.35621  1.0000
  S   S131      1.0  0.28071  0.52589  0.38289  1.0000
  Fe  Fe68      1.0  0.24083  0.57209  0.36183  1.0000
  S   S132      1.0  0.23184  0.54823  0.38913  1.0000
  S   S133      1.0  0.21596  0.59696  0.34979  1.0000
  Fe  Fe69      1.0  0.26096  0.55142  0.39903  1.0000
  S   S134      1.0  0.25985  0.55710  0.43135  1.0000
  Fe  Fe70      1.0  0.25200  0.52509  0.37016  1.0000
  C   C390      1.0  0.23102  0.49808  0.33044  1.0000
  S   S135      1.0  0.26819  0.57730  0.37304  1.0000
  S   S136      1.0  0.25939  0.54901  0.34221  1.0000
  Fe  Fe71      1.0  0.02680  0.61017  0.25510  1.0000
  S   S137      1.0  0.05091  0.62556  0.26203  1.0000
  Fe  Fe72      1.0  0.04639  0.56740  0.27547  1.0000
  S   S138      1.0  0.07219  0.57900  0.28365  1.0000
  S   S139      1.0  0.04487  0.53345  0.28000  1.0000
  Fe  Fe73      1.0  0.04740  0.60521  0.29338  1.0000
  S   S140      1.0  0.04270  0.61434  0.32509  1.0000
  Fe  Fe74      1.0  0.07356  0.59817  0.25189  1.0000
  S   S141      1.0  0.10317  0.60022  0.22910  1.0000
  S   S142      1.0  0.02113  0.59211  0.28736  1.0000
  S   S143      1.0  0.04985  0.58439  0.24282  1.0000
  Fe  Fe75      1.0  0.10888  0.63526  0.43276  1.0000
  S   S144      1.0  0.12145  0.65877  0.44353  1.0000
  S   S145      1.0  0.10584  0.60308  0.44977  1.0000
  Fe  Fe76      1.0  0.10325  0.66219  0.39109  1.0000
  S   S146      1.0  0.11522  0.68856  0.39848  1.0000
  S   S147      1.0  0.09882  0.66177  0.35848  1.0000
  Fe  Fe77      1.0  0.13959  0.66364  0.41138  1.0000
  S   S148      1.0  0.17387  0.66325  0.40704  1.0000
  Fe  Fe78      1.0  0.09606  0.68174  0.43020  1.0000
  S   S149      1.0  0.12927  0.63802  0.40191  1.0000
  S   S150      1.0  0.08180  0.65760  0.42166  1.0000
  Fe  Fe79      1.0  0.10901  0.50916  0.14473  1.0000
  H   H404      1.0  0.16566  0.65057  0.45074  1.0000
  C   C391      1.0  0.10841  0.63486  0.04494  1.0000
  Fe  Fe80      1.0  0.13208  0.54558  0.13445  1.0000
  S   S151      1.0  0.15975  0.52614  0.14737  1.0000
  S   S152      1.0  0.13148  0.58017  0.12466  1.0000
  Fe  Fe81      1.0  0.15523  0.50122  0.13174  1.0000
  H   H405      1.0  0.03849  0.61742  0.20413  1.0000
  Fe  Fe82      1.0  0.13631  0.51361  0.17329  1.0000
  S   S153      1.0  0.13753  0.51091  0.20674  1.0000
  S   S154      1.0  0.12976  0.52192  0.11618  1.0000
  S   S155      1.0  0.10895  0.53460  0.16164  1.0000
  Fe  Fe83      1.0  0.07043  0.71289  0.04545  1.0000
  S   S156      1.0  0.08443  0.69187  0.07163  1.0000
  Fe  Fe84      1.0  0.02647  0.71109  0.06803  1.0000
  S   S157      1.0  0.03678  0.69056  0.09612  1.0000
  H   H406      1.0  0.02897  0.68513  0.26333  1.0000
  Fe  Fe85      1.0  0.06013  0.71131  0.09137  1.0000
  S   S158      1.0  0.13418  0.48686  0.15906  1.0000
  Fe  Fe86      1.0  0.05972  0.67303  0.07379  1.0000
  S   S159      1.0  0.06159  0.63829  0.07834  1.0000
  H   H407      1.0  0.11820  0.61679  0.35709  1.0000
  S   S160      1.0  0.04785  0.69228  0.04566  1.0000
  C   C392      1.0  0.09806  0.67110  0.01767  1.0000
  N   N35       1.0  0.11784  0.65149  0.04354  1.0000
  H   H408      1.0  0.12408  0.57882  0.41566  1.0000
  N   N36       1.0  0.99817  0.60765  0.11272  1.0000
  C   C393      1.0  0.29944  0.52065  0.30849  1.0000
  C   C394      1.0  0.06736  0.49669  0.29591  1.0000
  H   H409      1.0  0.06841  0.51043  0.25025  1.0000
  C   C395      1.0  0.13092  0.58474  0.39996  1.0000
  H   H410      1.0  0.00699  0.68306  0.05229  1.0000
  C   C396      1.0  0.17871  0.64245  0.45882  1.0000
  H   H411      1.0  0.12413  0.54477  0.26772  1.0000
  H   H412      1.0  0.24411  0.53614  0.47082  1.0000
  C   C397      1.0  0.09350  0.63600  0.03276  1.0000
  C   C398      1.0  0.11152  0.59601  0.11233  1.0000
  C   C399      1.0  0.11013  0.61763  0.10896  1.0000
  C   C400      1.0  0.09441  0.63076  0.09917  1.0000
  C   C401      1.0  0.08019  0.62231  0.09239  1.0000
  C   C402      1.0  0.08147  0.60069  0.09586  1.0000
  C   C403      1.0  0.09703  0.58755  0.10594  1.0000
  H   H413      1.0  0.12127  0.62423  0.11398  1.0000
  H   H414      1.0  0.09340  0.64741  0.09673  1.0000
  H   H415      1.0  0.07054  0.59407  0.09057  1.0000
  H   H416      1.0  0.09802  0.57088  0.10849  1.0000
  C   C404      1.0  0.11280  0.66948  0.03017  1.0000
  H   H417      1.0  0.30307  0.54798  0.41217  1.0000
  S   S161      1.0  0.09257  0.72541  0.01770  1.0000
  H   H418      1.0  0.00500  0.66789  0.25169  1.0000
  H   H419      1.0  0.27577  0.49539  0.33493  1.0000
  C   C405      1.0  0.02250  0.66994  0.29501  1.0000
  H   H420      1.0  0.06218  0.49002  0.28500  1.0000
  C   C406      1.0  0.11351  0.57541  0.22320  1.0000
  C   C407      1.0  0.10442  0.55850  0.23423  1.0000
  C   C408      1.0  0.11222  0.53870  0.22942  1.0000
  C   C409      1.0  0.12864  0.53574  0.21306  1.0000
  C   C410      1.0  0.13777  0.55264  0.20188  1.0000
  C   C411      1.0  0.13052  0.57240  0.20729  1.0000
  H   H421      1.0  0.09141  0.56056  0.24663  1.0000
  H   H422      1.0  0.10509  0.52588  0.23809  1.0000
  H   H423      1.0  0.15059  0.55042  0.18925  1.0000
  H   H424      1.0  0.13788  0.58536  0.19892  1.0000
  C   C412      1.0  0.05881  0.62715  0.33413  1.0000
  C   C413      1.0  0.07568  0.63503  0.32117  1.0000
  C   C414      1.0  0.08767  0.64564  0.32891  1.0000
  C   C415      1.0  0.08308  0.64833  0.34967  1.0000
  C   C416      1.0  0.06619  0.64044  0.36262  1.0000
  C   C417      1.0  0.05413  0.62995  0.35486  1.0000
  H   H425      1.0  0.07942  0.63309  0.30518  1.0000
  H   H426      1.0  0.10062  0.65179  0.31872  1.0000
  H   H427      1.0  0.06217  0.64277  0.37849  1.0000
  H   H428      1.0  0.04101  0.62404  0.36496  1.0000
  H   H429      1.0  0.09389  0.68551  0.00731  1.0000
  C   C418      1.0  0.13792  0.60235  0.46989  1.0000
  H   H430      1.0  0.17879  0.52588  0.24734  1.0000
  C   C419      1.0  0.07972  0.51335  0.32514  1.0000
  C   C420      1.0  0.06640  0.52595  0.31214  1.0000
  C   C421      1.0  0.06039  0.51769  0.29735  1.0000
  H   H431      1.0  0.04940  0.51727  0.22119  1.0000
  C   C422      1.0  0.99248  0.73205  0.11963  1.0000
  H   H432      1.0  0.08414  0.51971  0.33675  1.0000
  H   H433      1.0  0.06052  0.54195  0.31381  1.0000
  C   C423      1.0  0.09665  0.60461  0.39399  1.0000
  C   C424      1.0  0.20548  0.61623  0.36503  1.0000
  C   C425      1.0  0.21470  0.61788  0.38134  1.0000
  C   C426      1.0  0.20561  0.63319  0.39355  1.0000
  C   C427      1.0  0.18684  0.64619  0.39003  1.0000
  C   C428      1.0  0.17778  0.64458  0.37366  1.0000
  C   C429      1.0  0.18728  0.62988  0.36099  1.0000
  H   H434      1.0  0.22879  0.60743  0.38449  1.0000
  H   H435      1.0  0.21272  0.63449  0.40614  1.0000
  H   H436      1.0  0.16355  0.65489  0.37056  1.0000
  H   H437      1.0  0.18038  0.62899  0.34811  1.0000
  C   C430      1.0  0.07042  0.61091  0.18881  1.0000
  C   C431      1.0  0.13545  0.51825  0.31387  1.0000
  C   C432      1.0  0.28292  0.56165  0.43704  1.0000
  C   C433      1.0  0.28199  0.57144  0.45382  1.0000
  H   H438      1.0  0.12835  0.51501  0.33002  1.0000
  H   H439      1.0  0.07575  0.62018  0.19742  1.0000
  C   C434      1.0  0.30218  0.55558  0.42509  1.0000
  C   C435      1.0  0.07742  0.58892  0.16380  1.0000
  S   S162      1.0  0.24007  0.49540  0.36982  1.0000
  C   C436      1.0  0.02020  0.67441  0.27433  1.0000
  C   C437      1.0  0.13259  0.65052  0.05719  1.0000
  H   H440      1.0  0.21472  0.57045  0.43470  1.0000
  H   H441      1.0  0.08551  0.62305  0.03455  1.0000
  H   H442      1.0  0.27067  0.59848  0.40865  1.0000
  S   S163      1.0  0.07854  0.50183  0.14246  1.0000
  H   H443      1.0  0.08750  0.59997  0.38425  1.0000
  H   H444      1.0  0.08832  0.58099  0.15237  1.0000
  H   H445      1.0  0.05132  0.57730  0.15908  1.0000
  C   C438      1.0  0.05650  0.58686  0.16748  1.0000
  C   C439      1.0  0.01011  0.64008  0.10770  1.0000
  C   C440      1.0  0.00893  0.62234  0.10045  1.0000
  H   H446      1.0  0.26716  0.57617  0.46318  1.0000
  H   H447      1.0  0.26936  0.62425  0.41364  1.0000
  C   C441      1.0  0.00017  0.64279  0.12759  1.0000
  H   H448      1.0  0.11686  0.73110  0.41894  1.0000
  C   C442      1.0  0.07229  0.49661  0.20378  1.0000
  H   H449      1.0  0.99410  0.57611  0.11706  1.0000
  C   C443      1.0  0.12744  0.56950  0.47170  1.0000
  C   C444      1.0  0.27499  0.61394  0.40191  1.0000
  N   N37       1.0  0.18855  0.62275  0.45197  1.0000
  C   C445      1.0  0.08157  0.48440  0.30813  1.0000
  C   C446      1.0  0.30023  0.57525  0.45854  1.0000
  C   C447      1.0  0.30645  0.60957  0.37558  1.0000
  C   C448      1.0  0.16159  0.52759  0.25013  1.0000
  C   C449      1.0  0.16124  0.58656  0.37329  1.0000
  C   C450      1.0  0.31955  0.56873  0.44683  1.0000
  N   N38       1.0  0.15299  0.52515  0.27225  1.0000
  C   C451      1.0  0.16430  0.51231  0.28619  1.0000
  C   C452      1.0  0.13317  0.53470  0.27871  1.0000
  C   C453      1.0  0.15575  0.50877  0.30721  1.0000
  H   H450      1.0  0.24046  0.51007  0.32520  1.0000
  C   C454      1.0  0.12415  0.53149  0.29958  1.0000
  C   C455      1.0  0.32043  0.55879  0.43021  1.0000
  H   H451      1.0  0.16645  0.62395  0.43282  1.0000
  H   H452      1.0  0.99420  0.64996  0.05759  1.0000
  H   H453      1.0  0.15551  0.54322  0.24189  1.0000
  H   H454      1.0  0.16172  0.56813  0.40364  1.0000
  C   C456      1.0  0.07488  0.50256  0.23722  1.0000
  C   C457      1.0  0.00678  0.66476  0.26779  1.0000
  H   H455      1.0  0.17266  0.63971  0.47566  1.0000
  H   H456      1.0  0.13831  0.63426  0.06423  1.0000
  N   N39       1.0  0.08413  0.60073  0.17449  1.0000
  C   C458      1.0  0.04934  0.60939  0.19272  1.0000
  H   H457      1.0  0.11627  0.58791  0.16857  1.0000
  C   C459      1.0  0.12516  0.59092  0.46462  1.0000
  H   H458      1.0  0.17779  0.58216  0.36795  1.0000
  C   C460      1.0  0.08827  0.65427  0.01910  1.0000
  H   H459      1.0  0.29691  0.60963  0.36437  1.0000
  C   C461      1.0  0.99323  0.68057  0.06351  1.0000
  H   H460      1.0  0.11983  0.68292  0.02937  1.0000
  S   S164      1.0  0.07603  0.70538  0.44927  1.0000
  H   H461      1.0  0.09301  0.62175  0.39281  1.0000
  C   C462      1.0  0.20729  0.58507  0.43965  1.0000
  H   H462      1.0  0.21254  0.61776  0.46979  1.0000
  C   C463      1.0  0.14891  0.60023  0.36018  1.0000
  H   H463      1.0  0.07637  0.65555  0.00994  1.0000
  H   H464      1.0  0.27633  0.51085  0.47611  1.0000
  C   C464      1.0  0.12764  0.60588  0.36728  1.0000
  C   C465      1.0  0.20599  0.61177  0.45927  1.0000
  H   H465      1.0  0.15727  0.51569  0.24328  1.0000
  S   S165      1.0  0.04785  0.73361  0.06517  1.0000
  H   H466      1.0  0.17984  0.50427  0.28110  1.0000
  H   H467      1.0  0.10903  0.61370  0.15472  1.0000
  C   C466      1.0  0.22288  0.49084  0.31604  1.0000
  H   H468      1.0  0.11831  0.70541  0.45455  1.0000
  H   H469      1.0  0.11030  0.60958  0.18187  1.0000
  C   C467      1.0  0.21561  0.59277  0.45325  1.0000
  H   H470      1.0  0.11189  0.62078  0.05595  1.0000
  H   H471      1.0  0.00068  0.72796  0.13308  1.0000
  C   C468      1.0  0.15224  0.57874  0.39332  1.0000
  H   H472      1.0  0.26676  0.62087  0.38867  1.0000
  C   C469      1.0  0.18021  0.61524  0.43873  1.0000
  C   C470      1.0  0.10597  0.60317  0.16972  1.0000
  C   C471      1.0  0.18947  0.59635  0.43233  1.0000
  H   H473      1.0  0.13157  0.72501  0.47501  1.0000
  N   N40       1.0  0.11892  0.59812  0.38694  1.0000
  H   H474      1.0  0.15584  0.60661  0.34467  1.0000
  H   H475      1.0  0.22948  0.58411  0.45896  1.0000
  C   C472      1.0  0.99302  0.59905  0.22075  1.0000
  H   H476      1.0  0.18302  0.59069  0.42154  1.0000
  H   H477      1.0  0.09158  0.59773  0.41037  1.0000
  H   H478      1.0  0.02611  0.59574  0.18511  1.0000
  C   C473      1.0  0.04239  0.59719  0.18203  1.0000
  S   S166      1.0  0.99187  0.71939  0.07102  1.0000
  H   H479      1.0  0.14633  0.65736  0.04849  1.0000
  H   H480      1.0  0.12491  0.65922  0.06992  1.0000
  C   C474      1.0  0.22755  0.48924  0.35141  1.0000
  H   H481      1.0  0.01841  0.65179  0.09775  1.0000
  H   H482      1.0  0.30302  0.53639  0.30745  1.0000
  H   H483      1.0  0.30888  0.51376  0.29513  1.0000
  S   S167      1.0  0.06771  0.72167  0.11799  1.0000
  H   H484      1.0  0.22634  0.49729  0.29981  1.0000
  N   N41       1.0  0.29760  0.61172  0.39548  1.0000
  S   S168      1.0  0.31693  0.55656  0.33540  1.0000
  H   H485      1.0  0.06415  0.49955  0.19080  1.0000
  H   H486      1.0  0.10836  0.53898  0.30455  1.0000
  H   H487      1.0  0.04004  0.48769  0.15231  1.0000
  H   H488      1.0  0.28272  0.52279  0.30748  1.0000
  C   C475      1.0  0.06406  0.50654  0.22074  1.0000
  H   H489      1.0  0.01637  0.62063  0.08480  1.0000
  N   N42       1.0  0.09350  0.48925  0.23673  1.0000
  H   H490      1.0  0.00373  0.58831  0.22965  1.0000
  H   H491      1.0  0.16459  0.49816  0.31814  1.0000
  H   H492      1.0  0.01015  0.58494  0.09323  1.0000
  N   N43       1.0  0.30412  0.50738  0.32784  1.0000
  H   H493      1.0  0.00074  0.65663  0.13327  1.0000
  C   C476      1.0  0.29040  0.49516  0.33957  1.0000
  H   H494      1.0  0.03313  0.67706  0.30029  1.0000
  H   H495      1.0  0.09976  0.49722  0.26377  1.0000
  C   C477      1.0  0.01134  0.65580  0.30886  1.0000
  H   H496      1.0  0.30288  0.61183  0.42565  1.0000
  C   C478      1.0  0.99614  0.58968  0.10453  1.0000
  H   H497      1.0  0.29938  0.58288  0.47143  1.0000
  C   C479      1.0  0.10752  0.71457  0.46497  1.0000
  C   C480      1.0  0.08613  0.71623  0.46609  1.0000
  H   H498      1.0  0.11757  0.56057  0.46776  1.0000
  C   C481      1.0  0.30981  0.61079  0.40972  1.0000
  H   H499      1.0  0.13628  0.61885  0.46457  1.0000
  C   C482      1.0  0.10461  0.48485  0.25420  1.0000
  H   H500      1.0  0.01336  0.65226  0.32490  1.0000
  H   H501      1.0  0.19019  0.65308  0.45553  1.0000
  C   C483      1.0  0.99611  0.65044  0.28201  1.0000
  N   N44       1.0  0.99876  0.64588  0.30218  1.0000
  H   H502      1.0  0.99795  0.62060  0.32734  1.0000
  C   C484      1.0  0.08781  0.49277  0.32270  1.0000
  S   S169      1.0  0.00240  0.63021  0.23690  1.0000
  H   H503      1.0  0.25634  0.69123  0.47564  1.0000
  H   H504      1.0  0.12161  0.48388  0.24857  1.0000
  C   C485      1.0  0.32258  0.50693  0.33378  1.0000
  C   C486      1.0  0.25756  0.61833  0.54948  1.0000
  H   H505      1.0  0.28814  0.58161  0.54262  1.0000
  C   C487      1.0  0.05005  0.65181  0.51786  1.0000
  Fe  Fe87      1.0  0.01894  0.66973  0.62849  1.0000
  S   S170      1.0  0.02194  0.67934  0.59423  1.0000
  C   C488      1.0  0.15275  0.59241  0.48238  1.0000
  S   S171      1.0  0.31306  0.50186  0.53182  1.0000
  Fe  Fe88      1.0  0.02365  0.64557  0.59414  1.0000
  S   S172      1.0  0.04710  0.63020  0.57002  1.0000
  N   N45       1.0  0.26645  0.57206  0.88047  1.0000
  S   S173      1.0  0.02313  0.63561  0.62817  1.0000
  Fe  Fe89      1.0  0.16650  0.60516  0.55731  1.0000
  S   S174      1.0  0.18071  0.57162  0.55723  1.0000
  S   S175      1.0  0.14088  0.61723  0.58185  1.0000
  Fe  Fe90      1.0  0.19655  0.61948  0.51899  1.0000
  S   S176      1.0  0.21344  0.58745  0.51537  1.0000
  S   S177      1.0  0.20276  0.64832  0.49699  1.0000
  Fe  Fe91      1.0  0.18136  0.57968  0.52299  1.0000
  S   S178      1.0  0.17327  0.55836  0.50543  1.0000
  Fe  Fe92      1.0  0.21150  0.58240  0.54970  1.0000
  S   S179      1.0  0.23734  0.56644  0.56739  1.0000
  S   S180      1.0  0.16454  0.61228  0.52372  1.0000
  S   S181      1.0  0.19731  0.61539  0.55264  1.0000
  C   C489      1.0  0.26555  0.63880  0.49079  1.0000
  H   H506      1.0  0.29475  0.65773  0.52798  1.0000
  H   H507      1.0  0.31351  0.65564  0.86703  1.0000
  H   H508      1.0  0.30228  0.58790  0.55994  1.0000
  C   C490      1.0  0.05004  0.70094  0.63560  1.0000
  C   C491      1.0  0.26284  0.65339  0.53503  1.0000
  H   H509      1.0  0.11385  0.66573  0.60109  1.0000
  C   C492      1.0  0.11057  0.70959  0.56766  1.0000
  Fe  Fe93      1.0  0.28458  0.53017  0.83489  1.0000
  Fe  Fe94      1.0  0.32128  0.63861  0.48299  1.0000
  S   S182      1.0  0.26296  0.50974  0.85620  1.0000
  Fe  Fe95      1.0  0.30208  0.54961  0.79133  1.0000
  H   H510      1.0  0.27621  0.58301  0.56907  1.0000
  S   S183      1.0  0.30833  0.51766  0.80981  1.0000
  C   C493      1.0  0.14246  0.55953  0.48394  1.0000
  H   H511      1.0  0.24177  0.61967  0.50041  1.0000
  Fe  Fe96      1.0  0.30131  0.57110  0.82718  1.0000
  S   S184      1.0  0.29560  0.60329  0.83561  1.0000
  H   H512      1.0  0.07355  0.59165  0.52003  1.0000
  S   S185      1.0  0.27611  0.56138  0.81544  1.0000
  C   C494      1.0  0.30206  0.50516  0.73953  1.0000
  H   H513      1.0  0.26369  0.53219  0.58718  1.0000
  C   C495      1.0  0.10338  0.67974  0.59464  1.0000
  H   H514      1.0  0.00415  0.72420  0.58378  1.0000
  C   C496      1.0  0.24942  0.63909  0.54255  1.0000
  H   H515      1.0  0.28036  0.49204  0.51156  1.0000
  C   C497      1.0  0.11918  0.71816  0.54769  1.0000
  H   H516      1.0  0.22058  0.53773  0.54706  1.0000
  H   H517      1.0  0.25878  0.50884  0.81411  1.0000
  C   C498      1.0  0.00384  0.64387  0.68127  1.0000
  H   H518      1.0  0.32217  0.55202  0.71579  1.0000
  H   H519      1.0  0.25247  0.49908  0.54107  1.0000
  C   C499      1.0  0.07235  0.72810  0.47982  1.0000
  H   H520      1.0  0.10213  0.71989  0.57820  1.0000
  H   H521      1.0  0.13646  0.71166  0.51827  1.0000
  C   C500      1.0  0.15498  0.57100  0.48953  1.0000
  C   C501      1.0  0.23039  0.53141  0.50313  1.0000
  H   H522      1.0  0.29489  0.53644  0.91199  1.0000
  H   H523      1.0  0.09843  0.59702  0.50642  1.0000
  N   N46       1.0  0.27846  0.61208  0.54915  1.0000
  C   C502      1.0  0.26960  0.65909  0.48413  1.0000
  C   C503      1.0  0.28542  0.58877  0.89683  1.0000
  H   H524      1.0  0.29006  0.60283  0.89858  1.0000
  C   C504      1.0  0.06079  0.66579  0.50338  1.0000
  H   H525      1.0  0.21529  0.51160  0.55236  1.0000
  H   H526      1.0  0.29924  0.50410  0.75655  1.0000
  H   H527      1.0  0.27811  0.62604  0.49343  1.0000
  C   C505      1.0  0.31980  0.58535  0.74820  1.0000
  H   H528      1.0  0.00338  0.61176  0.68192  1.0000
  H   H529      1.0  0.12499  0.65891  0.56511  1.0000
  C   C506      1.0  0.22865  0.65188  0.49165  1.0000
  H   H530      1.0  0.31925  0.54462  0.54087  1.0000
  C   C507      1.0  0.25210  0.57357  0.86628  1.0000
  H   H531      1.0  0.21654  0.54274  0.50069  1.0000
  C   C508      1.0  0.25027  0.50683  0.52560  1.0000
  C   C509      1.0  0.24498  0.63522  0.49480  1.0000
  C   C510      1.0  0.25326  0.67555  0.48079  1.0000
  H   H532      1.0  0.14045  0.67325  0.52962  1.0000
  C   C511      1.0  0.25072  0.49725  0.82451  1.0000
  H   H533      1.0  0.29323  0.50656  0.57368  1.0000
  H   H534      1.0  0.07869  0.59613  0.49213  1.0000
  C   C512      1.0  0.26483  0.54985  0.53581  1.0000
  C   C513      1.0  0.28201  0.53571  0.52820  1.0000
  H   H535      1.0  0.25702  0.56194  0.52523  1.0000
  H   H536      1.0  0.28735  0.53693  0.51172  1.0000
  C   C514      1.0  0.05946  0.72718  0.60600  1.0000
  H   H537      1.0  0.30517  0.56853  0.91691  1.0000
  H   H538      1.0  0.03670  0.65736  0.52885  1.0000
  C   C515      1.0  0.07677  0.72063  0.63541  1.0000
  S   S186      1.0  0.32037  0.60562  0.49838  1.0000
  H   H539      1.0  0.25685  0.66937  0.52883  1.0000
  C   C516      1.0  0.07312  0.62613  0.57363  1.0000
  C   C517      1.0  0.08911  0.61745  0.55912  1.0000
  C   C518      1.0  0.10997  0.61439  0.56159  1.0000
  C   C519      1.0  0.11490  0.61971  0.57876  1.0000
  C   C520      1.0  0.09889  0.62809  0.59341  1.0000
  C   C521      1.0  0.07809  0.63150  0.59075  1.0000
  H   H540      1.0  0.08542  0.61297  0.54603  1.0000
  H   H541      1.0  0.12218  0.60775  0.55032  1.0000
  H   H542      1.0  0.10258  0.63190  0.60690  1.0000
  H   H543      1.0  0.06591  0.63810  0.60207  1.0000
  C   C522      1.0  0.07818  0.65830  0.48976  1.0000
  H   H544      1.0  0.08837  0.67535  0.59419  1.0000
  C   C523      1.0  0.23288  0.67193  0.48431  1.0000
  C   C524      1.0  0.24004  0.48541  0.81671  1.0000
  H   H545      1.0  0.29534  0.64349  0.84434  1.0000
  C   C525      1.0  0.28551  0.51868  0.56307  1.0000
  H   H546      1.0  0.03577  0.70902  0.60852  1.0000
  C   C526      1.0  0.08148  0.60091  0.50602  1.0000
  C   C527      1.0  0.29174  0.62602  0.54172  1.0000
  C   C528      1.0  0.25813  0.54853  0.55710  1.0000
  H   H547      1.0  0.06681  0.69702  0.66057  1.0000
  C   C529      1.0  0.28826  0.55153  0.90420  1.0000
  C   C530      1.0  0.26615  0.50281  0.50895  1.0000
  H   H548      1.0  0.26554  0.60479  0.87514  1.0000
  N   N47       1.0  0.23262  0.52088  0.52252  1.0000
  H   H549      1.0  0.16269  0.60124  0.48622  1.0000
  C   C531      1.0  0.26871  0.53315  0.57067  1.0000
  C   C532      1.0  0.06468  0.70543  0.64534  1.0000
  S   S187      1.0  0.30769  0.54078  0.84859  1.0000
  S   S188      1.0  0.03531  0.68159  0.64837  1.0000
  C   C533      1.0  0.07418  0.73157  0.61572  1.0000
  C   C534      1.0  0.24596  0.52780  0.48616  1.0000
  C   C535      1.0  0.26398  0.51347  0.48913  1.0000
  H   H550      1.0  0.27007  0.53904  0.88857  1.0000
  H   H551      1.0  0.23289  0.64392  0.54240  1.0000
  C   C536      1.0  0.99299  0.66221  0.68780  1.0000
  C   C537      1.0  0.29209  0.51981  0.54182  1.0000
  H   H552      1.0  0.24707  0.60723  0.55493  1.0000
  H   H553      1.0  0.29038  0.51822  0.73350  1.0000
  N   N48       1.0  0.07416  0.62327  0.50521  1.0000
  H   H554      1.0  0.24001  0.48798  0.80029  1.0000
  C   C538      1.0  0.29397  0.56950  0.90703  1.0000
  C   C539      1.0  0.11501  0.72568  0.47661  1.0000
  C   C540      1.0  0.27156  0.58978  0.88357  1.0000
  C   C541      1.0  0.08464  0.63687  0.49083  1.0000
  C   C542      1.0  0.28414  0.64685  0.53455  1.0000
  H   H555      1.0  0.10040  0.69096  0.60545  1.0000
  C   C543      1.0  0.27424  0.55311  0.89092  1.0000
  H   H556      1.0  0.25603  0.58489  0.85197  1.0000
  C   C544      1.0  0.05689  0.63047  0.51845  1.0000
  H   H557      1.0  0.08659  0.66906  0.47847  1.0000
  S   S189      1.0  0.30189  0.55034  0.75790  1.0000
  N   N49       1.0  0.11287  0.68853  0.57380  1.0000
  H   H558      1.0  0.04854  0.61977  0.52997  1.0000
  C   C545      1.0  0.12330  0.67558  0.56031  1.0000
  C   C546      1.0  0.04736  0.71196  0.61594  1.0000
  C   C547      1.0  0.13204  0.68362  0.54018  1.0000
  C   C548      1.0  0.12990  0.70509  0.53386  1.0000
  C   C549      1.0  0.28673  0.59007  0.55551  1.0000
  C   C550      1.0  0.25040  0.49452  0.84576  1.0000
  C   C551      1.0  0.30667  0.63258  0.85237  1.0000
  H   H559      1.0  0.01889  0.64372  0.67129  1.0000
  H   H560      1.0  0.23591  0.57873  0.87377  1.0000
  H   H561      1.0  0.25303  0.55843  0.86145  1.0000
  H   H562      1.0  0.20106  0.53131  0.53569  1.0000
  H   H563      1.0  0.08815  0.72389  0.64302  1.0000
  C   C552      1.0  0.31654  0.56811  0.74143  1.0000
  H   H564      1.0  0.05569  0.68240  0.50268  1.0000
  H   H565      1.0  0.31276  0.58824  0.76356  1.0000
  C   C553      1.0  0.31058  0.61160  0.85019  1.0000
  H   H566      1.0  0.09810  0.63114  0.48014  1.0000
  H   H567      1.0  0.30837  0.62103  0.54099  1.0000
  C   C554      1.0  0.21661  0.52561  0.54026  1.0000
  H   H568      1.0  0.22031  0.68481  0.48178  1.0000
  H   H569      1.0  0.99960  0.67632  0.68278  1.0000
  C   C555      1.0  0.31697  0.63953  0.86519  1.0000
  H   H570      1.0  0.05577  0.72943  0.48083  1.0000
  H   H571      1.0  0.31735  0.51170  0.69955  1.0000
  H   H572      1.0  0.31964  0.63111  0.62279  1.0000
  H   H573      1.0  0.14412  0.54296  0.48941  1.0000
  S   S190      1.0  0.29449  0.66485  0.48140  1.0000
  C   C556      1.0  0.99508  0.62584  0.68751  1.0000
  H   H574      1.0  0.29977  0.49042  0.73590  1.0000
  H   H575      1.0  0.27716  0.97220  0.10519  1.0000
  H   H576      1.0  0.23472  0.89229  0.99697  1.0000
  Fe  Fe97      1.0  0.19749  0.88886  0.08279  1.0000
  S   S191      1.0  0.21217  0.90418  0.05216  1.0000
  S   S192      1.0  0.21703  0.86561  0.10338  1.0000
  Fe  Fe98      1.0  0.15414  0.91234  0.07710  1.0000
  S   S193      1.0  0.16612  0.93019  0.04594  1.0000
  S   S194      1.0  0.12027  0.91348  0.09242  1.0000
  Fe  Fe99      1.0  0.18493  0.89916  0.04046  1.0000
  S   S195      1.0  0.19062  0.88201  0.01364  1.0000
  Fe  Fe100     1.0  0.19237  0.93358  0.06105  1.0000
  C   C557      1.0  0.20535  0.82769  0.07384  1.0000
  S   S196      1.0  0.17172  0.88138  0.07070  1.0000
  S   S197      1.0  0.17882  0.91825  0.09256  1.0000
  C   C558      1.0  0.25552  0.94185  0.11964  1.0000
  H   H577      1.0  0.08133  0.79402  0.47016  1.0000
  C   C559      1.0  0.09829  0.76155  0.99081  1.0000
  S   S198      1.0  0.00168  0.82690  0.09330  1.0000
  H   H578      1.0  0.10904  0.75240  0.39897  1.0000
  Fe  Fe101     1.0  0.01095  0.85774  0.09237  1.0000
  S   S199      1.0  0.03929  0.86525  0.06865  1.0000
  C   C560      1.0  0.23500  0.83896  0.02029  1.0000
  S   S200      1.0  0.00769  0.85474  0.12665  1.0000
  H   H579      1.0  0.23980  0.85350  0.02153  1.0000
  C   C561      1.0  0.05733  0.78145  0.00091  1.0000
  H   H580      1.0  0.17754  0.85314  0.99492  1.0000
  C   C562      1.0  0.19145  0.93994  0.97847  1.0000
  C   C563      1.0  0.32127  0.82085  0.08657  1.0000
  C   C564      1.0  0.23730  0.92009  0.10808  1.0000
  H   H581      1.0  0.13266  0.92151  0.97976  1.0000
  C   C565      1.0  0.06335  0.79115  0.08215  1.0000
  C   C566      1.0  0.23143  0.79771  0.06759  1.0000
  Fe  Fe102     1.0  0.31123  0.81347  0.03509  1.0000
  H   H582      1.0  0.19637  0.95919  0.09867  1.0000
  H   H583      1.0  0.25093  0.80053  0.03784  1.0000
  C   C567      1.0  0.20869  0.96828  0.09368  1.0000
  C   C568      1.0  0.18741  0.95608  0.98973  1.0000
  H   H584      1.0  0.05443  0.78170  0.45758  1.0000
  H   H585      1.0  0.31876  0.80495  0.08654  1.0000
  H   H586      1.0  0.07242  0.82630  0.01716  1.0000
  C   C569      1.0  0.15703  0.90392  0.99608  1.0000
  C   C570      1.0  0.03597  0.76341  0.15370  1.0000
  C   C571      1.0  0.08581  0.78429  0.45836  1.0000
  S   S201      1.0  0.28707  0.80127  0.06059  1.0000
  H   H587      1.0  0.08415  0.78830  0.02473  1.0000
  C   C572      1.0  0.30529  0.89082  0.23265  1.0000
  N   N50       1.0  0.06561  0.80681  0.04634  1.0000
  C   C573      1.0  0.07595  0.77301  0.07664  1.0000
  C   C574      1.0  0.23769  0.80808  0.04761  1.0000
  H   H588      1.0  0.22757  0.94049  0.01605  1.0000
  C   C575      1.0  0.07163  0.79228  0.98671  1.0000
  H   H589      1.0  0.29719  0.95013  0.10050  1.0000
  S   S202      1.0  0.30058  0.93549  0.26617  1.0000
  H   H590      1.0  0.22214  0.84310  0.01123  1.0000
  C   C576      1.0  0.28238  0.95933  0.09618  1.0000
  H   H591      1.0  0.24459  0.90627  0.01159  1.0000
  H   H592      1.0  0.20449  0.85324  0.04851  1.0000
  C   C577      1.0  0.21191  0.83753  0.05371  1.0000
  H   H593      1.0  0.27902  0.85055  0.98815  1.0000
  C   C578      1.0  0.29764  0.90527  0.24597  1.0000
  H   H594      1.0  0.24572  0.91819  0.07576  1.0000
  C   C579      1.0  0.23807  0.84903  0.09149  1.0000
  C   C580      1.0  0.24762  0.85447  0.07095  1.0000
  C   C581      1.0  0.26354  0.84026  0.06159  1.0000
  C   C582      1.0  0.26958  0.82045  0.07265  1.0000
  C   C583      1.0  0.26041  0.81525  0.09329  1.0000
  C   C584      1.0  0.24492  0.82960  0.10276  1.0000
  H   H595      1.0  0.24273  0.86954  0.06225  1.0000
  H   H596      1.0  0.27051  0.84433  0.04560  1.0000
  H   H597      1.0  0.26503  0.79996  0.10190  1.0000
  H   H598      1.0  0.23768  0.82534  0.11866  1.0000
  H   H599      1.0  0.09283  0.75779  0.05127  1.0000
  H   H600      1.0  0.27199  0.94103  0.06905  1.0000
  C   C585      1.0  0.10408  0.90113  0.08326  1.0000
  C   C586      1.0  0.11053  0.89646  0.05792  1.0000
  C   C587      1.0  0.07973  0.87850  0.04965  1.0000
  C   C588      1.0  0.06044  0.87570  0.07152  1.0000
  C   C589      1.0  0.06207  0.88271  0.09466  1.0000
  C   C590      1.0  0.08171  0.89420  0.09994  1.0000
  H   H601      1.0  0.12481  0.90090  0.04833  1.0000
  H   H602      1.0  0.07791  0.87357  0.03573  1.0000
  H   H603      1.0  0.04936  0.87993  0.10724  1.0000
  H   H604      1.0  0.07951  0.89760  0.11536  1.0000
  H   H605      1.0  0.19753  0.96863  0.01226  1.0000
  C   C591      1.0  0.07075  0.77730  0.45136  1.0000
  C   C592      1.0  0.17010  0.88482  0.99998  1.0000
  H   H606      1.0  0.23978  0.78246  0.07306  1.0000
  H   H607      1.0  0.20709  0.97527  0.12396  1.0000
  C   C593      1.0  0.23408  0.98329  0.06680  1.0000
  S   S203      1.0  0.31270  0.81496  0.00112  1.0000
  C   C594      1.0  0.02291  0.77683  0.14106  1.0000
  C   C595      1.0  0.02337  0.77316  0.12124  1.0000
  C   C596      1.0  0.03668  0.75590  0.11426  1.0000
  C   C597      1.0  0.06354  0.76082  0.01021  1.0000
  H   H608      1.0  0.01306  0.78326  0.11154  1.0000
  H   H609      1.0  0.03676  0.75307  0.09909  1.0000
  C   C598      1.0  0.21478  0.97748  0.10801  1.0000
  H   H610      1.0  0.28186  0.90626  0.25435  1.0000
  C   C599      1.0  0.07693  0.76391  0.43691  1.0000
  C   C600      1.0  0.05933  0.82411  0.03023  1.0000
  H   H611      1.0  0.24848  0.82963  0.01166  1.0000
  C   C601      1.0  0.21522  0.80766  0.08080  1.0000
  C   C602      1.0  0.08336  0.77195  0.05583  1.0000
  C   C603      1.0  0.07818  0.78918  0.04083  1.0000
  C   C604      1.0  0.24070  0.92884  0.12390  1.0000
  H   H612      1.0  0.17414  0.96842  0.98799  1.0000
  H   H613      1.0  0.04639  0.82089  0.02406  1.0000
  H   H614      1.0  0.09108  0.73580  0.41376  1.0000
  H   H615      1.0  0.05745  0.79215  0.09829  1.0000
  H   H616      1.0  0.19323  0.83584  0.08423  1.0000
  H   H617      1.0  0.03554  0.76611  0.16910  1.0000
  H   H618      1.0  0.22562  0.91022  0.11106  1.0000
  H   H619      1.0  0.04780  0.82169  0.07112  1.0000
  C   C605      1.0  0.05011  0.74274  0.12674  1.0000
  H   H620      1.0  0.31345  0.85337  0.10584  1.0000
  C   C606      1.0  0.10394  0.74364  0.41454  1.0000
  H   H621      1.0  0.21075  0.80014  0.09659  1.0000
  C   C607      1.0  0.20847  0.92403  0.98113  1.0000
  C   C608      1.0  0.24869  0.92445  0.08827  1.0000
  S   S204      1.0  0.00511  0.79711  0.15092  1.0000
  C   C609      1.0  0.26345  0.93745  0.08457  1.0000
  H   H622      1.0  0.28539  0.96678  0.07969  1.0000
  H   H623      1.0  0.23158  0.92596  0.13925  1.0000
  C   C610      1.0  0.08409  0.75087  0.00534  1.0000
  H   H624      1.0  0.30160  0.96991  0.23080  1.0000
  C   C611      1.0  0.31043  0.91810  0.24880  1.0000
  S   S205      1.0  0.21110  0.95994  0.05415  1.0000
  N   N51       1.0  0.22798  0.82778  0.04096  1.0000
  C   C612      1.0  0.05805  0.80788  0.06670  1.0000
  H   H625      1.0  0.05412  0.83899  0.03619  1.0000
  H   H626      1.0  0.05237  0.75264  0.02107  1.0000
  N   N52       1.0  0.26658  0.94608  0.10014  1.0000
  N   N53       1.0  0.07819  0.90264  0.06538  1.0000
  C   C613      1.0  0.08343  0.91284  0.04091  1.0000
  C   C614      1.0  0.09534  0.87144  0.07584  1.0000
  C   C615      1.0  0.10156  0.89914  0.02483  1.0000
  C   C616      1.0  0.11272  0.86126  0.05640  1.0000
  C   C617      1.0  0.11513  0.87517  0.03219  1.0000
  C   C618      1.0  0.06159  0.92057  0.07249  1.0000
  H   H627      1.0  0.07566  0.92802  0.03448  1.0000
  H   H628      1.0  0.09492  0.86133  0.09102  1.0000
  H   H629      1.0  0.10438  0.90604  0.00867  1.0000
  H   H630      1.0  0.12216  0.84611  0.05961  1.0000
  H   H631      1.0  0.12625  0.86819  0.02033  1.0000
  H   H632      1.0  0.05377  0.91955  0.08882  1.0000
  H   H633      1.0  0.06849  0.93488  0.06957  1.0000
  H   H634      1.0  0.04842  0.92334  0.06397  1.0000
  H   H635      1.0  0.04144  0.78911  0.00487  1.0000
  C   C619      1.0  0.04981  0.74662  0.14641  1.0000
  C   C620      1.0  0.16750  0.86798  0.99192  1.0000
  C   C621      1.0  0.23899  0.90748  0.99691  1.0000
  H   H636      1.0  0.25767  0.94909  0.13186  1.0000
  H   H637      1.0  0.07976  0.75972  0.08847  1.0000
  H   H638      1.0  0.15879  0.91694  0.00235  1.0000
  H   H639      1.0  0.06515  0.75801  0.43206  1.0000
  H   H640      1.0  0.06012  0.73648  0.15616  1.0000
  H   H641      1.0  0.29537  0.88070  0.23084  1.0000
  Fe  Fe103     1.0  0.99638  0.82522  0.12758  1.0000
  H   H642      1.0  0.12876  0.75959  0.43068  1.0000
  H   H643      1.0  0.11418  0.75390  0.98687  1.0000
  C   C622      1.0  0.10677  0.77806  0.45070  1.0000
  C   C623      1.0  0.21827  0.97115  0.07293  1.0000
  C   C624      1.0  0.11241  0.76473  0.43621  1.0000
  H   H644      1.0  0.30817  0.95883  0.18613  1.0000
  Fe  Fe104     1.0  0.32120  0.84626  0.99817  1.0000
  S   S206      1.0  0.31612  0.84600  0.03207  1.0000
  H   H645      1.0  0.25189  0.91037  0.98386  1.0000
  C   C625      1.0  0.09209  0.78222  0.98153  1.0000
  H   H646      1.0  0.11858  0.78287  0.45661  1.0000
  C   C626      1.0  0.30742  0.97974  0.21609  1.0000
  C   C627      1.0  0.14220  0.90646  0.98333  1.0000
  N   N54       1.0  0.09756  0.75766  0.42968  1.0000
  H   H647      1.0  0.30622  0.83139  0.08495  1.0000
  N   N55       1.0  0.22106  0.92416  0.99469  1.0000
  C   C628      1.0  0.15191  0.87026  0.98003  1.0000
  C   C629      1.0  0.21748  0.94015  0.00547  1.0000
  H   H648      1.0  0.00426  0.73440  0.10538  1.0000
  S   S207      1.0  0.06386  0.81875  0.97703  1.0000
  C   C630      1.0  0.20052  0.95624  0.00330  1.0000
  H   H649      1.0  0.11750  0.73486  0.54295  1.0000
  Fe  Fe105     1.0  0.24553  0.86264  0.87288  1.0000
  S   S208      1.0  0.22072  0.88775  0.88439  1.0000
  S   S209      1.0  0.23972  0.83302  0.86646  1.0000
  Fe  Fe106     1.0  0.28076  0.88391  0.87524  1.0000
  S   S210      1.0  0.25888  0.91086  0.88716  1.0000
  Fe  Fe107     1.0  0.24121  0.88674  0.90705  1.0000
  S   S211      1.0  0.22988  0.88316  0.94117  1.0000
  Fe  Fe108     1.0  0.24058  0.90932  0.86330  1.0000
  S   S212      1.0  0.22812  0.93693  0.84121  1.0000
  S   S213      1.0  0.26466  0.85991  0.89722  1.0000
  S   S214      1.0  0.26391  0.88421  0.84970  1.0000
  C   C631      1.0  0.04535  0.97456  0.78618  1.0000
  Fe  Fe109     1.0  0.04846  0.78775  0.54869  1.0000
  S   S215      1.0  0.06043  0.79838  0.57257  1.0000
  S   S216      1.0  0.01417  0.78842  0.55225  1.0000
  Fe  Fe110     1.0  0.09152  0.77222  0.52631  1.0000
  S   S217      1.0  0.10724  0.78206  0.54844  1.0000
  Fe  Fe111     1.0  0.08292  0.76855  0.57294  1.0000
  H   H650      1.0  0.12173  0.94636  0.86789  1.0000
  Fe  Fe112     1.0  0.08346  0.81137  0.54618  1.0000
  S   S218      1.0  0.08626  0.84501  0.54500  1.0000
  S   S219      1.0  0.06915  0.75659  0.55119  1.0000
  S   S220      1.0  0.06962  0.80278  0.52183  1.0000
  Fe  Fe113     1.0  0.16207  0.95166  0.58959  1.0000
  S   S221      1.0  0.13983  0.94438  0.57220  1.0000
  H   H651      1.0  0.09496  0.91852  0.92782  1.0000
  Fe  Fe114     1.0  0.13830  0.93264  0.63128  1.0000
  S   S222      1.0  0.11430  0.92453  0.61709  1.0000
  S   S223      1.0  0.13431  0.92987  0.66583  1.0000
  Fe  Fe115     1.0  0.14140  0.91345  0.59354  1.0000
  S   S224      1.0  0.14599  0.88114  0.58545  1.0000
  Fe  Fe116     1.0  0.11488  0.95589  0.59727  1.0000
  C   C632      1.0  0.00012  0.80539  0.56899  1.0000
  S   S225      1.0  0.16581  0.91972  0.60917  1.0000
  H   H652      1.0  0.21861  0.78764  0.93197  1.0000
  Fe  Fe117     1.0  0.03170  0.91496  0.76643  1.0000
  S   S226      1.0  0.05948  0.88974  0.76948  1.0000
  S   S227      1.0  0.03418  0.94818  0.76612  1.0000
  Fe  Fe118     1.0  0.00490  0.88558  0.75919  1.0000
  S   S228      1.0  0.03041  0.85816  0.76284  1.0000
  Fe  Fe119     1.0  0.03606  0.87101  0.78926  1.0000
  S   S229      1.0  0.04126  0.85016  0.81971  1.0000
  Fe  Fe120     1.0  0.05118  0.87966  0.74289  1.0000
  S   S230      1.0  0.07163  0.86991  0.71428  1.0000
  S   S231      1.0  0.00847  0.89684  0.78752  1.0000
  S   S232      1.0  0.02544  0.90650  0.73798  1.0000
  Fe  Fe121     1.0  0.08690  0.83483  0.95281  1.0000
  S   S233      1.0  0.08010  0.86955  0.94320  1.0000
  H   H653      1.0  0.30527  0.85845  0.84590  1.0000
  Fe  Fe122     1.0  0.12807  0.83111  0.92424  1.0000
  S   S234      1.0  0.12498  0.86529  0.91267  1.0000
  S   S235      1.0  0.15426  0.80719  0.91248  1.0000
  Fe  Fe123     1.0  0.11329  0.86830  0.94589  1.0000
  H   H654      1.0  0.08443  0.97381  0.66800  1.0000
  Fe  Fe124     1.0  0.09228  0.86343  0.91086  1.0000
  S   S236      1.0  0.08097  0.88289  0.88216  1.0000
  S   S237      1.0  0.11923  0.83404  0.95777  1.0000
  S   S238      1.0  0.09624  0.82887  0.92020  1.0000
  H   H655      1.0  0.10320  0.79042  0.97054  1.0000
  H   H656      1.0  0.27891  0.90584  0.78569  1.0000
  S   S239      1.0  0.08993  0.75019  0.60345  1.0000
  H   H657      1.0  0.99113  0.77276  0.64930  1.0000
  C   C633      1.0  0.05153  0.85969  0.83737  1.0000
  C   C634      1.0  0.05682  0.87949  0.83270  1.0000
  C   C635      1.0  0.06542  0.88649  0.84680  1.0000
  C   C636      1.0  0.06899  0.87374  0.86560  1.0000
  C   C637      1.0  0.06363  0.85396  0.87035  1.0000
  C   C638      1.0  0.05485  0.84701  0.85630  1.0000
  H   H658      1.0  0.05428  0.88943  0.81823  1.0000
  H   H659      1.0  0.06943  0.90186  0.84301  1.0000
  H   H660      1.0  0.06626  0.84401  0.88480  1.0000
  H   H661      1.0  0.05073  0.83170  0.86008  1.0000
  C   C639      1.0  0.22356  0.81930  0.92578  1.0000
  H   H662      1.0  0.06907  0.74860  0.50170  1.0000
  H   H663      1.0  0.16137  0.95729  0.66956  1.0000
  C   C640      1.0  0.11660  0.91346  0.67915  1.0000
  C   C641      1.0  0.10573  0.91620  0.69890  1.0000
  C   C642      1.0  0.09158  0.90313  0.70967  1.0000
  C   C643      1.0  0.08864  0.88701  0.70087  1.0000
  C   C644      1.0  0.09959  0.88424  0.68119  1.0000
  C   C645      1.0  0.11344  0.89751  0.67030  1.0000
  H   H664      1.0  0.10826  0.92842  0.70583  1.0000
  H   H665      1.0  0.08324  0.90524  0.72489  1.0000
  H   H666      1.0  0.09747  0.87172  0.67441  1.0000
  H   H667      1.0  0.12210  0.89503  0.65528  1.0000
  C   C646      1.0  0.10417  0.85505  0.55460  1.0000
  C   C647      1.0  0.12173  0.84244  0.56151  1.0000
  C   C648      1.0  0.13468  0.85084  0.57040  1.0000
  C   C649      1.0  0.13019  0.87186  0.57254  1.0000
  C   C650      1.0  0.11292  0.88458  0.56516  1.0000
  C   C651      1.0  0.10007  0.87622  0.55612  1.0000
  H   H668      1.0  0.12529  0.82621  0.56011  1.0000
  H   H669      1.0  0.14814  0.84094  0.57587  1.0000
  H   H670      1.0  0.10936  0.90081  0.56658  1.0000
  H   H671      1.0  0.08662  0.88615  0.55064  1.0000
  H   H672      1.0  0.18452  0.96752  0.63688  1.0000
  S   S240      1.0  0.13744  0.98065  0.87558  1.0000
  H   H673      1.0  0.19655  0.96460  0.82072  1.0000
  H   H674      1.0  0.02157  0.82691  0.55985  1.0000
  H   H675      1.0  0.29901  0.82804  0.93242  1.0000
  C   C652      1.0  0.01513  0.76157  0.60218  1.0000
  C   C653      1.0  0.02307  0.85418  0.69135  1.0000
  H   H676      1.0  0.26162  0.90804  0.93123  1.0000
  C   C654      1.0  0.32178  0.85852  0.84244  1.0000
  H   H677      1.0  0.12790  0.87607  0.86352  1.0000
  H   H678      1.0  0.16091  0.98172  0.83392  1.0000
  H   H679      1.0  0.12951  0.80425  0.88176  1.0000
  H   H680      1.0  0.22335  0.85203  0.92067  1.0000
  C   C655      1.0  0.28953  0.90760  0.79513  1.0000
  H   H681      1.0  0.26657  0.92798  0.81249  1.0000
  C   C656      1.0  0.21498  0.82683  0.87698  1.0000
  C   C657      1.0  0.21242  0.80612  0.88037  1.0000
  C   C658      1.0  0.19342  0.80040  0.89062  1.0000
  C   C659      1.0  0.17685  0.81538  0.89746  1.0000
  C   C660      1.0  0.17907  0.83625  0.89329  1.0000
  C   C661      1.0  0.19811  0.84197  0.88300  1.0000
  H   H682      1.0  0.22533  0.79438  0.87555  1.0000
  H   H683      1.0  0.19175  0.78425  0.89369  1.0000
  H   H684      1.0  0.16640  0.84792  0.89841  1.0000
  H   H685      1.0  0.19973  0.85804  0.87980  1.0000
  C   C662      1.0  0.25193  0.88127  0.95195  1.0000
  H   H686      1.0  0.02208  0.74147  0.57169  1.0000
  C   C663      1.0  0.01777  0.87312  0.69831  1.0000
  H   H687      1.0  0.10029  0.94614  0.76412  1.0000
  H   H688      1.0  0.11445  0.88434  0.84230  1.0000
  C   C664      1.0  0.26535  0.89547  0.94362  1.0000
  C   C665      1.0  0.08137  0.95496  0.74027  1.0000
  S   S241      1.0  0.12078  0.89375  0.95921  1.0000
  N   N56       1.0  0.07111  0.97099  0.72787  1.0000
  C   C666      1.0  0.22530  0.98177  0.60392  1.0000
  H   H689      1.0  0.02828  0.87783  0.70605  1.0000
  C   C667      1.0  0.11160  0.81213  0.85712  1.0000
  H   H690      1.0  0.06269  0.91880  0.91511  1.0000
  C   C668      1.0  0.04001  0.95501  0.78795  1.0000
  C   C669      1.0  0.03917  0.94158  0.80698  1.0000
  C   C670      1.0  0.04331  0.94788  0.82419  1.0000
  H   H691      1.0  0.06680  0.95228  0.70756  1.0000
  H   H692      1.0  0.03486  0.92656  0.80857  1.0000
  H   H693      1.0  0.04214  0.93763  0.83899  1.0000
  C   C671      1.0  0.17505  0.95584  0.87945  1.0000
  C   C672      1.0  0.19504  0.94580  0.87196  1.0000
  H   H694      1.0  0.10741  0.79689  0.85956  1.0000
  H   H695      1.0  0.16925  0.95367  0.89587  1.0000
  H   H696      1.0  0.20455  0.93595  0.88261  1.0000
  C   C673      1.0  0.19095  0.80857  0.94233  1.0000
  C   C674      1.0  0.18407  0.86652  0.93528  1.0000
  C   C675      1.0  0.99002  0.84911  0.81104  1.0000
  H   H697      1.0  0.03777  0.84421  0.69365  1.0000
  C   C676      1.0  0.00614  0.74068  0.58047  1.0000
  C   C677      1.0  0.12880  0.83612  0.86654  1.0000
  H   H698      1.0  0.08899  0.96088  0.63545  1.0000
  C   C678      1.0  0.04900  0.96733  0.82227  1.0000
  C   C679      1.0  0.13955  0.88966  0.97527  1.0000
  H   H699      1.0  0.23960  0.81573  0.91825  1.0000
  N   N57       1.0  0.99062  0.86069  0.67906  1.0000
  S   S242      1.0  0.13685  0.96483  0.61317  1.0000
  H   H700      1.0  0.01530  0.82308  0.81253  1.0000
  C   C680      1.0  0.12390  0.81627  0.86962  1.0000
  H   H701      1.0  0.18136  0.93958  0.96790  1.0000
  C   C681      1.0  0.20288  0.94899  0.85077  1.0000
  C   C682      1.0  0.17012  0.97776  0.64133  1.0000
  C   C683      1.0  0.25666  0.86519  0.96820  1.0000
  N   N58       1.0  0.09172  0.83946  0.60698  1.0000
  C   C684      1.0  0.07507  0.85339  0.60086  1.0000
  C   C685      1.0  0.10482  0.84522  0.61702  1.0000
  C   C686      1.0  0.07147  0.87385  0.60434  1.0000
  C   C687      1.0  0.10171  0.86556  0.62071  1.0000
  C   C688      1.0  0.08495  0.87994  0.61426  1.0000
  C   C689      1.0  0.09518  0.81810  0.60317  1.0000
  H   H702      1.0  0.06498  0.84897  0.59243  1.0000
  H   H703      1.0  0.11824  0.83434  0.62158  1.0000
  H   H704      1.0  0.05875  0.88505  0.59873  1.0000
  H   H705      1.0  0.11270  0.87035  0.62778  1.0000
  H   H706      1.0  0.08276  0.89590  0.61650  1.0000
  H   H707      1.0  0.09072  0.81782  0.58822  1.0000
  H   H708      1.0  0.11187  0.81090  0.60197  1.0000
  H   H709      1.0  0.08590  0.80852  0.61575  1.0000
  C   C690      1.0  0.10122  0.73827  0.48969  1.0000
  C   C691      1.0  0.21178  0.80358  0.93346  1.0000
  C   C692      1.0  0.12678  0.87219  0.84857  1.0000
  H   H710      1.0  0.29463  0.92711  0.85313  1.0000
  C   C693      1.0  0.10462  0.82774  0.84154  1.0000
  C   C694      1.0  0.28349  0.89369  0.95152  1.0000
  H   H711      1.0  0.02806  0.76530  0.59017  1.0000
  H   H712      1.0  0.09480  0.82484  0.83187  1.0000
  H   H713      1.0  0.16690  0.86895  0.93668  1.0000
  S   S243      1.0  0.18394  0.97347  0.57072  1.0000
  H   H714      1.0  0.20633  0.95870  0.60555  1.0000
  H   H715      1.0  0.13840  0.83916  0.87633  1.0000
  C   C695      1.0  0.99636  0.83641  0.58364  1.0000
  H   H716      1.0  0.14970  0.85715  0.97425  1.0000
  C   C696      1.0  0.01132  0.77024  0.62007  1.0000
  N   N59       1.0  0.11031  0.93210  0.89851  1.0000
  C   C697      1.0  0.10887  0.94015  0.87831  1.0000
  C   C698      1.0  0.09388  0.92477  0.91177  1.0000
  C   C699      1.0  0.09080  0.94053  0.87079  1.0000
  C   C700      1.0  0.07551  0.92510  0.90477  1.0000
  C   C701      1.0  0.07401  0.93307  0.88414  1.0000
  C   C702      1.0  0.12918  0.93231  0.90619  1.0000
  C   C703      1.0  0.16264  0.96873  0.86577  1.0000
  S   S244      1.0  0.31210  0.87502  0.97576  1.0000
  H   H717      1.0  0.08974  0.94657  0.85471  1.0000
  H   H718      1.0  0.31726  0.89357  0.91274  1.0000
  H   H719      1.0  0.06001  0.93313  0.87834  1.0000
  H   H720      1.0  0.13161  0.91961  0.91950  1.0000
  H   H721      1.0  0.14311  0.93025  0.89397  1.0000
  H   H722      1.0  0.12801  0.94745  0.91105  1.0000
  C   C704      1.0  0.08492  0.97738  0.63550  1.0000
  C   C705      1.0  0.31223  0.83435  0.93375  1.0000
  H   H723      1.0  0.08040  0.93904  0.74001  1.0000
  C   C706      1.0  0.21065  0.97333  0.59738  1.0000
  H   H724      1.0  0.02131  0.78033  0.62185  1.0000
  C   C707      1.0  0.00924  0.84818  0.68165  1.0000
  C   C708      1.0  0.00749  0.82314  0.56996  1.0000
  H   H725      1.0  0.31059  0.74492  0.97131  1.0000
  S   S245      1.0  0.08758  0.98166  0.59390  1.0000
  H   H726      1.0  0.10396  0.85957  0.82702  1.0000
  C   C709      1.0  0.28262  0.92005  0.81038  1.0000
  H   H727      1.0  0.10144  0.98259  0.76590  1.0000
  S   S246      1.0  0.11126  0.75433  0.50158  1.0000
  S   S247      1.0  0.05324  0.97539  0.84416  1.0000
  H   H728      1.0  0.18802  0.87178  0.94834  1.0000
  H   H729      1.0  0.14180  0.87289  0.83784  1.0000
  N   N60       1.0  0.00250  0.74900  0.59964  1.0000
  N   N61       1.0  0.12143  0.85150  0.85159  1.0000
  H   H730      1.0  0.18990  0.87656  0.92077  1.0000
  C   C710      1.0  0.10982  0.84742  0.83890  1.0000
  N   N62       1.0  0.19360  0.84473  0.93496  1.0000
  C   C711      1.0  0.18206  0.82936  0.94298  1.0000
  C   C712      1.0  0.21421  0.83988  0.92689  1.0000
  C   C713      1.0  0.15700  0.97211  0.65990  1.0000
  C   C714      1.0  0.09253  0.95887  0.75402  1.0000
  H   H731      1.0  0.16570  0.83311  0.94922  1.0000
  H   H732      1.0  0.29369  0.90492  0.94521  1.0000
  H   H733      1.0  0.29343  0.95005  0.83320  1.0000
  C   C715      1.0  0.17037  0.97175  0.84457  1.0000
  C   C716      1.0  0.99355  0.81963  0.79441  1.0000
  H   H734      1.0  0.01336  0.83335  0.67643  1.0000
  H   H735      1.0  0.23195  0.97370  0.61736  1.0000
  S   S248      1.0  0.11119  0.98069  0.82934  1.0000
  H   H736      1.0  0.30174  0.86449  0.91699  1.0000
  C   C717      1.0  0.19055  0.96206  0.83711  1.0000
  H   H737      1.0  0.32078  0.75372  0.90156  1.0000
  N   N63       1.0  0.29573  0.92174  0.82282  1.0000
  C   C718      1.0  0.20214  0.98350  0.57988  1.0000
  H   H738      1.0  0.18144  0.79655  0.94770  1.0000
  C   C719      1.0  0.31381  0.85501  0.92509  1.0000
  H   H739      1.0  0.31566  0.88736  0.78076  1.0000
  H   H740      1.0  0.13411  0.96942  0.69694  1.0000
  C   C720      1.0  0.99884  0.88587  0.69545  1.0000
  C   C721      1.0  0.05902  0.96651  0.71402  1.0000
  H   H741      1.0  0.27115  0.93746  0.84300  1.0000
  C   C722      1.0  0.05025  0.98055  0.80313  1.0000
  C   C723      1.0  0.28839  0.93477  0.83880  1.0000
  H   H742      1.0  0.99614  0.85701  0.82035  1.0000
  H   H743      1.0  0.11504  0.96821  0.68212  1.0000
  H   H744      1.0  0.00192  0.85034  0.58408  1.0000
  C   C724      1.0  0.09306  0.97933  0.75511  1.0000
  C   C725      1.0  0.99438  0.76604  0.63539  1.0000
  H   H745      1.0  0.32053  0.75169  0.86509  1.0000
  H   H746      1.0  0.00206  0.80482  0.79067  1.0000
  C   C726      1.0  0.12498  0.97831  0.68492  1.0000
  C   C727      1.0  0.31010  0.89729  0.79233  1.0000
  C   C728      1.0  0.28858  0.87736  0.96737  1.0000
  C   C729      1.0  0.07985  0.73898  0.49168  1.0000
  H   H747      1.0  0.15420  0.98306  0.54068  1.0000
  H   H748      1.0  0.04334  0.96418  0.72264  1.0000
  C   C730      1.0  0.31600  0.91194  0.81998  1.0000
  H   H749      1.0  0.05736  0.73544  0.59084  1.0000
  C   C731      1.0  0.00096  0.82983  0.80668  1.0000
  H   H750      1.0  0.99436  0.90039  0.70131  1.0000
  H   H751      1.0  0.21136  0.91136  0.97254  1.0000
  H   H752      1.0  0.99492  0.74977  0.57046  1.0000
  H   H753      1.0  0.24631  0.85411  0.97445  1.0000
  S   S249      1.0  0.31517  0.88262  0.87236  1.0000
  H   H754      1.0  0.99580  0.84362  0.74239  1.0000
  H   H755      1.0  0.05717  0.97943  0.70076  1.0000
  C   C732      1.0  0.27513  0.86313  0.97584  1.0000
  Fe  Fe125     1.0  0.50847  0.20242  0.12441  1.0000
  S   S250      1.0  0.52706  0.19836  0.09343  1.0000
  H   H756      1.0  0.59396  0.08233  0.13770  1.0000
  Fe  Fe126     1.0  0.49334  0.16148  0.13057  1.0000
  S   S251      1.0  0.51130  0.15396  0.09995  1.0000
  S   S252      1.0  0.47738  0.13750  0.15350  1.0000
  Fe  Fe127     1.0  0.53728  0.16559  0.10783  1.0000
  S   S253      1.0  0.57188  0.15464  0.10498  1.0000
  Fe  Fe128     1.0  0.49935  0.18755  0.08854  1.0000
  S   S254      1.0  0.49085  0.20033  0.05734  1.0000
  S   S255      1.0  0.52040  0.17027  0.13940  1.0000
  S   S256      1.0  0.47957  0.19434  0.11854  1.0000
  C   C733      1.0  0.35888  0.07735  0.30482  1.0000
  C   C734      1.0  0.36890  0.14127  0.15162  1.0000
  S   S257      1.0  0.62023  0.08640  0.05217  1.0000
  S   S258      1.0  0.34464  0.08744  0.24780  1.0000
  N   N64       1.0  0.34740  0.17880  0.16252  1.0000
  C   C735      1.0  0.37281  0.04717  0.17064  1.0000
  S   S259      1.0  0.34834  0.16861  0.41175  1.0000
  C   C736      1.0  0.58019  0.20266  0.11250  1.0000
  C   C737      1.0  0.61161  0.15810  0.00642  1.0000
  C   C738      1.0  0.35973  0.04538  0.29437  1.0000
  S   S260      1.0  0.34045  0.11912  0.45453  1.0000
  H   H757      1.0  0.33309  0.06098  0.21352  1.0000
  S   S261      1.0  0.35337  0.16423  0.35330  1.0000
  H   H758      1.0  0.37195  0.99066  0.16690  1.0000
  C   C739      1.0  0.40847  0.20224  0.20339  1.0000
  S   S262      1.0  0.37207  0.10554  0.20314  1.0000
  C   C740      1.0  0.38102  0.04393  0.28672  1.0000
  Fe  Fe129     1.0  0.34477  0.11761  0.25758  1.0000
  S   S263      1.0  0.37895  0.11714  0.24663  1.0000
  H   H759      1.0  0.59801  0.09039  0.10999  1.0000
  Fe  Fe130     1.0  0.37014  0.13409  0.21631  1.0000
  S   S264      1.0  0.38388  0.16128  0.19656  1.0000
  Fe  Fe131     1.0  0.37813  0.08868  0.23435  1.0000
  S   S265      1.0  0.40490  0.06225  0.23580  1.0000
  H   H760      1.0  0.35188  0.03310  0.29330  1.0000
  S   S266      1.0  0.50995  0.22872  0.13966  1.0000
  N   N65       1.0  0.58919  0.21096  0.09132  1.0000
  C   C741      1.0  0.46473  0.18145  0.18622  1.0000
  H   H761      1.0  0.40539  0.18757  0.21389  1.0000
  H   H762      1.0  0.32845  0.22051  0.99190  1.0000
  Fe  Fe132     1.0  0.37581  0.19376  0.06554  1.0000
  S   S267      1.0  0.37174  0.18286  0.09972  1.0000
  S   S268      1.0  0.40450  0.18833  0.04188  1.0000
  Fe  Fe133     1.0  0.34222  0.17387  0.09606  1.0000
  H   H763      1.0  0.39891  0.20500  0.19109  1.0000
  Fe  Fe134     1.0  0.35281  0.21462  0.10146  1.0000
  N   N66       1.0  0.43047  0.20118  0.19407  1.0000
  S   S269      1.0  0.34788  0.18235  0.06152  1.0000
  H   H764      1.0  0.56404  0.20030  0.11340  1.0000
  C   C742      1.0  0.58392  0.20518  0.07504  1.0000
  C   C743      1.0  0.35021  0.21401  0.36528  1.0000
  H   H765      1.0  0.37828  0.19142  0.36185  1.0000
  C   C744      1.0  0.37017  0.20480  0.36882  1.0000
  H   H766      1.0  0.46325  0.23222  0.16416  1.0000
  C   C745      1.0  0.34218  0.21171  0.99870  1.0000
  H   H767      1.0  0.50727  0.10627  0.13033  1.0000
  C   C746      1.0  0.39192  0.99863  0.23425  1.0000
  H   H768      1.0  0.39533  0.21803  0.11770  1.0000
  C   C747      1.0  0.60621  0.22682  0.05115  1.0000
  H   H769      1.0  0.58763  0.20896  0.04182  1.0000
  C   C748      1.0  0.61190  0.23219  0.06784  1.0000
  C   C749      1.0  0.47176  0.19939  0.17489  1.0000
  H   H770      1.0  0.36287  0.06517  0.12927  1.0000
  C   C750      1.0  0.37230  0.00648  0.16808  1.0000
  C   C751      1.0  0.34554  0.15243  0.33561  1.0000
  C   C752      1.0  0.59219  0.21317  0.05471  1.0000
  H   H771      1.0  0.60752  0.22857  0.10081  1.0000
  C   C753      1.0  0.39948  0.03817  0.23446  1.0000
  C   C754      1.0  0.37916  0.03412  0.23971  1.0000
  C   C755      1.0  0.37542  0.01421  0.23999  1.0000
  H   H772      1.0  0.48783  0.19871  0.16732  1.0000
  C   C756      1.0  0.37937  0.21265  0.38169  1.0000
  C   C757      1.0  0.41592  0.02255  0.22876  1.0000
  H   H773      1.0  0.36641  0.04609  0.24414  1.0000
  C   C758      1.0  0.38311  0.01043  0.18204  1.0000
  H   H774      1.0  0.43165  0.02567  0.22468  1.0000
  Fe  Fe135     1.0  0.33853  0.10672  0.21744  1.0000
  Fe  Fe136     1.0  0.32892  0.14523  0.43034  1.0000
  C   C759      1.0  0.35841  0.15059  0.31642  1.0000
  C   C760      1.0  0.35259  0.14142  0.30196  1.0000
  C   C761      1.0  0.38004  0.07662  0.29690  1.0000
  C   C762      1.0  0.60473  0.12405  0.00693  1.0000
  C   C763      1.0  0.33374  0.13409  0.30655  1.0000
  H   H775      1.0  0.37295  0.15633  0.31271  1.0000
  H   H776      1.0  0.36261  0.14015  0.28724  1.0000
  H   H777      1.0  0.39917  0.22853  0.01545  1.0000
  C   C764      1.0  0.45797  0.21820  0.17316  1.0000
  H   H778      1.0  0.35950  0.19843  0.44300  1.0000
  H   H779      1.0  0.39484  0.20530  0.38447  1.0000
  H   H780      1.0  0.59467  0.10925  0.12616  1.0000
  H   H781      1.0  0.35506  0.98555  0.11954  1.0000
  H   H782      1.0  0.43850  0.16853  0.20424  1.0000
  H   H783      1.0  0.58966  0.18751  0.11792  1.0000
  C   C765      1.0  0.46646  0.19707  0.05401  1.0000
  C   C766      1.0  0.46313  0.19835  0.03393  1.0000
  C   C767      1.0  0.44405  0.19558  0.03054  1.0000
  C   C768      1.0  0.42793  0.19212  0.04714  1.0000
  C   C769      1.0  0.43096  0.19137  0.06729  1.0000
  C   C770      1.0  0.45038  0.19358  0.07076  1.0000
  H   H784      1.0  0.47549  0.20106  0.02097  1.0000
  H   H785      1.0  0.44181  0.19609  0.01497  1.0000
  H   H786      1.0  0.41854  0.18862  0.08018  1.0000
  H   H787      1.0  0.45284  0.19266  0.08632  1.0000
  C   C771      1.0  0.45085  0.14390  0.16399  1.0000
  C   C772      1.0  0.43893  0.16310  0.15743  1.0000
  C   C773      1.0  0.41823  0.16824  0.16720  1.0000
  C   C774      1.0  0.40929  0.15411  0.18342  1.0000
  C   C775      1.0  0.42100  0.13469  0.18951  1.0000
  C   C776      1.0  0.44172  0.12965  0.17987  1.0000
  H   H788      1.0  0.44574  0.17415  0.14511  1.0000
  H   H789      1.0  0.40927  0.18328  0.16232  1.0000
  H   H790      1.0  0.41426  0.12368  0.20198  1.0000
  H   H791      1.0  0.45081  0.11473  0.18497  1.0000
  C   C777      1.0  0.58506  0.13773  0.08788  1.0000
  C   C778      1.0  0.57431  0.12754  0.07857  1.0000
  C   C779      1.0  0.58530  0.11206  0.06720  1.0000
  C   C780      1.0  0.60702  0.10698  0.06491  1.0000
  C   C781      1.0  0.61780  0.11787  0.07341  1.0000
  C   C782      1.0  0.60681  0.13316  0.08497  1.0000
  H   H792      1.0  0.55752  0.13105  0.08072  1.0000
  H   H793      1.0  0.57695  0.10376  0.06045  1.0000
  H   H794      1.0  0.63457  0.11406  0.07165  1.0000
  H   H795      1.0  0.61520  0.14102  0.09215  1.0000
  H   H796      1.0  0.47519  0.16661  0.18711  1.0000
  N   N67       1.0  0.36216  0.04314  0.15707  1.0000
  C   C783      1.0  0.33967  0.23087  0.37466  1.0000
  S   S270      1.0  0.35943  0.22635  0.06738  1.0000
  H   H797      1.0  0.39178  0.03416  0.19412  1.0000
  C   C784      1.0  0.37242  0.22018  0.00815  1.0000
  H   H798      1.0  0.34651  0.20918  0.16839  1.0000
  H   H799      1.0  0.35349  0.01989  0.14484  1.0000
  H   H800      1.0  0.34066  0.12948  0.16558  1.0000
  H   H801      1.0  0.38771  0.08911  0.29775  1.0000
  H   H802      1.0  0.55766  0.16487  0.97979  1.0000
  H   H803      1.0  0.38957  0.03079  0.27964  1.0000
  H   H804      1.0  0.33046  0.02795  0.20371  1.0000
  C   C785      1.0  0.65138  0.08928  0.97729  1.0000
  H   H805      1.0  0.37725  0.12668  0.14726  1.0000
  H   H806      1.0  0.62520  0.13005  0.02486  1.0000
  C   C786      1.0  0.34841  0.14281  0.16201  1.0000
  N   N68       1.0  0.56695  0.09852  0.12580  1.0000
  C   C787      1.0  0.55862  0.08873  0.11440  1.0000
  C   C788      1.0  0.55428  0.11086  0.13889  1.0000
  H   H807      1.0  0.42488  0.99088  0.22380  1.0000
  C   C789      1.0  0.53267  0.11366  0.14081  1.0000
  C   C790      1.0  0.52405  0.10395  0.12909  1.0000
  C   C791      1.0  0.58949  0.09488  0.12492  1.0000
  Fe  Fe137     1.0  0.65527  0.08241  0.04515  1.0000
  H   H808      1.0  0.56086  0.11879  0.14778  1.0000
  H   H809      1.0  0.33853  0.05594  0.13874  1.0000
  H   H810      1.0  0.61886  0.08822  0.98014  1.0000
  S   S271      1.0  0.33581  0.13698  0.22812  1.0000
  C   C792      1.0  0.37055  0.21834  0.45836  1.0000
  Fe  Fe138     1.0  0.33393  0.16577  0.38518  1.0000
  C   C793      1.0  0.33782  0.16182  0.16735  1.0000
  H   H811      1.0  0.57314  0.19447  0.07772  1.0000
  H   H812      1.0  0.40748  0.05924  0.28105  1.0000
  C   C794      1.0  0.38835  0.23174  0.00472  1.0000
  H   H813      1.0  0.58375  0.12277  0.98728  1.0000
  H   H814      1.0  0.52261  0.12338  0.15124  1.0000
  C   C795      1.0  0.44393  0.18265  0.19587  1.0000
  H   H815      1.0  0.37304  0.06304  0.17182  1.0000
  H   H816      1.0  0.39133  0.99767  0.19176  1.0000
  C   C796      1.0  0.41210  0.00290  0.22828  1.0000
  N   N69       1.0  0.35859  0.22422  0.99486  1.0000
  C   C797      1.0  0.39113  0.05983  0.28769  1.0000
  H   H817      1.0  0.38492  0.20771  0.46021  1.0000
  H   H818      1.0  0.37477  0.19112  0.14770  1.0000
  Fe  Fe139     1.0  0.33105  0.21432  0.06598  1.0000
  C   C798      1.0  0.32676  0.14496  0.34023  1.0000
  S   S272      1.0  0.33249  0.14432  0.11599  1.0000
  H   H819      1.0  0.35976  0.01098  0.24450  1.0000
  H   H820      1.0  0.42528  0.22862  0.12659  1.0000
  C   C799      1.0  0.32658  0.06336  0.31074  1.0000
  C   C800      1.0  0.35615  0.21303  0.44856  1.0000
  C   C801      1.0  0.61488  0.13677  0.01379  1.0000
  H   H821      1.0  0.39441  0.15768  0.13848  1.0000
  C   C802      1.0  0.36733  0.17755  0.15191  1.0000
  C   C803      1.0  0.37849  0.15870  0.14659  1.0000
  C   C804      1.0  0.60335  0.22389  0.08794  1.0000
  C   C805      1.0  0.38339  0.03090  0.18336  1.0000
  H   H822      1.0  0.56868  0.07897  0.10398  1.0000
  H   H823      1.0  0.37108  0.20804  0.02160  1.0000
  N   N70       1.0  0.36893  0.22922  0.39080  1.0000
  C   C806      1.0  0.59814  0.16640  0.99222  1.0000
  H   H824      1.0  0.53050  0.08396  0.10642  1.0000
  H   H825      1.0  0.34279  0.20784  0.35557  1.0000
  H   H826      1.0  0.33656  0.20746  0.01557  1.0000
  H   H827      1.0  0.38815  0.22504  0.41342  1.0000
  H   H828      1.0  0.35046  0.09029  0.31224  1.0000
  H   H829      1.0  0.61944  0.16810  0.01171  1.0000
  C   C807      1.0  0.36195  0.02312  0.15556  1.0000
  H   H830      1.0  0.57928  0.21361  0.12314  1.0000
  C   C808      1.0  0.43723  0.21881  0.18289  1.0000
  C   C809      1.0  0.53707  0.09146  0.11571  1.0000
  N   N71       1.0  0.58844  0.15374  0.98537  1.0000
  C   C810      1.0  0.33783  0.22692  0.44531  1.0000
  H   H831      1.0  0.60725  0.10743  0.01258  1.0000
  H   H832      1.0  0.32722  0.14173  0.07461  1.0000
  C   C811      1.0  0.59145  0.13283  0.99266  1.0000
  C   C812      1.0  0.35175  0.06040  0.14340  1.0000
  H   H833      1.0  0.34521  0.07393  0.15134  1.0000
  H   H834      1.0  0.59547  0.18302  0.98673  1.0000
  H   H835      1.0  0.40328  0.21504  0.21247  1.0000
  H   H836      1.0  0.34820  0.19730  0.99211  1.0000
  H   H837      1.0  0.65310  0.07838  0.99139  1.0000
  N   N72       1.0  0.34888  0.06216  0.30293  1.0000
  S   S273      1.0  0.32588  0.12211  0.28906  1.0000
  C   C813      1.0  0.33583  0.19867  0.16786  1.0000
  H   H838      1.0  0.32605  0.20655  0.15605  1.0000
  C   C814      1.0  0.32575  0.12489  0.10571  1.0000
  C   C815      1.0  0.39294  0.23152  0.12494  1.0000
  H   H839      1.0  0.32591  0.19635  0.18333  1.0000
  C   C816      1.0  0.32426  0.06125  0.20168  1.0000
  H   H840      1.0  0.32406  0.05278  0.32581  1.0000
  C   C817      1.0  0.32365  0.12777  0.08502  1.0000
  H   H841      1.0  0.61254  0.23338  0.03549  1.0000
  S   S274      1.0  0.32328  0.02625  0.11513  1.0000
  H   H842      1.0  0.42653  0.23345  0.18134  1.0000
  S   S275      1.0  0.61947  0.08472  0.61769  1.0000
  H   H843      1.0  0.57556  0.02184  0.83508  1.0000
  H   H844      1.0  0.54828  0.09784  0.65892  1.0000
  Fe  Fe140     1.0  0.43138  0.11228  0.65565  1.0000
  S   S276      1.0  0.42542  0.09558  0.63215  1.0000
  S   S277      1.0  0.44811  0.09513  0.68222  1.0000
  Fe  Fe141     1.0  0.41250  0.15453  0.63365  1.0000
  S   S278      1.0  0.40503  0.14182  0.60836  1.0000
  S   S279      1.0  0.41011  0.18854  0.63341  1.0000
  Fe  Fe142     1.0  0.39408  0.11652  0.63350  1.0000
  S   S280      1.0  0.36196  0.10855  0.63603  1.0000
  Fe  Fe143     1.0  0.43657  0.12212  0.60898  1.0000
  S   S281      1.0  0.46058  0.11960  0.58052  1.0000
  S   S282      1.0  0.39904  0.13108  0.65913  1.0000
  S   S283      1.0  0.44496  0.13686  0.63219  1.0000
  Fe  Fe144     1.0  0.54207  0.10955  0.78792  1.0000
  S   S284      1.0  0.51637  0.09725  0.77955  1.0000
  S   S285      1.0  0.53713  0.12173  0.81814  1.0000
  Fe  Fe145     1.0  0.57231  0.09870  0.74976  1.0000
  S   S286      1.0  0.54963  0.08561  0.73835  1.0000
  S   S287      1.0  0.60558  0.09827  0.73433  1.0000
  Fe  Fe146     1.0  0.52648  0.11306  0.74701  1.0000
  S   S288      1.0  0.50675  0.13192  0.72337  1.0000
  Fe  Fe147     1.0  0.54156  0.07071  0.77134  1.0000
  S   S289      1.0  0.53988  0.03685  0.77570  1.0000
  S   S290      1.0  0.55003  0.12774  0.75603  1.0000
  S   S291      1.0  0.56623  0.08158  0.78214  1.0000
  Fe  Fe148     1.0  0.60640  0.14625  0.92227  1.0000
  S   S292      1.0  0.61922  0.17067  0.93109  1.0000
  S   S293      1.0  0.60509  0.11692  0.94523  1.0000
  Fe  Fe149     1.0  0.60169  0.17004  0.87940  1.0000
  S   S294      1.0  0.61433  0.19706  0.88460  1.0000
  S   S295      1.0  0.59805  0.16684  0.84726  1.0000
  Fe  Fe150     1.0  0.63798  0.17276  0.89933  1.0000
  Fe  Fe151     1.0  0.59455  0.19293  0.91628  1.0000
  S   S296      1.0  0.62724  0.14638  0.89169  1.0000
  S   S297      1.0  0.57966  0.16806  0.90990  1.0000
  Fe  Fe152     1.0  0.51465  0.20490  0.54817  1.0000
  S   S298      1.0  0.52337  0.18361  0.57654  1.0000
  S   S299      1.0  0.48193  0.20884  0.54347  1.0000
  Fe  Fe153     1.0  0.55793  0.21400  0.53202  1.0000
  S   S300      1.0  0.57075  0.19305  0.55891  1.0000
  Fe  Fe154     1.0  0.55143  0.17083  0.55541  1.0000
  S   S301      1.0  0.56078  0.13639  0.55568  1.0000
  Fe  Fe155     1.0  0.54160  0.20775  0.57767  1.0000
  S   S302      1.0  0.54179  0.21437  0.60887  1.0000
  S   S303      1.0  0.54123  0.19038  0.52670  1.0000
  C   C818      1.0  0.37209  0.20248  0.54464  1.0000
  C   C819      1.0  0.51280  0.06140  0.64141  1.0000
  Fe  Fe156     1.0  0.59580  0.01567  0.64705  1.0000
  S   S304      1.0  0.56238  0.01183  0.65504  1.0000
  H   H845      1.0  0.64727  0.07565  0.72782  1.0000
  S   S305      1.0  0.60258  0.04160  0.65929  1.0000
  H   H846      1.0  0.64815  0.21948  0.89362  1.0000
  Fe  Fe157     1.0  0.63136  0.01979  0.66632  1.0000
  C   C820      1.0  0.44277  0.16620  0.71005  1.0000
  C   C821      1.0  0.56282  0.12120  0.69245  1.0000
  C   C822      1.0  0.63072  0.09495  0.89454  1.0000
  C   C823      1.0  0.56358  0.01879  0.72399  1.0000
  H   H847      1.0  0.53134  0.18775  0.83599  1.0000
  H   H848      1.0  0.51267  0.04872  0.65450  1.0000
  H   H849      1.0  0.46412  0.14987  0.73965  1.0000
  C   C824      1.0  0.65064  0.22050  0.90918  1.0000
  C   C825      1.0  0.57536  0.12196  0.57445  1.0000
  C   C826      1.0  0.58075  0.10037  0.57581  1.0000
  C   C827      1.0  0.59365  0.08862  0.58965  1.0000
  C   C828      1.0  0.60154  0.09854  0.60184  1.0000
  C   C829      1.0  0.59585  0.12010  0.60074  1.0000
  C   C830      1.0  0.58258  0.13178  0.58723  1.0000
  H   H850      1.0  0.57531  0.09273  0.56582  1.0000
  H   H851      1.0  0.60191  0.12784  0.61018  1.0000
  H   H852      1.0  0.57845  0.14843  0.58630  1.0000
  C   C831      1.0  0.61622  0.07593  0.72341  1.0000
  C   C832      1.0  0.60369  0.06605  0.71587  1.0000
  C   C833      1.0  0.61235  0.04840  0.70692  1.0000
  C   C834      1.0  0.63348  0.04024  0.70593  1.0000
  H   H853      1.0  0.58290  0.19800  0.81253  1.0000
  C   C835      1.0  0.63747  0.06796  0.72214  1.0000
  H   H854      1.0  0.58746  0.07227  0.71630  1.0000
  H   H855      1.0  0.60255  0.04089  0.70113  1.0000
  C   C836      1.0  0.35568  0.12607  0.56664  1.0000
  C   C837      1.0  0.56663  0.00620  0.70914  1.0000
  C   C838      1.0  0.55576  0.13166  0.82688  1.0000
  C   C839      1.0  0.55144  0.13609  0.84705  1.0000
  C   C840      1.0  0.56476  0.14593  0.85392  1.0000
  C   C841      1.0  0.58242  0.15174  0.84054  1.0000
  C   C842      1.0  0.58696  0.14696  0.82051  1.0000
  C   C843      1.0  0.57383  0.13681  0.81375  1.0000
  H   H856      1.0  0.53748  0.13220  0.85731  1.0000
  H   H857      1.0  0.56098  0.14962  0.86932  1.0000
  H   H858      1.0  0.60057  0.15141  0.81002  1.0000
  H   H859      1.0  0.57734  0.13355  0.79819  1.0000
  C   C844      1.0  0.46608  0.14450  0.56968  1.0000
  C   C845      1.0  0.48317  0.14699  0.55389  1.0000
  C   C846      1.0  0.48803  0.16681  0.54580  1.0000
  C   C847      1.0  0.47540  0.18423  0.55300  1.0000
  C   C848      1.0  0.45813  0.18182  0.56853  1.0000
  C   C849      1.0  0.45367  0.16194  0.57706  1.0000
  H   H860      1.0  0.49287  0.13357  0.54816  1.0000
  H   H861      1.0  0.50153  0.16861  0.53392  1.0000
  H   H862      1.0  0.44850  0.19522  0.57437  1.0000
  H   H863      1.0  0.44065  0.16021  0.58942  1.0000
  C   C850      1.0  0.46619  0.10479  0.69199  1.0000
  C   C851      1.0  0.47462  0.09286  0.70911  1.0000
  C   C852      1.0  0.48779  0.10059  0.71834  1.0000
  C   C853      1.0  0.49248  0.12048  0.71068  1.0000
  C   C854      1.0  0.48455  0.13218  0.69321  1.0000
  C   C855      1.0  0.47156  0.12435  0.68382  1.0000
  H   H864      1.0  0.47064  0.07767  0.71550  1.0000
  H   H865      1.0  0.49380  0.09137  0.73177  1.0000
  H   H866      1.0  0.48816  0.14755  0.68708  1.0000
  H   H867      1.0  0.46528  0.13369  0.67062  1.0000
  C   C856      1.0  0.58457  0.99721  0.81715  1.0000
  H   H868      1.0  0.56152  0.21980  0.81239  1.0000
  C   C857      1.0  0.32500  0.08556  0.60878  1.0000
  C   C858      1.0  0.35372  0.09552  0.61966  1.0000
  C   C859      1.0  0.36759  0.08641  0.60405  1.0000
  C   C860      1.0  0.36017  0.07695  0.59087  1.0000
  C   C861      1.0  0.40712  0.18915  0.55066  1.0000
  H   H869      1.0  0.60304  0.16015  0.49345  1.0000
  H   H870      1.0  0.38401  0.08671  0.60211  1.0000
  H   H871      1.0  0.37101  0.06999  0.57881  1.0000
  C   C862      1.0  0.62426  0.02731  0.81269  1.0000
  H   H872      1.0  0.38010  0.18927  0.57464  1.0000
  H   H873      1.0  0.56302  0.19922  0.83459  1.0000
  C   C863      1.0  0.57344  0.01635  0.82178  1.0000
  C   C864      1.0  0.55981  0.02867  0.80898  1.0000
  C   C865      1.0  0.55654  0.02142  0.79211  1.0000
  C   C866      1.0  0.56696  0.00182  0.78806  1.0000
  H   H874      1.0  0.56410  0.99594  0.77533  1.0000
  H   H875      1.0  0.55145  0.04359  0.81243  1.0000
  C   C867      1.0  0.36971  0.23023  0.58872  1.0000
  H   H876      1.0  0.61438  0.20650  0.95043  1.0000
  H   H877      1.0  0.53011  0.22890  0.64683  1.0000
  H   H878      1.0  0.55532  0.17423  0.76464  1.0000
  C   C868      1.0  0.49517  0.09178  0.62147  1.0000
  H   H879      1.0  0.60399  0.12981  0.53201  1.0000
  S   S306      1.0  0.65048  0.02992  0.63579  1.0000
  N   N73       1.0  0.44080  0.14778  0.72313  1.0000
  H   H880      1.0  0.36409  0.11232  0.53928  1.0000
  C   C869      1.0  0.63196  0.09488  0.97094  1.0000
  C   C870      1.0  0.39479  0.20408  0.61577  1.0000
  N   N74       1.0  0.59256  0.10250  0.67298  1.0000
  Fe  Fe158     1.0  0.62090  0.05011  0.62788  1.0000
  H   H881      1.0  0.54116  0.22727  0.48127  1.0000
  C   C871      1.0  0.57380  0.16270  0.97107  1.0000
  H   H882      1.0  0.42794  0.12002  0.72955  1.0000
  H   H883      1.0  0.59813  0.07202  0.59031  1.0000
  C   C872      1.0  0.62948  0.10932  0.95293  1.0000
  C   C873      1.0  0.64661  0.11759  0.94096  1.0000
  C   C874      1.0  0.43333  0.17183  0.69251  1.0000
  H   H884      1.0  0.61387  0.09798  0.89789  1.0000
  C   C875      1.0  0.53093  0.07948  0.61017  1.0000
  C   C876      1.0  0.51316  0.11022  0.58956  1.0000
  C   C877      1.0  0.47337  0.22500  0.59142  1.0000
  H   H885      1.0  0.57680  0.02716  0.74681  1.0000
  C   C878      1.0  0.57927  0.01728  0.73535  1.0000
  H   H886      1.0  0.44361  0.20355  0.52611  1.0000
  C   C879      1.0  0.40253  0.22018  0.60122  1.0000
  C   C880      1.0  0.37975  0.20726  0.52358  1.0000
  C   C881      1.0  0.56589  0.20282  0.81742  1.0000
  C   C882      1.0  0.56077  0.18810  0.78886  1.0000
  H   H887      1.0  0.55461  0.00714  0.70020  1.0000
  S   S307      1.0  0.61173  0.02588  0.61472  1.0000
  C   C883      1.0  0.64601  0.04987  0.71379  1.0000
  N   N75       1.0  0.64488  0.01861  0.81003  1.0000
  C   C884      1.0  0.52495  0.17485  0.81187  1.0000
  C   C885      1.0  0.53174  0.17091  0.79178  1.0000
  N   N76       1.0  0.59746  0.00357  0.73207  1.0000
  H   H888      1.0  0.52345  0.16200  0.78557  1.0000
  S   S308      1.0  0.57646  0.21949  0.93249  1.0000
  H   H889      1.0  0.63994  0.15132  0.56630  1.0000
  H   H890      1.0  0.62156  0.05410  0.76422  1.0000
  H   H891      1.0  0.57502  0.15236  0.95976  1.0000
  C   C886      1.0  0.61319  0.00135  0.74499  1.0000
  C   C887      1.0  0.61561  0.04016  0.79626  1.0000
  H   H892      1.0  0.53307  0.11979  0.68580  1.0000
  N   N77       1.0  0.51320  0.09365  0.60770  1.0000
  H   H893      1.0  0.34062  0.03153  0.60974  1.0000
  C   C888      1.0  0.33935  0.13359  0.58133  1.0000
  H   H894      1.0  0.62909  0.99735  0.73614  1.0000
  C   C889      1.0  0.32705  0.11117  0.53135  1.0000
  H   H895      1.0  0.45620  0.12526  0.74499  1.0000
  H   H896      1.0  0.43893  0.14692  0.75515  1.0000
  H   H897      1.0  0.43515  0.18625  0.68189  1.0000
  C   C890      1.0  0.41954  0.13998  0.70210  1.0000
  C   C891      1.0  0.42164  0.15861  0.68855  1.0000
  H   H898      1.0  0.41094  0.12927  0.69899  1.0000
  H   H899      1.0  0.41442  0.16277  0.67489  1.0000
  H   H900      1.0  0.59924  0.04691  0.79842  1.0000
  C   C892      1.0  0.55802  0.98607  0.66011  1.0000
  N   N78       1.0  0.64117  0.10122  0.87515  1.0000
  C   C893      1.0  0.58523  0.99227  0.70587  1.0000
  H   H901      1.0  0.45200  0.17647  0.71293  1.0000
  C   C894      1.0  0.62700  0.17407  0.54236  1.0000
  H   H902      1.0  0.50962  0.22664  0.50858  1.0000
  S   S309      1.0  0.64420  0.01801  0.69495  1.0000
  S   S310      1.0  0.62307  0.99273  0.65713  1.0000
  H   H903      1.0  0.51146  0.16892  0.82129  1.0000
  H   H904      1.0  0.48095  0.10261  0.61912  1.0000
  H   H905      1.0  0.35561  0.20652  0.55049  1.0000
  H   H906      1.0  0.32795  0.09407  0.53566  1.0000
  N   N79       1.0  0.60654  0.16186  0.52358  1.0000
  H   H907      1.0  0.61430  0.02413  0.82752  1.0000
  H   H908      1.0  0.55625  0.13075  0.70423  1.0000
  C   C895      1.0  0.62280  0.13818  0.55008  1.0000
  C   C896      1.0  0.55829  0.10265  0.66710  1.0000
  Fe  Fe159     1.0  0.63981  0.00462  0.62565  1.0000
  C   C897      1.0  0.45039  0.14226  0.74169  1.0000
  H   H909      1.0  0.33871  0.08826  0.49155  1.0000
  C   C898      1.0  0.54976  0.11499  0.68215  1.0000
  H   H910      1.0  0.54503  0.05178  0.62892  1.0000
  C   C899      1.0  0.54973  0.17760  0.78013  1.0000
  H   H911      1.0  0.58736  0.18252  0.50346  1.0000
  C   C900      1.0  0.53101  0.06316  0.62705  1.0000
  H   H912      1.0  0.54511  0.08065  0.59898  1.0000
  N   N80       1.0  0.55418  0.19160  0.80870  1.0000
  H   H913      1.0  0.54910  0.02953  0.72692  1.0000
  C   C901      1.0  0.42924  0.13480  0.71943  1.0000
  C   C902      1.0  0.61512  0.09621  0.66769  1.0000
  H   H914      1.0  0.59437  0.11979  0.69563  1.0000
  H   H915      1.0  0.62325  0.09781  0.67994  1.0000
  H   H916      1.0  0.61914  0.07964  0.66583  1.0000
  H   H917      1.0  0.62115  0.10577  0.65290  1.0000
  H   H918      1.0  0.48041  0.07454  0.64968  1.0000
  C   C903      1.0  0.37458  0.20096  0.61664  1.0000
  C   C904      1.0  0.57985  0.09661  0.66261  1.0000
  H   H919      1.0  0.50797  0.10515  0.57706  1.0000
  C   C905      1.0  0.40117  0.20290  0.51648  1.0000
  H   H920      1.0  0.58636  0.08719  0.65076  1.0000
  C   C906      1.0  0.58433  0.11488  0.68756  1.0000
  H   H921      1.0  0.50238  0.12456  0.59329  1.0000
  C   C907      1.0  0.62816  0.04409  0.77701  1.0000
  C   C908      1.0  0.53641  0.18530  0.82015  1.0000
  H   H922      1.0  0.52881  0.11446  0.58370  1.0000
  H   H923      1.0  0.34264  0.99391  0.59086  1.0000
  C   C909      1.0  0.48292  0.22922  0.60623  1.0000
  C   C910      1.0  0.36193  0.21428  0.60341  1.0000
  H   H924      1.0  0.57489  0.19304  0.77982  1.0000
  C   C911      1.0  0.38582  0.19305  0.55824  1.0000
  H   H925      1.0  0.44474  0.17577  0.53046  1.0000
  H   H926      1.0  0.44097  0.19098  0.50580  1.0000
  S   S311      1.0  0.57973  0.22820  0.50500  1.0000
  C   C912      1.0  0.33883  0.07675  0.59299  1.0000
  N   N81       1.0  0.41455  0.19404  0.53002  1.0000
  C   C913      1.0  0.49473  0.07581  0.63867  1.0000
  C   C914      1.0  0.64160  0.08518  0.91059  1.0000
  H   H927      1.0  0.61310  0.11757  0.86440  1.0000
  H   H928      1.0  0.61178  0.19312  0.51805  1.0000
  H   H929      1.0  0.58015  0.15752  0.51309  1.0000
  H   H930      1.0  0.63308  0.18673  0.54537  1.0000
  H   H931      1.0  0.63324  0.08066  0.92603  1.0000
  C   C915      1.0  0.43705  0.19093  0.52269  1.0000
  H   H932      1.0  0.36851  0.18863  0.62795  1.0000
  H   H933      1.0  0.49378  0.21714  0.61388  1.0000
  C   C916      1.0  0.61063  0.14228  0.53466  1.0000
  H   H934      1.0  0.40701  0.20736  0.50016  1.0000
  H   H935      1.0  0.64502  0.12860  0.92696  1.0000
  H   H936      1.0  0.64633  0.20653  0.92012  1.0000
  H   H937      1.0  0.36930  0.21497  0.51284  1.0000
  C   C917      1.0  0.58546  0.22800  0.95175  1.0000
  C   C918      1.0  0.58138  0.98996  0.80024  1.0000
  C   C919      1.0  0.63085  0.15424  0.55407  1.0000
  H   H938      1.0  0.41817  0.22261  0.60053  1.0000
  H   H939      1.0  0.47655  0.20953  0.58764  1.0000
  H   H940      1.0  0.52481  0.99542  0.66657  1.0000
  C   C920      1.0  0.33135  0.00814  0.58661  1.0000
  C   C921      1.0  0.60487  0.21927  0.95730  1.0000
  C   C922      1.0  0.59369  0.16571  0.50755  1.0000
  H   H941      1.0  0.41766  0.18245  0.56148  1.0000
  C   C923      1.0  0.61489  0.17759  0.52694  1.0000
  H   H942      1.0  0.62549  0.12273  0.55924  1.0000
  C   C924      1.0  0.39012  0.23305  0.58746  1.0000
  H   H943      1.0  0.57698  0.17799  0.96203  1.0000
  C   C925      1.0  0.35131  0.11878  0.55026  1.0000
  H   H944      1.0  0.34615  0.21207  0.60443  1.0000
  H   H945      1.0  0.37162  0.12514  0.56843  1.0000
  C   C926      1.0  0.62971  0.11186  0.85844  1.0000
  H   H946      1.0  0.61254  0.01599  0.75054  1.0000
  C   C927      1.0  0.32319  0.09319  0.48799  1.0000
  C   C928      1.0  0.60055  0.99111  0.71760  1.0000
  H   H947      1.0  0.33997  0.02050  0.57735  1.0000
  S   S312      1.0  0.53012  0.23046  0.55115  1.0000
  S   S313      1.0  0.33021  0.06534  0.57557  1.0000
  H   H948      1.0  0.63635  0.12580  0.84988  1.0000
  H   H949      1.0  0.63051  0.10124  0.84756  1.0000
  C   C929      1.0  0.32564  0.02672  0.61560  1.0000
  C   C930      1.0  0.61241  0.22766  0.97118  1.0000
  H   H950      1.0  0.61081  0.98868  0.75840  1.0000
  C   C931      1.0  0.33245  0.09480  0.62210  1.0000
  C   C932      1.0  0.64914  0.03505  0.77436  1.0000
  C   C933      1.0  0.65379  0.00501  0.82728  1.0000
  H   H951      1.0  0.64219  0.00355  0.84177  1.0000
  H   H952      1.0  0.34257  0.13851  0.59456  1.0000
  H   H953      1.0  0.33847  0.11463  0.51701  1.0000
  N   N82       1.0  0.33121  0.11936  0.54836  1.0000
  H   H954      1.0  0.62772  0.22120  0.97486  1.0000
  S   S314      1.0  0.58597  0.27256  0.09280  1.0000
  H   H955      1.0  0.38203  0.33316  0.10298  1.0000
  Fe  Fe160     1.0  0.59386  0.32324  0.02633  1.0000
  S   S315      1.0  0.57838  0.31354  0.00388  1.0000
  S   S316      1.0  0.60489  0.35439  0.01862  1.0000
  Fe  Fe161     1.0  0.58470  0.28595  0.05937  1.0000
  S   S317      1.0  0.56898  0.27323  0.03970  1.0000
  H   H956      1.0  0.55002  0.41724  0.41120  1.0000
  Fe  Fe162     1.0  0.59491  0.28113  0.01406  1.0000
  Fe  Fe163     1.0  0.55379  0.30621  0.03149  1.0000
  S   S318      1.0  0.51923  0.31274  0.03197  1.0000
  S   S319      1.0  0.61228  0.29132  0.03457  1.0000
  S   S320      1.0  0.56788  0.31855  0.05277  1.0000
  H   H957      1.0  0.60423  0.40451  0.24360  1.0000
  H   H958      1.0  0.53633  0.45231  0.17465  1.0000
  H   H959      1.0  0.52280  0.36457  0.08803  1.0000
  S   S321      1.0  0.60244  0.44541  0.10314  1.0000
  Fe  Fe164     1.0  0.59052  0.36604  0.40326  1.0000
  S   S322      1.0  0.59475  0.33134  0.41269  1.0000
  S   S323      1.0  0.58537  0.38520  0.37205  1.0000
  Fe  Fe165     1.0  0.59870  0.37254  0.44442  1.0000
  H   H960      1.0  0.34481  0.26570  0.46812  1.0000
  H   H961      1.0  0.64124  0.43361  0.18959  1.0000
  Fe  Fe166     1.0  0.57617  0.33771  0.44335  1.0000
  H   H962      1.0  0.62242  0.24316  0.06529  1.0000
  S   S324      1.0  0.61925  0.36931  0.41396  1.0000
  S   S325      1.0  0.56956  0.37227  0.43298  1.0000
  Fe  Fe167     1.0  0.53341  0.42179  0.25697  1.0000
  S   S326      1.0  0.55967  0.39506  0.26059  1.0000
  S   S327      1.0  0.54148  0.45306  0.25675  1.0000
  Fe  Fe168     1.0  0.50452  0.39410  0.24999  1.0000
  S   S328      1.0  0.52867  0.36551  0.25405  1.0000
  S   S329      1.0  0.47396  0.39452  0.23971  1.0000
  Fe  Fe169     1.0  0.53500  0.37804  0.28036  1.0000
  S   S330      1.0  0.53895  0.35780  0.31131  1.0000
  Fe  Fe170     1.0  0.55064  0.38571  0.23407  1.0000
  S   S331      1.0  0.57200  0.37701  0.20554  1.0000
  S   S332      1.0  0.50883  0.40532  0.27811  1.0000
  S   S333      1.0  0.52629  0.41376  0.22872  1.0000
  Fe  Fe171     1.0  0.44481  0.33441  0.13256  1.0000
  S   S334      1.0  0.45371  0.30618  0.15536  1.0000
  S   S335      1.0  0.47119  0.34815  0.11150  1.0000
  Fe  Fe172     1.0  0.39905  0.33774  0.15164  1.0000
  S   S336      1.0  0.40486  0.31014  0.17686  1.0000
  S   S337      1.0  0.36808  0.35765  0.14601  1.0000
  Fe  Fe173     1.0  0.43265  0.32363  0.17912  1.0000
  S   S338      1.0  0.44848  0.32219  0.20660  1.0000
  Fe  Fe174     1.0  0.42556  0.29558  0.15079  1.0000
  S   S339      1.0  0.42865  0.26279  0.14489  1.0000
  S   S340      1.0  0.42487  0.35242  0.15626  1.0000
  S   S341      1.0  0.41859  0.32248  0.12558  1.0000
  H   H963      1.0  0.47120  0.26653  0.12464  1.0000
  H   H964      1.0  0.33027  0.37656  0.13093  1.0000
  H   H965      1.0  0.35937  0.36405  0.08711  1.0000
  C   C934      1.0  0.34686  0.34694  0.14356  1.0000
  C   C935      1.0  0.34649  0.32567  0.14928  1.0000
  H   H966      1.0  0.56425  0.36909  0.00822  1.0000
  S   S342      1.0  0.59788  0.39523  0.46523  1.0000
  H   H967      1.0  0.32939  0.30119  0.15111  1.0000
  H   H968      1.0  0.35916  0.31544  0.15589  1.0000
  C   C936      1.0  0.36807  0.33139  0.09823  1.0000
  C   C937      1.0  0.40707  0.25538  0.13895  1.0000
  C   C938      1.0  0.38704  0.26656  0.14363  1.0000
  C   C939      1.0  0.36999  0.25996  0.13944  1.0000
  C   C940      1.0  0.53203  0.25948  0.46851  1.0000
  C   C941      1.0  0.33185  0.25952  0.02407  1.0000
  H   H969      1.0  0.38463  0.28004  0.15091  1.0000
  H   H970      1.0  0.35449  0.26837  0.14366  1.0000
  C   C942      1.0  0.46807  0.37455  0.22925  1.0000
  C   C943      1.0  0.47973  0.35445  0.23124  1.0000
  C   C944      1.0  0.47363  0.33870  0.22406  1.0000
  C   C945      1.0  0.45628  0.34294  0.21412  1.0000
  C   C946      1.0  0.44510  0.36321  0.21141  1.0000
  C   C947      1.0  0.45080  0.37882  0.21921  1.0000
  H   H971      1.0  0.49312  0.35089  0.23881  1.0000
  H   H972      1.0  0.48236  0.32307  0.22628  1.0000
  H   H973      1.0  0.43160  0.36668  0.20399  1.0000
  H   H974      1.0  0.44162  0.39427  0.21759  1.0000
  H   H975      1.0  0.40227  0.25669  0.98478  1.0000
  H   H976      1.0  0.51991  0.29186  0.46042  1.0000
  H   H977      1.0  0.55049  0.35980  0.08089  1.0000
  C   C948      1.0  0.57226  0.37735  0.35549  1.0000
  C   C949      1.0  0.56455  0.35872  0.36081  1.0000
  C   C950      1.0  0.55435  0.35293  0.34715  1.0000
  C   C951      1.0  0.55174  0.36572  0.32811  1.0000
  C   C952      1.0  0.55919  0.38450  0.32292  1.0000
  C   C953      1.0  0.56947  0.39024  0.33652  1.0000
  H   H978      1.0  0.56662  0.34866  0.37535  1.0000
  H   H979      1.0  0.54866  0.33837  0.35129  1.0000
  H   H980      1.0  0.55720  0.39454  0.30835  1.0000
  H   H981      1.0  0.57542  0.40467  0.33223  1.0000
  H   H982      1.0  0.63035  0.38708  0.36418  1.0000
  C   C954      1.0  0.57885  0.28433  0.46767  1.0000
  C   C955      1.0  0.47512  0.24716  0.08087  1.0000
  C   C956      1.0  0.60083  0.43247  0.16817  1.0000
  C   C957      1.0  0.60370  0.41439  0.15986  1.0000
  C   C958      1.0  0.59472  0.39736  0.17129  1.0000
  C   C959      1.0  0.58268  0.39849  0.19090  1.0000
  C   C960      1.0  0.57941  0.41679  0.19891  1.0000
  C   C961      1.0  0.58849  0.43368  0.18758  1.0000
  H   H983      1.0  0.61322  0.41333  0.14484  1.0000
  H   H984      1.0  0.59726  0.38324  0.16499  1.0000
  H   H985      1.0  0.57029  0.41780  0.21406  1.0000
  H   H986      1.0  0.58619  0.44761  0.19403  1.0000
  C   C962      1.0  0.61152  0.36576  0.03740  1.0000
  C   C963      1.0  0.61382  0.38675  0.03272  1.0000
  C   C964      1.0  0.61950  0.39615  0.04713  1.0000
  C   C965      1.0  0.62325  0.38450  0.06625  1.0000
  C   C966      1.0  0.61478  0.35429  0.05671  1.0000
  H   H987      1.0  0.61131  0.39576  0.01783  1.0000
  H   H988      1.0  0.62135  0.41226  0.04328  1.0000
  C   C967      1.0  0.50493  0.31963  0.05537  1.0000
  C   C968      1.0  0.51470  0.31749  0.07231  1.0000
  C   C969      1.0  0.50397  0.32547  0.08997  1.0000
  C   C970      1.0  0.48309  0.33483  0.09114  1.0000
  C   C971      1.0  0.47282  0.33574  0.07479  1.0000
  C   C972      1.0  0.48377  0.32819  0.05686  1.0000
  H   H989      1.0  0.53051  0.30961  0.07194  1.0000
  H   H990      1.0  0.51191  0.32451  0.10268  1.0000
  H   H991      1.0  0.45670  0.34313  0.07560  1.0000
  H   H992      1.0  0.47602  0.32964  0.04392  1.0000
  H   H993      1.0  0.62380  0.35438  0.08564  1.0000
  H   H994      1.0  0.48680  0.24810  0.04108  1.0000
  C   C973      1.0  0.53215  0.44998  0.29911  1.0000
  C   C974      1.0  0.54436  0.45785  0.28075  1.0000
  C   C975      1.0  0.36667  0.23737  0.46551  1.0000
  S   S343      1.0  0.62543  0.47474  0.38329  1.0000
  H   H995      1.0  0.63077  0.48320  0.20375  1.0000
  H   H996      1.0  0.52164  0.43981  0.29886  1.0000
  H   H997      1.0  0.65311  0.43799  0.39660  1.0000
  C   C976      1.0  0.53625  0.24357  0.10526  1.0000
  C   C977      1.0  0.34939  0.23844  0.38729  1.0000
  C   C978      1.0  0.46773  0.25073  0.10109  1.0000
  C   C979      1.0  0.36051  0.23927  0.97765  1.0000
  C   C980      1.0  0.35528  0.34878  0.08935  1.0000
  Fe  Fe175     1.0  0.62337  0.45339  0.12103  1.0000
  N   N83       1.0  0.34393  0.30986  0.09702  1.0000
  C   C981      1.0  0.55787  0.47110  0.28129  1.0000
  N   N84       1.0  0.55739  0.47352  0.16236  1.0000
  H   H998      1.0  0.35173  0.28065  0.00592  1.0000
  H   H999      1.0  0.61310  0.33813  0.06052  1.0000
  C   C982      1.0  0.49258  0.27336  0.09639  1.0000
  C   C983      1.0  0.62086  0.36356  0.07093  1.0000
  C   C984      1.0  0.33802  0.27412  0.00678  1.0000
  C   C985      1.0  0.47653  0.26393  0.10885  1.0000
  S   S344      1.0  0.63251  0.39478  0.08416  1.0000
  H   H1000     1.0  0.49988  0.28315  0.10255  1.0000
  Fe  Fe176     1.0  0.62179  0.33506  0.42571  1.0000
  H   H1001     1.0  0.65500  0.35512  0.35649  1.0000
  C   C986      1.0  0.36212  0.31192  0.10200  1.0000
  C   C987      1.0  0.60620  0.45565  0.22592  1.0000
  H   H1002     1.0  0.57200  0.47765  0.13054  1.0000
  H   H1003     1.0  0.32388  0.23772  0.37255  1.0000
  S   S345      1.0  0.60355  0.33855  0.45712  1.0000
  H   H1004     1.0  0.51261  0.27630  0.06685  1.0000
  C   C988      1.0  0.34803  0.25095  0.46288  1.0000
  C   C989      1.0  0.65194  0.47556  0.42323  1.0000
  C   C990      1.0  0.55877  0.47695  0.29996  1.0000
  C   C991      1.0  0.64014  0.39517  0.45907  1.0000
  C   C992      1.0  0.63012  0.43491  0.20375  1.0000
  C   C993      1.0  0.56427  0.26123  0.10574  1.0000
  C   C994      1.0  0.55293  0.25340  0.09484  1.0000
  H   H1005     1.0  0.63989  0.46588  0.42476  1.0000
  S   S346      1.0  0.61222  0.25658  0.99465  1.0000
  C   C995      1.0  0.37289  0.24263  0.12982  1.0000
  C   C996      1.0  0.54592  0.46972  0.31818  1.0000
  H   H1006     1.0  0.53095  0.36478  0.00007  1.0000
  C   C997      1.0  0.40992  0.23765  0.12989  1.0000
  C   C998      1.0  0.56096  0.46853  0.14158  1.0000
  H   H1007     1.0  0.57953  0.42100  0.42628  1.0000
  H   H1008     1.0  0.64258  0.42112  0.35487  1.0000
  H   H1009     1.0  0.57178  0.26642  0.98115  1.0000
  C   C999      1.0  0.39017  0.24741  0.98746  1.0000
  H   H1010     1.0  0.54596  0.26008  0.45686  1.0000
  H   H1011     1.0  0.53644  0.38624  0.07808  1.0000
  C   C1000     1.0  0.54170  0.24964  0.13767  1.0000
  S   S347      1.0  0.38633  0.24406  0.47594  1.0000
  H   H1012     1.0  0.34088  0.25128  0.39487  1.0000
  H   H1013     1.0  0.48696  0.30851  0.47493  1.0000
  C   C1001     1.0  0.62437  0.41683  0.21637  1.0000
  C   C1002     1.0  0.65066  0.46442  0.37207  1.0000
  S   S348      1.0  0.65109  0.31144  0.42400  1.0000
  H   H1014     1.0  0.38994  0.24782  0.39352  1.0000
  Fe  Fe177     1.0  0.63149  0.42858  0.08618  1.0000
  S   S349      1.0  0.63728  0.45641  0.06173  1.0000
  H   H1015     1.0  0.56745  0.26515  0.13582  1.0000
  C   C1003     1.0  0.54416  0.46362  0.17781  1.0000
  H   H1016     1.0  0.37181  0.29860  0.10953  1.0000
  C   C1004     1.0  0.53058  0.24160  0.12667  1.0000
  H   H1017     1.0  0.63105  0.40177  0.21207  1.0000
  H   H1018     1.0  0.64114  0.39014  0.44457  1.0000
  C   C1005     1.0  0.37924  0.23773  0.40352  1.0000
  N   N85       1.0  0.48230  0.36891  0.31659  1.0000
  C   C1006     1.0  0.49050  0.35016  0.31051  1.0000
  C   C1007     1.0  0.46742  0.38244  0.30698  1.0000
  C   C1008     1.0  0.48345  0.34436  0.29475  1.0000
  C   C1009     1.0  0.45999  0.37711  0.29121  1.0000
  C   C1010     1.0  0.46797  0.35789  0.28520  1.0000
  C   C1011     1.0  0.49009  0.37514  0.33276  1.0000
  H   H1019     1.0  0.50279  0.33967  0.31762  1.0000
  H   H1020     1.0  0.46148  0.39762  0.31123  1.0000
  H   H1021     1.0  0.49019  0.32963  0.28975  1.0000
  H   H1022     1.0  0.44855  0.38802  0.28322  1.0000
  H   H1023     1.0  0.46243  0.35372  0.27285  1.0000
  H   H1024     1.0  0.50071  0.38643  0.32563  1.0000
  H   H1025     1.0  0.47708  0.38227  0.34373  1.0000
  H   H1026     1.0  0.49910  0.36167  0.34178  1.0000
  H   H1027     1.0  0.34064  0.25512  0.03649  1.0000
  S   S350      1.0  0.61302  0.45351  0.15508  1.0000
  C   C1012     1.0  0.53278  0.45607  0.31770  1.0000
  N   N86       1.0  0.53436  0.36932  0.05550  1.0000
  C   C1013     1.0  0.55146  0.37037  0.04028  1.0000
  C   C1014     1.0  0.51575  0.36799  0.05094  1.0000
  C   C1015     1.0  0.55047  0.36890  0.02009  1.0000
  C   C1016     1.0  0.51421  0.36647  0.03092  1.0000
  C   C1017     1.0  0.53178  0.36663  0.01549  1.0000
  C   C1018     1.0  0.53606  0.37009  0.07668  1.0000
  H   H1028     1.0  0.56617  0.37176  0.04381  1.0000
  H   H1029     1.0  0.50206  0.36749  0.06290  1.0000
  S   S351      1.0  0.65232  0.43471  0.10589  1.0000
  H   H1030     1.0  0.49967  0.36444  0.02756  1.0000
  H   H1031     1.0  0.52274  0.45047  0.33169  1.0000
  C   C1019     1.0  0.60071  0.24489  0.97964  1.0000
  N   N87       1.0  0.62107  0.45400  0.20864  1.0000
  H   H1032     1.0  0.53739  0.24819  0.15427  1.0000
  N   N88       1.0  0.49776  0.35327  0.17413  1.0000
  C   C1020     1.0  0.51677  0.34372  0.17893  1.0000
  C   C1021     1.0  0.48986  0.37319  0.17723  1.0000
  C   C1022     1.0  0.52821  0.35398  0.18749  1.0000
  C   C1023     1.0  0.50081  0.38385  0.18590  1.0000
  C   C1024     1.0  0.52009  0.37413  0.19107  1.0000
  C   C1025     1.0  0.48619  0.34228  0.16497  1.0000
  H   H1033     1.0  0.52311  0.32800  0.17628  1.0000
  H   H1034     1.0  0.47474  0.38075  0.17353  1.0000
  H   H1035     1.0  0.54326  0.34642  0.19144  1.0000
  H   H1036     1.0  0.49413  0.39932  0.18911  1.0000
  H   H1037     1.0  0.52871  0.38212  0.19794  1.0000
  H   H1038     1.0  0.46943  0.34928  0.16657  1.0000
  H   H1039     1.0  0.49259  0.34266  0.14829  1.0000
  H   H1040     1.0  0.48688  0.32587  0.17297  1.0000
  N   N89       1.0  0.56247  0.43061  0.38064  1.0000
  C   C1026     1.0  0.57836  0.43951  0.36813  1.0000
  C   C1027     1.0  0.56265  0.42422  0.40131  1.0000
  C   C1028     1.0  0.59519  0.44181  0.37619  1.0000
  C   C1029     1.0  0.57929  0.42626  0.40991  1.0000
  C   C1030     1.0  0.59564  0.43513  0.39721  1.0000
  C   C1031     1.0  0.54482  0.42845  0.37202  1.0000
  H   H1041     1.0  0.57810  0.44480  0.35180  1.0000
  C   C1032     1.0  0.60000  0.43791  0.23882  1.0000
  H   H1042     1.0  0.60765  0.44897  0.36621  1.0000
  C   C1033     1.0  0.62650  0.47291  0.19492  1.0000
  H   H1043     1.0  0.60853  0.43702  0.40369  1.0000
  H   H1044     1.0  0.53186  0.44156  0.37467  1.0000
  H   H1045     1.0  0.54915  0.42855  0.35513  1.0000
  H   H1046     1.0  0.53969  0.41338  0.37902  1.0000
  N   N90       1.0  0.49074  0.25669  0.06865  1.0000
  C   C1034     1.0  0.49966  0.26943  0.07625  1.0000
  H   H1047     1.0  0.36779  0.24701  0.41413  1.0000
  H   H1048     1.0  0.64872  0.48341  0.43684  1.0000
  H   H1049     1.0  0.58787  0.43932  0.25226  1.0000
  C   C1035     1.0  0.51720  0.27744  0.47064  1.0000
  H   H1050     1.0  0.54614  0.47211  0.13555  1.0000
  C   C1036     1.0  0.33384  0.24583  0.45267  1.0000
  H   H1051     1.0  0.55729  0.25436  0.07845  1.0000
  H   H1052     1.0  0.53067  0.45954  0.21031  1.0000
  H   H1053     1.0  0.46839  0.23660  0.07508  1.0000
  C   C1037     1.0  0.55870  0.25920  0.12724  1.0000
  C   C1038     1.0  0.60920  0.41839  0.23399  1.0000
  H   H1054     1.0  0.50443  0.26596  0.03727  1.0000
  C   C1039     1.0  0.32962  0.31763  0.14653  1.0000
  Fe  Fe178     1.0  0.60983  0.47365  0.08042  1.0000
  S   S352      1.0  0.54486  0.47825  0.34157  1.0000
  C   C1040     1.0  0.33740  0.28954  0.10224  1.0000
  H   H1055     1.0  0.58800  0.29085  0.45344  1.0000
  H   H1056     1.0  0.56778  0.45184  0.14193  1.0000
  S   S353      1.0  0.55105  0.32102  0.46343  1.0000
  C   C1041     1.0  0.62092  0.39840  0.47213  1.0000
  S   S354      1.0  0.35093  0.23497  0.12498  1.0000
  C   C1042     1.0  0.49892  0.25223  0.04777  1.0000
  H   H1057     1.0  0.35090  0.27688  0.09973  1.0000
  H   H1058     1.0  0.59881  0.25439  0.46982  1.0000
  H   H1059     1.0  0.59879  0.47077  0.22962  1.0000
  C   C1043     1.0  0.33675  0.34655  0.08434  1.0000
  C   C1044     1.0  0.33120  0.32688  0.08849  1.0000
  C   C1045     1.0  0.33015  0.36007  0.13527  1.0000
  C   C1046     1.0  0.54092  0.46758  0.19797  1.0000
  H   H1060     1.0  0.32609  0.28851  0.09273  1.0000
  H   H1061     1.0  0.63973  0.46950  0.18231  1.0000
  H   H1062     1.0  0.32983  0.28680  0.11871  1.0000
  C   C1047     1.0  0.65313  0.40705  0.35154  1.0000
  C   C1048     1.0  0.64630  0.38799  0.35677  1.0000
  Fe  Fe179     1.0  0.65548  0.46424  0.08298  1.0000
  C   C1049     1.0  0.32696  0.27984  0.99033  1.0000
  H   H1063     1.0  0.56725  0.47730  0.26712  1.0000
  H   H1064     1.0  0.45541  0.24317  0.11080  1.0000
  H   H1065     1.0  0.52743  0.23800  0.09660  1.0000
  H   H1066     1.0  0.51199  0.23888  0.04828  1.0000
  H   H1067     1.0  0.32632  0.36005  0.07807  1.0000
  H   H1068     1.0  0.61303  0.48144  0.18755  1.0000
  S   S355      1.0  0.62821  0.48332  0.09983  1.0000
  C   C1050     1.0  0.55131  0.48178  0.20221  1.0000
  S   S356      1.0  0.38265  0.40941  0.54676  1.0000
  C   C1051     1.0  0.35103  0.31344  0.58814  1.0000
  Fe  Fe180     1.0  0.36367  0.43900  0.55717  1.0000
  S   S357      1.0  0.36996  0.44309  0.58743  1.0000
  Fe  Fe181     1.0  0.41166  0.27949  0.52362  1.0000
  S   S358      1.0  0.38436  0.29312  0.54524  1.0000
  S   S359      1.0  0.44396  0.27720  0.53026  1.0000
  Fe  Fe182     1.0  0.38410  0.26639  0.49842  1.0000
  S   S360      1.0  0.35493  0.28009  0.51793  1.0000
  Fe  Fe183     1.0  0.37109  0.30697  0.51645  1.0000
  S   S361      1.0  0.35304  0.33999  0.51344  1.0000
  Fe  Fe184     1.0  0.37099  0.26528  0.54478  1.0000
  Fe  Fe185     1.0  0.36946  0.47662  0.57411  1.0000
  S   S362      1.0  0.39928  0.29468  0.49441  1.0000
  S   S363      1.0  0.39937  0.25033  0.52576  1.0000
  H   H1069     1.0  0.37711  0.26370  0.96058  1.0000
  C   C1052     1.0  0.38656  0.45711  0.66615  1.0000
  C   C1053     1.0  0.57341  0.24474  0.96083  1.0000
  N   N91       1.0  0.40254  0.38896  0.60107  1.0000
  S   S364      1.0  0.61506  0.42537  0.57834  1.0000
  Fe  Fe186     1.0  0.33554  0.45201  0.59546  1.0000
  C   C1054     1.0  0.34865  0.37891  0.52310  1.0000
  H   H1070     1.0  0.41690  0.40185  0.57127  1.0000
  Fe  Fe187     1.0  0.48119  0.35780  0.57374  1.0000
  S   S365      1.0  0.46757  0.35067  0.60721  1.0000
  S   S366      1.0  0.46142  0.35983  0.54990  1.0000
  Fe  Fe188     1.0  0.52191  0.36540  0.58229  1.0000
  S   S367      1.0  0.51160  0.35883  0.61669  1.0000
  S   S368      1.0  0.55396  0.37022  0.56450  1.0000
  Fe  Fe189     1.0  0.49927  0.33239  0.61044  1.0000
  S   S369      1.0  0.50094  0.30211  0.63245  1.0000
  Fe  Fe190     1.0  0.48064  0.37764  0.61064  1.0000
  S   S370      1.0  0.46087  0.40244  0.62817  1.0000
  S   S371      1.0  0.51188  0.33723  0.57656  1.0000
  S   S372      1.0  0.49198  0.38648  0.57655  1.0000
  C   C1055     1.0  0.39937  0.44890  0.63202  1.0000
  C   C1056     1.0  0.43071  0.46052  0.61063  1.0000
  C   C1057     1.0  0.34727  0.44435  0.82011  1.0000
  H   H1071     1.0  0.36196  0.31200  0.59841  1.0000
  C   C1058     1.0  0.37368  0.39572  0.63646  1.0000
  H   H1072     1.0  0.59138  0.27019  0.91422  1.0000
  C   C1059     1.0  0.50627  0.36180  0.51245  1.0000
  C   C1060     1.0  0.32464  0.42995  0.66637  1.0000
  Fe  Fe191     1.0  0.34441  0.40848  0.76644  1.0000
  S   S373      1.0  0.37892  0.39837  0.76418  1.0000
  H   H1073     1.0  0.32986  0.47394  0.63113  1.0000
  Fe  Fe192     1.0  0.34889  0.44031  0.72697  1.0000
  S   S374      1.0  0.38361  0.43379  0.72193  1.0000
  H   H1074     1.0  0.33456  0.38246  0.51661  1.0000
  Fe  Fe193     1.0  0.38004  0.40041  0.73007  1.0000
  S   S375      1.0  0.39908  0.37638  0.71109  1.0000
  Fe  Fe194     1.0  0.37975  0.43255  0.75595  1.0000
  S   S376      1.0  0.40140  0.44549  0.76914  1.0000
  S   S377      1.0  0.34522  0.40699  0.73317  1.0000
  S   S378      1.0  0.34524  0.44263  0.76033  1.0000
  C   C1061     1.0  0.39056  0.46530  0.78351  1.0000
  C   C1062     1.0  0.45994  0.24084  0.58129  1.0000
  C   C1063     1.0  0.41724  0.46892  0.64524  1.0000
  C   C1064     1.0  0.52309  0.34920  0.50256  1.0000
  H   H1075     1.0  0.64727  0.35475  0.50715  1.0000
  H   H1076     1.0  0.54573  0.26045  0.51816  1.0000
  C   C1065     1.0  0.50977  0.37682  0.52224  1.0000
  H   H1077     1.0  0.48725  0.30186  0.50228  1.0000
  H   H1078     1.0  0.60372  0.28644  0.93839  1.0000
  C   C1066     1.0  0.32925  0.37730  0.85876  1.0000
  C   C1067     1.0  0.34705  0.45776  0.83348  1.0000
  C   C1068     1.0  0.34547  0.38331  0.84315  1.0000
  C   C1069     1.0  0.34252  0.38945  0.82254  1.0000
  H   H1079     1.0  0.41655  0.45917  0.79942  1.0000
  H   H1080     1.0  0.58104  0.34093  0.59160  1.0000
  H   H1081     1.0  0.36053  0.38280  0.84696  1.0000
  H   H1082     1.0  0.35531  0.39345  0.81054  1.0000
  H   H1083     1.0  0.32890  0.34944  0.79669  1.0000
  H   H1084     1.0  0.56748  0.35804  0.60883  1.0000
  H   H1085     1.0  0.40011  0.39515  0.65024  1.0000
  C   C1070     1.0  0.44485  0.39468  0.65185  1.0000
  C   C1071     1.0  0.44261  0.37393  0.65896  1.0000
  C   C1072     1.0  0.42871  0.36850  0.67725  1.0000
  C   C1073     1.0  0.41699  0.38371  0.68861  1.0000
  C   C1074     1.0  0.41940  0.40442  0.68150  1.0000
  C   C1075     1.0  0.43327  0.40985  0.66324  1.0000
  H   H1086     1.0  0.45155  0.36205  0.65040  1.0000
  H   H1087     1.0  0.42703  0.35243  0.68265  1.0000
  H   H1088     1.0  0.41065  0.41627  0.69006  1.0000
  H   H1089     1.0  0.43514  0.42584  0.65801  1.0000
  C   C1076     1.0  0.59740  0.41130  0.57344  1.0000
  C   C1077     1.0  0.57741  0.41200  0.58552  1.0000
  C   C1078     1.0  0.56366  0.39980  0.58284  1.0000
  C   C1079     1.0  0.56978  0.38694  0.56792  1.0000
  C   C1080     1.0  0.58953  0.38663  0.55558  1.0000
  C   C1081     1.0  0.60319  0.39877  0.55826  1.0000
  H   H1090     1.0  0.57267  0.42181  0.59717  1.0000
  H   H1091     1.0  0.54841  0.40029  0.59237  1.0000
  H   H1092     1.0  0.59436  0.37692  0.54385  1.0000
  H   H1093     1.0  0.61811  0.39858  0.54836  1.0000
  C   C1082     1.0  0.32744  0.43660  0.68384  1.0000
  C   C1083     1.0  0.33066  0.45683  0.68245  1.0000
  C   C1084     1.0  0.57285  0.25480  0.49501  1.0000
  H   H1094     1.0  0.48630  0.25245  0.62227  1.0000
  H   H1095     1.0  0.63660  0.41358  0.51096  1.0000
  C   C1085     1.0  0.52850  0.25682  0.59853  1.0000
  C   C1086     1.0  0.51969  0.27652  0.60377  1.0000
  C   C1087     1.0  0.51430  0.27877  0.62458  1.0000
  H   H1096     1.0  0.34523  0.40971  0.53021  1.0000
  H   H1097     1.0  0.53244  0.25499  0.58253  1.0000
  H   H1098     1.0  0.51669  0.28977  0.59180  1.0000
  H   H1099     1.0  0.35061  0.39575  0.61842  1.0000
  C   C1088     1.0  0.41749  0.38671  0.58198  1.0000
  C   C1089     1.0  0.39484  0.39394  0.63643  1.0000
  H   H1100     1.0  0.56868  0.38552  0.51273  1.0000
  C   C1090     1.0  0.46305  0.28605  0.60451  1.0000
  H   H1101     1.0  0.44795  0.29538  0.60108  1.0000
  H   H1102     1.0  0.65176  0.34648  0.58289  1.0000
  C   C1091     1.0  0.63774  0.40835  0.49655  1.0000
  C   C1092     1.0  0.40155  0.46865  0.79767  1.0000
  H   H1103     1.0  0.48394  0.25866  0.51179  1.0000
  C   C1093     1.0  0.38181  0.39044  0.60107  1.0000
  C   C1094     1.0  0.44906  0.30016  0.53547  1.0000
  C   C1095     1.0  0.46597  0.29943  0.54510  1.0000
  C   C1096     1.0  0.46976  0.31759  0.54994  1.0000
  C   C1097     1.0  0.45713  0.33665  0.54441  1.0000
  C   C1098     1.0  0.44094  0.33746  0.53385  1.0000
  C   C1099     1.0  0.43665  0.31924  0.52974  1.0000
  H   H1104     1.0  0.47605  0.28479  0.54898  1.0000
  H   H1105     1.0  0.48261  0.31692  0.55763  1.0000
  H   H1106     1.0  0.43162  0.35225  0.52888  1.0000
  H   H1107     1.0  0.42394  0.32002  0.52181  1.0000
  H   H1108     1.0  0.37651  0.38937  0.58725  1.0000
  C   C1100     1.0  0.37316  0.39016  0.53868  1.0000
  C   C1101     1.0  0.36101  0.35908  0.52330  1.0000
  C   C1102     1.0  0.37912  0.35469  0.53182  1.0000
  C   C1103     1.0  0.38518  0.37018  0.53935  1.0000
  H   H1109     1.0  0.38871  0.33950  0.53223  1.0000
  H   H1110     1.0  0.39943  0.36678  0.54550  1.0000
  N   N92       1.0  0.63827  0.23933  0.91627  1.0000
  H   H1111     1.0  0.36192  0.43589  0.81319  1.0000
  C   C1104     1.0  0.61980  0.40506  0.49083  1.0000
  H   H1112     1.0  0.52052  0.33735  0.49508  1.0000
  S   S379      1.0  0.33375  0.46549  0.70432  1.0000
  C   C1105     1.0  0.38474  0.44755  0.65026  1.0000
  H   H1113     1.0  0.41387  0.37531  0.57398  1.0000
  H   H1114     1.0  0.63797  0.27172  0.94887  1.0000
  H   H1115     1.0  0.49053  0.35983  0.51267  1.0000
  C   C1106     1.0  0.61926  0.24719  0.91063  1.0000
  C   C1107     1.0  0.36708  0.39394  0.61869  1.0000
  H   H1116     1.0  0.32886  0.43211  0.80467  1.0000
  H   H1117     1.0  0.47579  0.29375  0.59464  1.0000
  H   H1118     1.0  0.39624  0.24531  0.57611  1.0000
  C   C1108     1.0  0.54885  0.28761  0.49482  1.0000
  C   C1109     1.0  0.33062  0.32804  0.84686  1.0000
  H   H1119     1.0  0.45276  0.23782  0.56940  1.0000
  C   C1110     1.0  0.35461  0.39437  0.53088  1.0000
  S   S380      1.0  0.32905  0.44601  0.56603  1.0000
  H   H1120     1.0  0.65095  0.37628  0.59966  1.0000
  H   H1121     1.0  0.36152  0.45977  0.83707  1.0000
  C   C1111     1.0  0.60674  0.26450  0.91815  1.0000
  H   H1122     1.0  0.34946  0.24268  0.96718  1.0000
  H   H1123     1.0  0.42976  0.47752  0.64336  1.0000
  C   C1112     1.0  0.32925  0.46348  0.64578  1.0000
  C   C1113     1.0  0.47877  0.24929  0.61079  1.0000
  H   H1124     1.0  0.53282  0.39066  0.52974  1.0000
  H   H1125     1.0  0.42556  0.38964  0.61847  1.0000
  H   H1126     1.0  0.55631  0.34203  0.49471  1.0000
  H   H1127     1.0  0.36237  0.39858  0.65018  1.0000
  H   H1128     1.0  0.34862  0.28092  0.59532  1.0000
  H   H1129     1.0  0.61333  0.23968  0.90085  1.0000
  C   C1114     1.0  0.34458  0.33263  0.57635  1.0000
  H   H1130     1.0  0.35397  0.33669  0.82077  1.0000
  H   H1131     1.0  0.32803  0.48012  0.85149  1.0000
  C   C1115     1.0  0.53018  0.37918  0.52179  1.0000
  H   H1132     1.0  0.57829  0.36593  0.49703  1.0000
  C   C1116     1.0  0.51186  0.24080  0.49774  1.0000
  Fe  Fe195     1.0  0.64903  0.41970  0.56314  1.0000
  N   N93       1.0  0.54659  0.36706  0.51162  1.0000
  H   H1133     1.0  0.55835  0.25159  0.95669  1.0000
  H   H1134     1.0  0.46896  0.29308  0.49126  1.0000
  C   C1117     1.0  0.37128  0.47771  0.78113  1.0000
  C   C1118     1.0  0.32340  0.34295  0.81263  1.0000
  C   C1119     1.0  0.61364  0.27356  0.93174  1.0000
  C   C1120     1.0  0.54329  0.35198  0.50237  1.0000
  H   H1135     1.0  0.60497  0.40777  0.50095  1.0000
  H   H1136     1.0  0.53475  0.29674  0.50171  1.0000
  C   C1121     1.0  0.34357  0.29602  0.58642  1.0000
  C   C1122     1.0  0.33003  0.29801  0.57258  1.0000
  H   H1137     1.0  0.35049  0.34627  0.57723  1.0000
  C   C1123     1.0  0.40915  0.39071  0.61845  1.0000
  C   C1124     1.0  0.45625  0.26075  0.58615  1.0000
  C   C1125     1.0  0.49734  0.25901  0.49945  1.0000
  H   H1138     1.0  0.42393  0.45934  0.59726  1.0000
  C   C1126     1.0  0.48513  0.29609  0.48868  1.0000
  S   S381      1.0  0.36654  0.47208  0.54276  1.0000
  N   N94       1.0  0.41522  0.45969  0.62963  1.0000
  C   C1127     1.0  0.40293  0.46780  0.66372  1.0000
  H   H1139     1.0  0.44403  0.44758  0.61258  1.0000
  N   N95       1.0  0.32414  0.31679  0.56076  1.0000
  S   S382      1.0  0.33373  0.36944  0.88437  1.0000
  C   C1128     1.0  0.63292  0.26531  0.93759  1.0000
  C   C1129     1.0  0.64508  0.24803  0.92972  1.0000
  H   H1140     1.0  0.51407  0.26323  0.65605  1.0000
  C   C1130     1.0  0.51823  0.26156  0.63997  1.0000
  H   H1141     1.0  0.61768  0.39239  0.61906  1.0000
  H   H1142     1.0  0.57384  0.35865  0.52486  1.0000
  C   C1131     1.0  0.53215  0.23958  0.61411  1.0000
  H   H1143     1.0  0.37517  0.45643  0.68025  1.0000
  C   C1132     1.0  0.55503  0.26699  0.50417  1.0000
  H   H1144     1.0  0.43366  0.38120  0.58488  1.0000
  H   H1145     1.0  0.40427  0.47559  0.67586  1.0000
  S   S383      1.0  0.35375  0.24622  0.57190  1.0000
  C   C1133     1.0  0.33767  0.33575  0.82618  1.0000
  C   C1134     1.0  0.52728  0.24213  0.63475  1.0000
  H   H1146     1.0  0.46365  0.28620  0.62089  1.0000
  H   H1147     1.0  0.36296  0.47537  0.76993  1.0000
  N   N96       1.0  0.50010  0.27701  0.48594  1.0000
  N   N97       1.0  0.46569  0.26478  0.60071  1.0000
  S   S384      1.0  0.33705  0.29581  0.96773  1.0000
  C   C1135     1.0  0.56791  0.36937  0.51157  1.0000
  N   N98       1.0  0.60062  0.35474  0.60399  1.0000
  C   C1136     1.0  0.61887  0.34584  0.59319  1.0000
  C   C1137     1.0  0.60020  0.37091  0.61365  1.0000
  C   C1138     1.0  0.63726  0.35339  0.59155  1.0000
  C   C1139     1.0  0.61825  0.37894  0.61219  1.0000
  C   C1140     1.0  0.63687  0.37009  0.60107  1.0000
  C   C1141     1.0  0.58168  0.34616  0.60605  1.0000
  H   H1148     1.0  0.61925  0.33290  0.58569  1.0000
  H   H1149     1.0  0.58573  0.37812  0.62207  1.0000
  H   H1150     1.0  0.49671  0.38641  0.53028  1.0000
  H   H1151     1.0  0.39784  0.44154  0.61968  1.0000
  C   C1142     1.0  0.52938  0.24110  0.48227  1.0000
  H   H1152     1.0  0.37192  0.43936  0.65204  1.0000
  H   H1153     1.0  0.58104  0.33286  0.61905  1.0000
  H   H1154     1.0  0.44599  0.27298  0.57797  1.0000
  C   C1143     1.0  0.65314  0.34391  0.47813  1.0000
  H   H1155     1.0  0.34142  0.32289  0.85767  1.0000
  C   C1144     1.0  0.33144  0.47033  0.66342  1.0000
  Fe  Fe196     1.0  0.33210  0.47956  0.55413  1.0000
  H   H1156     1.0  0.63745  0.34117  0.47952  1.0000
  H   H1157     1.0  0.32594  0.34903  0.55368  1.0000
  C   C1145     1.0  0.33077  0.33408  0.56291  1.0000
  C   C1146     1.0  0.37622  0.25119  0.97378  1.0000
  C   C1147     1.0  0.32852  0.44228  0.81534  1.0000
  H   H1158     1.0  0.32636  0.42625  0.69850  1.0000
  C   C1148     1.0  0.32311  0.39019  0.81752  1.0000
  C   C1149     1.0  0.32557  0.44335  0.64733  1.0000
  H   H1159     1.0  0.43638  0.47557  0.60666  1.0000
  C   C1150     1.0  0.32822  0.46910  0.84167  1.0000
  H   H1160     1.0  0.32456  0.28433  0.57109  1.0000
  C   C1151     1.0  0.58096  0.25315  0.97474  1.0000
  C   C1152     1.0  0.58493  0.26366  0.47694  1.0000
  C   C1153     1.0  0.56053  0.29618  0.47634  1.0000
  Fe  Fe197     1.0  0.54948  0.57975  0.18880  1.0000
  S   S385      1.0  0.58401  0.57391  0.18765  1.0000
  S   S386      1.0  0.52936  0.60392  0.20704  1.0000
  Fe  Fe198     1.0  0.55269  0.54766  0.16158  1.0000
  S   S387      1.0  0.58718  0.53848  0.15935  1.0000
  S   S388      1.0  0.53417  0.53227  0.14697  1.0000
  Fe  Fe199     1.0  0.58118  0.54030  0.19295  1.0000
  S   S389      1.0  0.59393  0.51401  0.21628  1.0000
  Fe  Fe200     1.0  0.58673  0.57274  0.15398  1.0000
  S   S390      1.0  0.61062  0.58636  0.12849  1.0000
  S   S391      1.0  0.54659  0.54617  0.19580  1.0000
  S   S392      1.0  0.55234  0.58195  0.15446  1.0000
  C   C1154     1.0  0.57876  0.63191  0.12933  1.0000
  C   C1155     1.0  0.42776  0.70582  0.44793  1.0000
  Fe  Fe201     1.0  0.60006  0.62205  0.01191  1.0000
  S   S393      1.0  0.61889  0.64772  0.00483  1.0000
  S   S394      1.0  0.58104  0.60850  0.04182  1.0000
  H   H1161     1.0  0.55947  0.59964  0.46244  1.0000
  C   C1156     1.0  0.60619  0.72222  0.46906  1.0000
  S   S395      1.0  0.60517  0.53187  0.35258  1.0000
  H   H1162     1.0  0.62235  0.71835  0.46218  1.0000
  C   C1157     1.0  0.56952  0.50835  0.08851  1.0000
  Fe  Fe202     1.0  0.45735  0.59211  0.31606  1.0000
  S   S396      1.0  0.45240  0.57833  0.34983  1.0000
  S   S397      1.0  0.48058  0.57162  0.29595  1.0000
  Fe  Fe203     1.0  0.42703  0.63118  0.32376  1.0000
  S   S398      1.0  0.41998  0.62028  0.35790  1.0000
  S   S399      1.0  0.40840  0.66219  0.31292  1.0000
  Fe  Fe204     1.0  0.45436  0.60989  0.35496  1.0000
  S   S400      1.0  0.47316  0.61164  0.37867  1.0000
  Fe  Fe205     1.0  0.41838  0.59006  0.34942  1.0000
  S   S401      1.0  0.39363  0.57203  0.36891  1.0000
  S   S402      1.0  0.46185  0.62273  0.32129  1.0000
  S   S403      1.0  0.42305  0.60164  0.31529  1.0000
  H   H1163     1.0  0.59336  0.63077  0.11857  1.0000
  Fe  Fe206     1.0  0.55224  0.69607  0.43593  1.0000
  S   S404      1.0  0.58174  0.68970  0.41362  1.0000
  H   H1164     1.0  0.34108  0.60691  0.41553  1.0000
  Fe  Fe207     1.0  0.52569  0.69131  0.40519  1.0000
  S   S405      1.0  0.55341  0.68612  0.38027  1.0000
  S   S406      1.0  0.49381  0.69355  0.39747  1.0000
  Fe  Fe208     1.0  0.56779  0.66486  0.40602  1.0000
  S   S407      1.0  0.58730  0.63345  0.40164  1.0000
  Fe  Fe209     1.0  0.56434  0.71134  0.39027  1.0000
  H   H1165     1.0  0.50217  0.71538  0.35336  1.0000
  S   S408      1.0  0.53953  0.66904  0.43077  1.0000
  S   S409      1.0  0.53526  0.71865  0.41279  1.0000
  S   S410      1.0  0.57078  0.50200  0.37571  1.0000
  Fe  Fe210     1.0  0.59812  0.52646  0.32314  1.0000
  S   S411      1.0  0.56360  0.53270  0.33271  1.0000
  S   S412      1.0  0.61007  0.54500  0.29282  1.0000
  Fe  Fe211     1.0  0.57067  0.53593  0.36295  1.0000
  S   S413      1.0  0.55075  0.56274  0.37777  1.0000
  Fe  Fe212     1.0  0.56713  0.49846  0.34425  1.0000
  S   S414      1.0  0.60133  0.49178  0.33233  1.0000
  C   C1158     1.0  0.54323  0.52202  0.25478  1.0000
  H   H1166     1.0  0.43392  0.68624  0.36257  1.0000
  H   H1167     1.0  0.60056  0.52772  0.03442  1.0000
  Fe  Fe213     1.0  0.36764  0.63155  0.46896  1.0000
  C   C1159     1.0  0.44917  0.69651  0.31876  1.0000
  H   H1168     1.0  0.35559  0.67461  0.45001  1.0000
  C   C1160     1.0  0.40366  0.68202  0.42411  1.0000
  H   H1169     1.0  0.58053  0.60188  0.44104  1.0000
  C   C1161     1.0  0.57702  0.61444  0.39401  1.0000
  C   C1162     1.0  0.55577  0.61654  0.39393  1.0000
  C   C1163     1.0  0.54800  0.60056  0.38894  1.0000
  C   C1164     1.0  0.56136  0.58250  0.38369  1.0000
  C   C1165     1.0  0.58264  0.58056  0.38345  1.0000
  C   C1166     1.0  0.59039  0.59638  0.38877  1.0000
  H   H1170     1.0  0.54529  0.63036  0.39789  1.0000
  H   H1171     1.0  0.53154  0.60217  0.38915  1.0000
  H   H1172     1.0  0.59311  0.56674  0.37948  1.0000
  H   H1173     1.0  0.60684  0.59460  0.38879  1.0000
  C   C1167     1.0  0.59819  0.55943  0.98808  1.0000
  C   C1168     1.0  0.56466  0.49185  0.18634  1.0000
  C   C1169     1.0  0.33950  0.55524  0.36593  1.0000
  H   H1174     1.0  0.45345  0.57876  0.40094  1.0000
  C   C1170     1.0  0.57334  0.57344  0.01548  1.0000
  N   N99       1.0  0.38146  0.69399  0.37342  1.0000
  C   C1171     1.0  0.47967  0.63471  0.38238  1.0000
  C   C1172     1.0  0.47227  0.65425  0.37160  1.0000
  C   C1173     1.0  0.47667  0.67230  0.37623  1.0000
  C   C1174     1.0  0.48918  0.67083  0.39104  1.0000
  C   C1175     1.0  0.49713  0.65125  0.40124  1.0000
  C   C1176     1.0  0.49211  0.63333  0.39716  1.0000
  H   H1175     1.0  0.46309  0.65544  0.35982  1.0000
  H   H1176     1.0  0.47063  0.68740  0.36813  1.0000
  H   H1177     1.0  0.50671  0.64992  0.41271  1.0000
  H   H1178     1.0  0.49786  0.61830  0.40559  1.0000
  C   C1177     1.0  0.37270  0.56750  0.35913  1.0000
  C   C1178     1.0  0.37117  0.57327  0.33822  1.0000
  C   C1179     1.0  0.35404  0.56973  0.33116  1.0000
  C   C1180     1.0  0.33807  0.56086  0.34498  1.0000
  C   C1181     1.0  0.40928  0.72018  0.44928  1.0000
  C   C1182     1.0  0.35689  0.55831  0.37289  1.0000
  H   H1179     1.0  0.38324  0.58032  0.32745  1.0000
  H   H1180     1.0  0.35310  0.57406  0.31491  1.0000
  N   N100      1.0  0.56027  0.63534  0.12246  1.0000
  H   H1181     1.0  0.35805  0.55372  0.38905  1.0000
  C   C1183     1.0  0.41970  0.68306  0.31441  1.0000
  C   C1184     1.0  0.40788  0.70309  0.31311  1.0000
  C   C1185     1.0  0.56063  0.63015  0.16451  1.0000
  C   C1186     1.0  0.38820  0.67183  0.43719  1.0000
  H   H1182     1.0  0.39196  0.70564  0.31076  1.0000
  H   H1183     1.0  0.44957  0.66460  0.31808  1.0000
  H   H1184     1.0  0.58255  0.55196  0.06114  1.0000
  C   C1187     1.0  0.59922  0.52241  0.23731  1.0000
  C   C1188     1.0  0.60292  0.54255  0.23543  1.0000
  C   C1189     1.0  0.60656  0.54928  0.25249  1.0000
  C   C1190     1.0  0.60611  0.53601  0.27159  1.0000
  C   C1191     1.0  0.60233  0.51587  0.27352  1.0000
  C   C1192     1.0  0.59925  0.50896  0.25629  1.0000
  H   H1185     1.0  0.60356  0.55281  0.22074  1.0000
  H   H1186     1.0  0.60976  0.56479  0.25088  1.0000
  H   H1187     1.0  0.60218  0.50548  0.28816  1.0000
  H   H1188     1.0  0.59673  0.49327  0.25778  1.0000
  C   C1193     1.0  0.51520  0.59520  0.23161  1.0000
  C   C1194     1.0  0.51460  0.57412  0.23857  1.0000
  C   C1195     1.0  0.50334  0.56737  0.25804  1.0000
  C   C1196     1.0  0.49274  0.58151  0.27094  1.0000
  C   C1197     1.0  0.49315  0.60269  0.26408  1.0000
  C   C1198     1.0  0.50435  0.60950  0.24442  1.0000
  H   H1189     1.0  0.52253  0.56299  0.22888  1.0000
  H   H1190     1.0  0.50257  0.55111  0.26302  1.0000
  H   H1191     1.0  0.48495  0.61379  0.27389  1.0000
  H   H1192     1.0  0.50461  0.62589  0.23914  1.0000
  C   C1199     1.0  0.59083  0.60104  0.06513  1.0000
  C   C1200     1.0  0.57896  0.59055  0.08229  1.0000
  C   C1201     1.0  0.58547  0.58528  0.10149  1.0000
  C   C1202     1.0  0.60372  0.59080  0.10384  1.0000
  C   C1203     1.0  0.61589  0.60097  0.08662  1.0000
  C   C1204     1.0  0.60950  0.60601  0.06724  1.0000
  H   H1193     1.0  0.56445  0.58675  0.08090  1.0000
  H   H1194     1.0  0.57617  0.57711  0.11451  1.0000
  H   H1195     1.0  0.63007  0.60528  0.08831  1.0000
  H   H1196     1.0  0.61876  0.61412  0.05407  1.0000
  C   C1205     1.0  0.54742  0.52449  0.12366  1.0000
  H   H1197     1.0  0.42906  0.65146  0.38307  1.0000
  H   H1198     1.0  0.44305  0.60696  0.44432  1.0000
  N   N101      1.0  0.44618  0.73260  0.42780  1.0000
  C   C1206     1.0  0.40106  0.69806  0.36555  1.0000
  C   C1207     1.0  0.56798  0.52717  0.11605  1.0000
  S   S415      1.0  0.39481  0.64603  0.44975  1.0000
  C   C1208     1.0  0.36765  0.68225  0.43990  1.0000
  H   H1199     1.0  0.34665  0.71072  0.43196  1.0000
  H   H1200     1.0  0.57542  0.53552  0.12355  1.0000
  C   C1209     1.0  0.41571  0.66337  0.38026  1.0000
  C   C1210     1.0  0.43779  0.58020  0.40970  1.0000
  C   C1211     1.0  0.39749  0.58394  0.43145  1.0000
  C   C1212     1.0  0.42390  0.56922  0.40564  1.0000
  C   C1213     1.0  0.40363  0.57111  0.41663  1.0000
  H   H1201     1.0  0.39340  0.64435  0.39743  1.0000
  H   H1202     1.0  0.38173  0.58566  0.43991  1.0000
  H   H1203     1.0  0.42865  0.55957  0.39378  1.0000
  H   H1204     1.0  0.39261  0.56285  0.41347  1.0000
  H   H1205     1.0  0.36742  0.72564  0.36486  1.0000
  H   H1206     1.0  0.65031  0.48764  0.40923  1.0000
  H   H1207     1.0  0.54016  0.54022  0.29881  1.0000
  H   H1208     1.0  0.33531  0.55361  0.42119  1.0000
  H   H1209     1.0  0.64166  0.54078  0.10288  1.0000
  H   H1210     1.0  0.57807  0.49537  0.15417  1.0000
  H   H1211     1.0  0.41058  0.71019  0.40366  1.0000
  S   S416      1.0  0.62349  0.60086  0.99320  1.0000
  H   H1212     1.0  0.52382  0.50156  0.25109  1.0000
  H   H1213     1.0  0.46515  0.69389  0.32095  1.0000
  N   N102      1.0  0.57246  0.62706  0.45804  1.0000
  C   C1214     1.0  0.54784  0.53288  0.26831  1.0000
  H   H1214     1.0  0.38532  0.72706  0.98765  1.0000
  H   H1215     1.0  0.61161  0.65379  0.45228  1.0000
  C   C1215     1.0  0.53666  0.53158  0.28846  1.0000
  S   S417      1.0  0.55072  0.70724  0.46614  1.0000
  H   H1216     1.0  0.59401  0.62544  0.15583  1.0000
  H   H1217     1.0  0.57282  0.50286  0.18944  1.0000
  H   H1218     1.0  0.46244  0.59716  0.42416  1.0000
  S   S418      1.0  0.34131  0.63068  0.45363  1.0000
  H   H1219     1.0  0.60265  0.62544  0.43936  1.0000
  C   C1216     1.0  0.50986  0.51849  0.31615  1.0000
  H   H1220     1.0  0.55998  0.54224  0.26319  1.0000
  C   C1217     1.0  0.34056  0.60641  0.38374  1.0000
  H   H1221     1.0  0.51915  0.52143  0.32679  1.0000
  C   C1218     1.0  0.60486  0.54232  0.00248  1.0000
  C   C1219     1.0  0.57042  0.55489  0.05134  1.0000
  H   H1222     1.0  0.56125  0.58588  0.02041  1.0000
  H   H1223     1.0  0.56158  0.54185  0.05575  1.0000
  H   H1224     1.0  0.55964  0.56932  0.05470  1.0000
  C   C1220     1.0  0.44599  0.60484  0.42795  1.0000
  H   H1225     1.0  0.41960  0.67403  0.42189  1.0000
  H   H1226     1.0  0.32739  0.54827  0.37671  1.0000
  H   H1227     1.0  0.59515  0.52063  0.09315  1.0000
  H   H1228     1.0  0.50596  0.50276  0.32233  1.0000
  Fe  Fe214     1.0  0.64105  0.62740  0.98400  1.0000
  C   C1221     1.0  0.39857  0.70249  0.41370  1.0000
  N   N103      1.0  0.43166  0.59262  0.42444  1.0000
  S   S419      1.0  0.34291  0.57272  0.45238  1.0000
  C   C1222     1.0  0.59148  0.63291  0.45095  1.0000
  C   C1223     1.0  0.36260  0.70273  0.42965  1.0000
  S   S420      1.0  0.58212  0.63596  0.98607  1.0000
  H   H1229     1.0  0.36308  0.67174  0.39097  1.0000
  C   C1224     1.0  0.56753  0.48756  0.16638  1.0000
  C   C1225     1.0  0.59666  0.64896  0.45818  1.0000
  H   H1230     1.0  0.52164  0.51260  0.11879  1.0000
  N   N104      1.0  0.58005  0.55667  0.02951  1.0000
  H   H1231     1.0  0.59555  0.70452  0.45114  1.0000
  H   H1232     1.0  0.54916  0.48483  0.21780  1.0000
  C   C1226     1.0  0.33144  0.60811  0.40408  1.0000
  C   C1227     1.0  0.53763  0.51452  0.11309  1.0000
  C   C1228     1.0  0.54193  0.63654  0.13615  1.0000
  Fe  Fe215     1.0  0.34275  0.59782  0.47018  1.0000
  H   H1233     1.0  0.42770  0.68966  0.45494  1.0000
  H   H1234     1.0  0.35679  0.70661  0.35677  1.0000
  H   H1235     1.0  0.61722  0.53008  0.99761  1.0000
  C   C1229     1.0  0.59547  0.54114  0.02327  1.0000
  C   C1230     1.0  0.56677  0.61081  0.44980  1.0000
  Fe  Fe216     1.0  0.60500  0.49765  0.36292  1.0000
  S   S421      1.0  0.58395  0.49658  0.06781  1.0000
  C   C1231     1.0  0.37800  0.71294  0.41652  1.0000
  C   C1232     1.0  0.37861  0.67489  0.38457  1.0000
  H   H1236     1.0  0.40337  0.71321  0.35687  1.0000
  H   H1237     1.0  0.55188  0.52281  0.23917  1.0000
  C   C1233     1.0  0.44614  0.71226  0.43678  1.0000
  C   C1234     1.0  0.52743  0.51021  0.26143  1.0000
  H   H1238     1.0  0.55144  0.62624  0.09762  1.0000
  H   H1239     1.0  0.52731  0.63450  0.16829  1.0000
  H   H1240     1.0  0.54113  0.49857  0.08749  1.0000
  N   N105      1.0  0.53313  0.59259  0.32520  1.0000
  C   C1235     1.0  0.55397  0.58931  0.32555  1.0000
  C   C1236     1.0  0.52622  0.59085  0.30797  1.0000
  C   C1237     1.0  0.56851  0.58444  0.30825  1.0000
  C   C1238     1.0  0.54036  0.58615  0.29033  1.0000
  C   C1239     1.0  0.56164  0.58284  0.29055  1.0000
  C   C1240     1.0  0.51819  0.59689  0.34377  1.0000
  H   H1241     1.0  0.55947  0.59027  0.33932  1.0000
  H   H1242     1.0  0.50969  0.59313  0.30778  1.0000
  H   H1243     1.0  0.58503  0.58161  0.30868  1.0000
  H   H1244     1.0  0.53481  0.58505  0.27661  1.0000
  H   H1245     1.0  0.57287  0.57890  0.27714  1.0000
  H   H1246     1.0  0.52410  0.60607  0.35254  1.0000
  H   H1247     1.0  0.50317  0.60599  0.33991  1.0000
  H   H1248     1.0  0.51534  0.58209  0.35412  1.0000
  C   C1241     1.0  0.54183  0.63406  0.15735  1.0000
  C   C1242     1.0  0.41178  0.59464  0.43518  1.0000
  C   C1243     1.0  0.58225  0.57503  0.99458  1.0000
  C   C1244     1.0  0.55987  0.63778  0.10037  1.0000
  H   H1249     1.0  0.56075  0.62758  0.18097  1.0000
  H   H1250     1.0  0.55211  0.65367  0.09454  1.0000
  C   C1245     1.0  0.54862  0.50661  0.09540  1.0000
  C   C1246     1.0  0.44032  0.67985  0.31725  1.0000
  H   H1251     1.0  0.40688  0.60456  0.44673  1.0000
  C   C1247     1.0  0.36332  0.70985  0.36938  1.0000
  H   H1252     1.0  0.55472  0.72828  0.34562  1.0000
  C   C1248     1.0  0.43724  0.71639  0.31795  1.0000
  H   H1253     1.0  0.44400  0.62038  0.41799  1.0000
  H   H1254     1.0  0.49532  0.53016  0.31638  1.0000
  C   C1249     1.0  0.59100  0.71432  0.46277  1.0000
  C   C1250     1.0  0.41661  0.71975  0.31504  1.0000
  C   C1251     1.0  0.57924  0.62903  0.15044  1.0000
  H   H1255     1.0  0.34170  0.49496  0.35725  1.0000
  H   H1256     1.0  0.57576  0.63514  0.09108  1.0000
  H   H1257     1.0  0.50459  0.49972  0.28690  1.0000
  C   C1252     1.0  0.57912  0.51883  0.09870  1.0000
  C   C1253     1.0  0.39567  0.65933  0.38823  1.0000
  H   H1258     1.0  0.52727  0.63906  0.13075  1.0000
  C   C1254     1.0  0.51666  0.50916  0.28174  1.0000
  C   C1255     1.0  0.41845  0.68285  0.36884  1.0000
  C   C1256     1.0  0.65441  0.54819  0.09382  1.0000
  N   N106      1.0  0.52155  0.51955  0.29503  1.0000
  H   H1259     1.0  0.56891  0.48753  0.30012  1.0000
  H   H1260     1.0  0.39478  0.71521  0.45722  1.0000
  C   C1257     1.0  0.55816  0.63700  0.47213  1.0000
  C   C1258     1.0  0.32802  0.60715  0.36937  1.0000
  H   H1261     1.0  0.35130  0.71025  0.38357  1.0000
  H   H1262     1.0  0.46034  0.70088  0.43518  1.0000
  H   H1263     1.0  0.35734  0.60409  0.37919  1.0000
  H   H1264     1.0  0.33502  0.60535  0.35361  1.0000
  H   H1265     1.0  0.35868  0.70678  0.98609  1.0000
  H   H1266     1.0  0.65308  0.48898  0.34572  1.0000
  H   H1267     1.0  0.33348  0.51660  0.32446  1.0000
  H   H1268     1.0  0.57700  0.58844  0.98354  1.0000
  C   C1259     1.0  0.32736  0.49463  0.35229  1.0000
  H   H1269     1.0  0.47938  0.72823  0.42061  1.0000
  H   H1270     1.0  0.65476  0.56580  0.11690  1.0000
  H   H1271     1.0  0.55577  0.61797  0.43893  1.0000
  C   C1260     1.0  0.58224  0.65904  0.47269  1.0000
  C   C1261     1.0  0.57014  0.71851  0.47212  1.0000
  C   C1262     1.0  0.49901  0.73223  0.35099  1.0000
  Fe  Fe217     1.0  0.60295  0.65978  0.97717  1.0000
  C   C1263     1.0  0.38823  0.71708  0.97616  1.0000
  N   N107      1.0  0.40991  0.70428  0.94656  1.0000
  H   H1272     1.0  0.59846  0.63021  0.90384  1.0000
  C   C1264     1.0  0.48012  0.72342  0.83391  1.0000
  S   S422      1.0  0.59978  0.60193  0.94328  1.0000
  H   H1273     1.0  0.60799  0.59177  0.90261  1.0000
  C   C1265     1.0  0.37306  0.65905  0.63815  1.0000
  Fe  Fe218     1.0  0.49644  0.65045  0.74946  1.0000
  S   S423      1.0  0.50508  0.62182  0.77222  1.0000
  S   S424      1.0  0.48326  0.65147  0.72038  1.0000
  Fe  Fe219     1.0  0.50723  0.67858  0.77539  1.0000
  S   S425      1.0  0.51567  0.65201  0.80038  1.0000
  S   S426      1.0  0.50691  0.71127  0.77987  1.0000
  Fe  Fe220     1.0  0.53237  0.63584  0.77405  1.0000
  S   S427      1.0  0.56456  0.61650  0.77368  1.0000
  Fe  Fe221     1.0  0.48770  0.64084  0.79632  1.0000
  S   S428      1.0  0.46364  0.62784  0.82160  1.0000
  S   S429      1.0  0.52546  0.66309  0.74899  1.0000
  S   S430      1.0  0.47755  0.66881  0.77359  1.0000
  Fe  Fe222     1.0  0.39885  0.55704  0.65942  1.0000
  S   S431      1.0  0.37614  0.58489  0.64854  1.0000
  S   S432      1.0  0.39103  0.52559  0.66027  1.0000
  Fe  Fe223     1.0  0.42631  0.58356  0.67075  1.0000
  S   S433      1.0  0.40629  0.61321  0.65883  1.0000
  S   S434      1.0  0.45045  0.58095  0.69129  1.0000
  Fe  Fe224     1.0  0.37978  0.59727  0.67571  1.0000
  S   S435      1.0  0.35521  0.61336  0.69808  1.0000
  Fe  Fe225     1.0  0.40482  0.59772  0.63245  1.0000
  S   S436      1.0  0.40582  0.61413  0.59911  1.0000
  S   S437      1.0  0.39949  0.56815  0.68845  1.0000
  S   S438      1.0  0.42771  0.56928  0.64255  1.0000
  H   H1274     1.0  0.38348  0.66802  0.64121  1.0000
  H   H1275     1.0  0.41448  0.53529  0.61901  1.0000
  Fe  Fe226     1.0  0.34847  0.60834  0.51051  1.0000
  S   S439      1.0  0.34858  0.59342  0.54405  1.0000
  Fe  Fe227     1.0  0.34974  0.66507  0.89311  1.0000
  S   S440      1.0  0.36358  0.67161  0.91854  1.0000
  Fe  Fe228     1.0  0.35630  0.70634  0.86633  1.0000
  S   S441      1.0  0.37035  0.71654  0.88905  1.0000
  C   C1266     1.0  0.34467  0.54181  0.50498  1.0000
  Fe  Fe229     1.0  0.38767  0.68394  0.89299  1.0000
  S   S442      1.0  0.42196  0.68048  0.89188  1.0000
  Fe  Fe230     1.0  0.34519  0.70400  0.91275  1.0000
  H   H1276     1.0  0.55930  0.69331  0.84045  1.0000
  S   S443      1.0  0.37569  0.67472  0.86832  1.0000
  H   H1277     1.0  0.32920  0.55156  0.50360  1.0000
  C   C1267     1.0  0.33439  0.62141  0.62670  1.0000
  H   H1278     1.0  0.57952  0.67412  0.93264  1.0000
  C   C1268     1.0  0.34049  0.59587  0.71475  1.0000
  H   H1279     1.0  0.32830  0.58143  0.85926  1.0000
  H   H1280     1.0  0.47613  0.71864  0.82056  1.0000
  H   H1281     1.0  0.36850  0.51231  0.74262  1.0000
  Fe  Fe231     1.0  0.60716  0.61693  0.96694  1.0000
  H   H1282     1.0  0.42504  0.71297  0.91586  1.0000
  S   S444      1.0  0.36266  0.51358  0.82490  1.0000
  C   C1269     1.0  0.39086  0.60738  0.58344  1.0000
  C   C1270     1.0  0.37909  0.59154  0.59084  1.0000
  C   C1271     1.0  0.36623  0.58748  0.57862  1.0000
  C   C1272     1.0  0.36531  0.59890  0.55867  1.0000
  C   C1273     1.0  0.37729  0.61455  0.55109  1.0000
  C   C1274     1.0  0.38993  0.61883  0.56348  1.0000
  H   H1283     1.0  0.37993  0.58230  0.60595  1.0000
  H   H1284     1.0  0.35704  0.57536  0.58466  1.0000
  H   H1285     1.0  0.37674  0.62348  0.53576  1.0000
  H   H1286     1.0  0.39901  0.63109  0.55757  1.0000
  H   H1287     1.0  0.33088  0.60931  0.64042  1.0000
  C   C1275     1.0  0.39750  0.59267  0.73191  1.0000
  C   C1276     1.0  0.32514  0.56492  0.72127  1.0000
  C   C1277     1.0  0.45356  0.64186  0.84189  1.0000
  C   C1278     1.0  0.43671  0.63588  0.85656  1.0000
  C   C1279     1.0  0.42706  0.64775  0.87188  1.0000
  C   C1280     1.0  0.43469  0.66526  0.87311  1.0000
  C   C1281     1.0  0.45200  0.67093  0.85887  1.0000
  C   C1282     1.0  0.46126  0.65940  0.84304  1.0000
  H   H1288     1.0  0.43090  0.62215  0.85594  1.0000
  H   H1289     1.0  0.41385  0.64317  0.88296  1.0000
  H   H1290     1.0  0.45788  0.68448  0.85979  1.0000
  H   H1291     1.0  0.47422  0.66409  0.83171  1.0000
  C   C1283     1.0  0.47214  0.63214  0.71398  1.0000
  C   C1284     1.0  0.46275  0.63697  0.69630  1.0000
  C   C1285     1.0  0.45521  0.62174  0.68966  1.0000
  C   C1286     1.0  0.45740  0.60131  0.70037  1.0000
  C   C1287     1.0  0.46655  0.59652  0.71822  1.0000
  C   C1288     1.0  0.47361  0.61188  0.72517  1.0000
  H   H1292     1.0  0.46155  0.65255  0.68748  1.0000
  H   H1293     1.0  0.44837  0.62568  0.67583  1.0000
  H   H1294     1.0  0.46840  0.58077  0.72663  1.0000
  H   H1295     1.0  0.48078  0.60789  0.73879  1.0000
  C   C1289     1.0  0.60949  0.63300  0.80843  1.0000
  C   C1290     1.0  0.61484  0.61512  0.79947  1.0000
  C   C1291     1.0  0.60097  0.61023  0.78882  1.0000
  C   C1292     1.0  0.58168  0.62314  0.78709  1.0000
  C   C1293     1.0  0.57642  0.64110  0.79594  1.0000
  C   C1294     1.0  0.59025  0.64598  0.80657  1.0000
  H   H1296     1.0  0.62961  0.60503  0.80080  1.0000
  H   H1297     1.0  0.60520  0.59635  0.78199  1.0000
  H   H1298     1.0  0.56179  0.65133  0.79444  1.0000
  H   H1299     1.0  0.58611  0.65995  0.81326  1.0000
  H   H1300     1.0  0.33503  0.63165  0.66282  1.0000
  H   H1301     1.0  0.60539  0.56072  0.97191  1.0000
  H   H1302     1.0  0.44092  0.71047  0.93523  1.0000
  H   H1303     1.0  0.39537  0.70936  0.84750  1.0000
  C   C1295     1.0  0.36152  0.53905  0.56300  1.0000
  C   C1296     1.0  0.39529  0.69316  0.94555  1.0000
  C   C1297     1.0  0.32840  0.51226  0.70905  1.0000
  S   S445      1.0  0.62664  0.64161  0.95597  1.0000
  H   H1304     1.0  0.64226  0.59167  0.95001  1.0000
  H   H1305     1.0  0.53937  0.67386  0.82618  1.0000
  C   C1298     1.0  0.33107  0.62544  0.87625  1.0000
  H   H1306     1.0  0.61856  0.63358  0.86822  1.0000
  C   C1299     1.0  0.33542  0.54278  0.54204  1.0000
  C   C1300     1.0  0.62295  0.59256  0.92779  1.0000
  C   C1301     1.0  0.62259  0.58913  0.90807  1.0000
  S   S446      1.0  0.32912  0.69651  0.88945  1.0000
  H   H1307     1.0  0.40243  0.60111  0.74207  1.0000
  H   H1308     1.0  0.43452  0.66571  0.80478  1.0000
  C   C1302     1.0  0.35862  0.65070  0.65419  1.0000
  C   C1303     1.0  0.56760  0.71053  0.78155  1.0000
  C   C1304     1.0  0.54937  0.70492  0.77876  1.0000
  C   C1305     1.0  0.53011  0.71748  0.78364  1.0000
  H   H1309     1.0  0.34432  0.57573  0.69262  1.0000
  H   H1310     1.0  0.58250  0.70088  0.77745  1.0000
  H   H1311     1.0  0.55030  0.69103  0.77254  1.0000
  C   C1306     1.0  0.62739  0.70759  0.91236  1.0000
  C   C1307     1.0  0.61922  0.69787  0.93213  1.0000
  C   C1308     1.0  0.38021  0.56528  0.75483  1.0000
  C   C1309     1.0  0.38043  0.54481  0.76528  1.0000
  C   C1310     1.0  0.39126  0.50437  0.59985  1.0000
  C   C1311     1.0  0.40460  0.51777  0.60043  1.0000
  C   C1312     1.0  0.40381  0.52533  0.61860  1.0000
  C   C1313     1.0  0.38995  0.51918  0.63643  1.0000
  C   C1314     1.0  0.37622  0.50622  0.63569  1.0000
  H   H1312     1.0  0.46937  0.71825  0.84814  1.0000
  H   H1313     1.0  0.41581  0.52211  0.58687  1.0000
  C   C1315     1.0  0.37679  0.53778  0.54545  1.0000
  H   H1314     1.0  0.58819  0.64675  0.93557  1.0000
  N   N108      1.0  0.32303  0.50903  0.73008  1.0000
  C   C1316     1.0  0.59485  0.73132  0.91056  1.0000
  C   C1317     1.0  0.54296  0.69904  0.83981  1.0000
  H   H1315     1.0  0.64315  0.70220  0.90553  1.0000
  H   H1316     1.0  0.36615  0.57665  0.75739  1.0000
  C   C1318     1.0  0.39847  0.53010  0.76218  1.0000
  H   H1317     1.0  0.36491  0.68534  0.95874  1.0000
  C   C1319     1.0  0.61255  0.64722  0.87545  1.0000
  H   H1318     1.0  0.34811  0.50281  0.79130  1.0000
  H   H1319     1.0  0.42908  0.72132  0.83748  1.0000
  C   C1320     1.0  0.33753  0.57846  0.70810  1.0000
  C   C1321     1.0  0.39686  0.72316  0.83605  1.0000
  S   S447      1.0  0.62610  0.63968  0.82234  1.0000
  S   S448      1.0  0.37102  0.59766  0.48338  1.0000
  H   H1320     1.0  0.36591  0.53794  0.57787  1.0000
  S   S449      1.0  0.32647  0.56176  0.80125  1.0000
  N   N109      1.0  0.35048  0.54160  0.52486  1.0000
  C   C1322     1.0  0.42079  0.67660  0.81109  1.0000
  H   H1321     1.0  0.33359  0.61300  0.73985  1.0000
  H   H1322     1.0  0.34403  0.52574  0.50348  1.0000
  H   H1323     1.0  0.55132  0.66143  0.49042  1.0000
  H   H1324     1.0  0.35597  0.54828  0.49185  1.0000
  C   C1323     1.0  0.60115  0.64541  0.89554  1.0000
  H   H1325     1.0  0.64089  0.58020  0.87987  1.0000
  H   H1326     1.0  0.41923  0.69102  0.79941  1.0000
  H   H1327     1.0  0.35259  0.51768  0.68286  1.0000
  H   H1328     1.0  0.38299  0.53740  0.51295  1.0000
  C   C1324     1.0  0.37675  0.69373  0.95987  1.0000
  C   C1325     1.0  0.36293  0.51557  0.71162  1.0000
  H   H1329     1.0  0.39894  0.51420  0.77029  1.0000
  S   S450      1.0  0.39389  0.49395  0.57727  1.0000
  N   N110      1.0  0.54393  0.59371  0.73217  1.0000
  C   C1326     1.0  0.53228  0.58526  0.72274  1.0000
  C   C1327     1.0  0.54565  0.61422  0.72638  1.0000
  C   C1328     1.0  0.52245  0.59730  0.70668  1.0000
  C   C1329     1.0  0.53578  0.62677  0.71058  1.0000
  C   C1330     1.0  0.52421  0.61819  0.70064  1.0000
  C   C1331     1.0  0.55369  0.58112  0.74935  1.0000
  H   H1330     1.0  0.53034  0.56919  0.72772  1.0000
  H   H1331     1.0  0.55445  0.62107  0.73418  1.0000
  H   H1332     1.0  0.51292  0.59072  0.69942  1.0000
  H   H1333     1.0  0.53658  0.64318  0.70647  1.0000
  H   H1334     1.0  0.51593  0.62794  0.68881  1.0000
  H   H1335     1.0  0.55556  0.56424  0.74936  1.0000
  H   H1336     1.0  0.56942  0.58469  0.74841  1.0000
  H   H1337     1.0  0.54415  0.58467  0.76426  1.0000
  H   H1338     1.0  0.58922  0.69553  0.90066  1.0000
  C   C1332     1.0  0.51093  0.69616  0.83041  1.0000
  H   H1339     1.0  0.36550  0.50137  0.64943  1.0000
  H   H1340     1.0  0.43015  0.52468  0.74629  1.0000
  C   C1333     1.0  0.42882  0.70394  0.93088  1.0000
  C   C1334     1.0  0.59602  0.68187  0.89380  1.0000
  H   H1341     1.0  0.39304  0.53547  0.54679  1.0000
  H   H1342     1.0  0.36632  0.48871  0.61708  1.0000
  C   C1335     1.0  0.37327  0.70573  0.97529  1.0000
  H   H1343     1.0  0.61000  0.69957  0.86549  1.0000
  S   S451      1.0  0.33529  0.48624  0.58462  1.0000
  H   H1344     1.0  0.39789  0.68393  0.93348  1.0000
  C   C1336     1.0  0.41602  0.53598  0.74878  1.0000
  S   S452      1.0  0.34744  0.64217  0.49730  1.0000
  C   C1337     1.0  0.33715  0.50913  0.74210  1.0000
  C   C1338     1.0  0.59888  0.70494  0.94129  1.0000
  H   H1345     1.0  0.62882  0.68521  0.94045  1.0000
  C   C1339     1.0  0.37671  0.49899  0.61739  1.0000
  H   H1346     1.0  0.42917  0.56112  0.72861  1.0000
  C   C1340     1.0  0.58084  0.66034  0.92534  1.0000
  C   C1341     1.0  0.34840  0.51550  0.69952  1.0000
  N   N111      1.0  0.40194  0.66735  0.81591  1.0000
  C   C1342     1.0  0.38297  0.67992  0.81557  1.0000
  C   C1343     1.0  0.40329  0.64636  0.82213  1.0000
  C   C1344     1.0  0.36469  0.67154  0.82158  1.0000
  C   C1345     1.0  0.38533  0.63746  0.82840  1.0000
  C   C1346     1.0  0.36592  0.65017  0.82810  1.0000
  H   H1347     1.0  0.38185  0.69660  0.81106  1.0000
  H   H1348     1.0  0.41833  0.63638  0.82246  1.0000
  H   H1349     1.0  0.34968  0.68168  0.82174  1.0000
  H   H1350     1.0  0.38643  0.62087  0.83378  1.0000
  H   H1351     1.0  0.35188  0.64347  0.83318  1.0000
  H   H1352     1.0  0.42381  0.68038  0.82538  1.0000
  C   C1347     1.0  0.35731  0.51238  0.73307  1.0000
  H   H1353     1.0  0.38585  0.66133  0.60567  1.0000
  H   H1354     1.0  0.34233  0.61305  0.61375  1.0000
  N   N112      1.0  0.59326  0.66260  0.90453  1.0000
  Fe  Fe232     1.0  0.33073  0.53073  0.82160  1.0000
  H   H1355     1.0  0.50244  0.68785  0.82378  1.0000
  N   N113      1.0  0.34766  0.63449  0.63065  1.0000
  H   H1356     1.0  0.36680  0.54043  0.77594  1.0000
  H   H1357     1.0  0.40831  0.59396  0.71685  1.0000
  C   C1348     1.0  0.64117  0.58252  0.89524  1.0000
  S   S453      1.0  0.32788  0.72212  0.93826  1.0000
  C   C1349     1.0  0.41534  0.55661  0.73877  1.0000
  H   H1358     1.0  0.38182  0.60044  0.72869  1.0000
  C   C1350     1.0  0.40651  0.71631  0.96148  1.0000
  H   H1359     1.0  0.62454  0.66842  0.84892  1.0000
  C   C1351     1.0  0.56283  0.65313  0.47966  1.0000
  H   H1360     1.0  0.54288  0.63279  0.47729  1.0000
  C   C1352     1.0  0.61584  0.66678  0.86458  1.0000
  C   C1353     1.0  0.34592  0.63842  0.65014  1.0000
  C   C1354     1.0  0.64186  0.58898  0.93483  1.0000
  C   C1355     1.0  0.53179  0.68814  0.83179  1.0000
  H   H1361     1.0  0.37853  0.51801  0.70436  1.0000
  C   C1356     1.0  0.34069  0.54144  0.56136  1.0000
  C   C1357     1.0  0.37431  0.65542  0.61823  1.0000
  C   C1358     1.0  0.33150  0.59942  0.73474  1.0000
  N   N114      1.0  0.39754  0.57091  0.74173  1.0000
  H   H1362     1.0  0.56501  0.65813  0.92476  1.0000
  H   H1363     1.0  0.43563  0.68773  0.92863  1.0000
  C   C1359     1.0  0.60759  0.68424  0.87381  1.0000
  C   C1360     1.0  0.37350  0.49588  0.80808  1.0000
  C   C1361     1.0  0.37098  0.53888  0.52641  1.0000
  C   C1362     1.0  0.53304  0.71748  0.84673  1.0000
  H   H1364     1.0  0.33278  0.50693  0.75875  1.0000
  C   C1363     1.0  0.36285  0.49318  0.79327  1.0000
  H   H1365     1.0  0.36255  0.64030  0.59919  1.0000
  H   H1366     1.0  0.41779  0.72563  0.96197  1.0000
  C   C1364     1.0  0.36121  0.64327  0.61469  1.0000
  S   S454      1.0  0.58804  0.69264  0.96585  1.0000
  H   H1367     1.0  0.34598  0.59348  0.88243  1.0000
  S   S455      1.0  0.34258  0.63291  0.89438  1.0000
  N   N115      1.0  0.50170  0.71479  0.83627  1.0000
  S   S456      1.0  0.35548  0.72653  0.83536  1.0000
  H   H1368     1.0  0.32875  0.54216  0.57498  1.0000
  H   H1369     1.0  0.57105  0.72744  0.93759  1.0000
  C   C1365     1.0  0.58678  0.72183  0.93054  1.0000
  H   H1370     1.0  0.35764  0.65318  0.66983  1.0000
  H   H1371     1.0  0.54131  0.72605  0.85326  1.0000
  C   C1366     1.0  0.33514  0.60450  0.87389  1.0000
  C   C1367     1.0  0.61520  0.72416  0.90141  1.0000
  C   C1368     1.0  0.32517  0.59763  0.86073  1.0000
  H   H1372     1.0  0.40135  0.48591  0.82135  1.0000
  H   H1373     1.0  0.33381  0.48604  0.66230  1.0000
  C   C1369     1.0  0.51232  0.72520  0.84481  1.0000
  C   C1370     1.0  0.41603  0.72991  0.83033  1.0000
  C   C1371     1.0  0.56666  0.72840  0.78975  1.0000
  C   C1372     1.0  0.56465  0.73128  0.48727  1.0000
  C   C1373     1.0  0.39298  0.48379  0.81004  1.0000
  H   H1374     1.0  0.58588  0.67170  0.47827  1.0000
  H   H1375     1.0  0.59618  0.75285  0.31159  1.0000
  Fe  Fe233     1.0  0.39529  0.79528  0.34712  1.0000
  S   S457      1.0  0.39314  0.79023  0.38159  1.0000
  Fe  Fe234     1.0  0.42666  0.75595  0.34285  1.0000
  C   C1374     1.0  0.58313  0.77664  0.28853  1.0000
  S   S458      1.0  0.37755  0.91565  0.32433  1.0000
  Fe  Fe235     1.0  0.39311  0.75670  0.38084  1.0000
  H   H1376     1.0  0.38888  0.91481  0.05117  1.0000
  Fe  Fe236     1.0  0.42780  0.78099  0.37460  1.0000
  S   S459      1.0  0.45115  0.78954  0.38921  1.0000
  S   S460      1.0  0.39201  0.76255  0.34693  1.0000
  S   S461      1.0  0.43005  0.78889  0.34032  1.0000
  Fe  Fe237     1.0  0.52385  0.82851  0.30062  1.0000
  S   S462      1.0  0.52939  0.84546  0.32375  1.0000
  S   S463      1.0  0.52781  0.79374  0.30396  1.0000
  Fe  Fe238     1.0  0.50984  0.86833  0.27151  1.0000
  S   S464      1.0  0.51550  0.88871  0.29181  1.0000
  S   S465      1.0  0.49433  0.88329  0.24379  1.0000
  Fe  Fe239     1.0  0.54495  0.86563  0.29622  1.0000
  S   S466      1.0  0.57888  0.86758  0.29536  1.0000
  Fe  Fe240     1.0  0.49990  0.86678  0.31739  1.0000
  S   S467      1.0  0.47183  0.87607  0.34037  1.0000
  S   S468      1.0  0.54071  0.84734  0.27316  1.0000
  S   S469      1.0  0.49277  0.84785  0.29699  1.0000
  H   H1377     1.0  0.44307  0.91741  0.33674  1.0000
  H   H1378     1.0  0.48009  0.79356  0.30971  1.0000
  C   C1375     1.0  0.43021  0.91544  0.32959  1.0000
  C   C1376     1.0  0.60246  0.76225  0.43026  1.0000
  H   H1379     1.0  0.61202  0.75288  0.41927  1.0000
  H   H1380     1.0  0.35403  0.92962  0.09839  1.0000
  Fe  Fe241     1.0  0.34983  0.83205  0.03033  1.0000
  S   S470      1.0  0.36550  0.84980  0.04626  1.0000
  C   C1377     1.0  0.32571  0.88928  0.22190  1.0000
  S   S471      1.0  0.35531  0.83462  0.99580  1.0000
  Fe  Fe242     1.0  0.39897  0.89195  0.15927  1.0000
  S   S472      1.0  0.37276  0.87883  0.15386  1.0000
  S   S473      1.0  0.40366  0.92422  0.14421  1.0000
  Fe  Fe243     1.0  0.41318  0.85482  0.19070  1.0000
  S   S474      1.0  0.38829  0.83842  0.18733  1.0000
  S   S475      1.0  0.43225  0.83888  0.21565  1.0000
  Fe  Fe244     1.0  0.39606  0.84947  0.15319  1.0000
  S   S476      1.0  0.39832  0.82714  0.13133  1.0000
  Fe  Fe245     1.0  0.36732  0.86913  0.18820  1.0000
  H   H1381     1.0  0.35950  0.79336  0.13866  1.0000
  S   S477      1.0  0.42307  0.86322  0.15631  1.0000
  S   S478      1.0  0.39147  0.88481  0.19386  1.0000
  C   C1378     1.0  0.37139  0.84234  0.07144  1.0000
  C   C1379     1.0  0.36842  0.85758  0.08382  1.0000
  C   C1380     1.0  0.37619  0.85308  0.10246  1.0000
  C   C1381     1.0  0.38720  0.83332  0.10871  1.0000
  C   C1382     1.0  0.38972  0.81796  0.09659  1.0000
  C   C1383     1.0  0.38172  0.82238  0.07810  1.0000
  H   H1382     1.0  0.36069  0.87315  0.07862  1.0000
  H   H1383     1.0  0.37412  0.86503  0.11167  1.0000
  H   H1384     1.0  0.39826  0.80264  0.10133  1.0000
  H   H1385     1.0  0.38450  0.81066  0.06848  1.0000
  C   C1384     1.0  0.47704  0.87077  0.23622  1.0000
  C   C1385     1.0  0.46509  0.88169  0.22120  1.0000
  C   C1386     1.0  0.45142  0.87208  0.21462  1.0000
  C   C1387     1.0  0.44972  0.85140  0.22292  1.0000
  C   C1388     1.0  0.46158  0.84052  0.23801  1.0000
  C   C1389     1.0  0.47510  0.85017  0.24471  1.0000
  H   H1386     1.0  0.46659  0.89758  0.21448  1.0000
  H   H1387     1.0  0.44237  0.88063  0.20300  1.0000
  H   H1388     1.0  0.46047  0.82447  0.24440  1.0000
  H   H1389     1.0  0.48443  0.84152  0.25604  1.0000
  C   C1390     1.0  0.58997  0.88306  0.30711  1.0000
  C   C1391     1.0  0.61156  0.87873  0.30678  1.0000
  C   C1392     1.0  0.62123  0.89088  0.31535  1.0000
  C   C1393     1.0  0.60945  0.90782  0.32401  1.0000
  C   C1394     1.0  0.58783  0.91207  0.32452  1.0000
  C   C1395     1.0  0.57809  0.89968  0.31628  1.0000
  H   H1390     1.0  0.62097  0.86608  0.29956  1.0000
  H   H1391     1.0  0.63787  0.88747  0.31475  1.0000
  H   H1392     1.0  0.57856  0.92519  0.33111  1.0000
  H   H1393     1.0  0.56150  0.90329  0.31655  1.0000
  C   C1396     1.0  0.57841  0.78597  0.45874  1.0000
  H   H1394     1.0  0.41539  0.92381  0.33729  1.0000
  H   H1395     1.0  0.55758  0.74644  0.43406  1.0000
  C   C1397     1.0  0.42807  0.74672  0.42878  1.0000
  S   S479      1.0  0.33512  0.86991  0.20658  1.0000
  H   H1396     1.0  0.34663  0.97424  0.22161  1.0000
  H   H1397     1.0  0.49876  0.77244  0.37459  1.0000
  H   H1398     1.0  0.35405  0.90157  0.21597  1.0000
  H   H1399     1.0  0.34055  0.92703  0.23949  1.0000
  H   H1400     1.0  0.55271  0.77525  0.45240  1.0000
  H   H1401     1.0  0.40319  0.86569  0.24241  1.0000
  S   S480      1.0  0.37074  0.73864  0.40398  1.0000
  C   C1398     1.0  0.36578  0.86222  0.31370  1.0000
  S   S481      1.0  0.36526  0.97066  0.29319  1.0000
  H   H1402     1.0  0.35702  0.85778  0.30407  1.0000
  C   C1399     1.0  0.45631  0.81411  0.37668  1.0000
  C   C1400     1.0  0.44142  0.82833  0.36674  1.0000
  C   C1401     1.0  0.44586  0.84778  0.35626  1.0000
  C   C1402     1.0  0.46543  0.85272  0.35518  1.0000
  C   C1403     1.0  0.48040  0.83835  0.36487  1.0000
  C   C1404     1.0  0.47571  0.81922  0.37595  1.0000
  H   H1403     1.0  0.42638  0.82443  0.36741  1.0000
  H   H1404     1.0  0.43430  0.85879  0.34869  1.0000
  H   H1405     1.0  0.49556  0.84211  0.36399  1.0000
  H   H1406     1.0  0.48725  0.80831  0.38365  1.0000
  C   C1405     1.0  0.35271  0.95881  0.10771  1.0000
  C   C1406     1.0  0.36020  0.93767  0.10745  1.0000
  C   C1407     1.0  0.37553  0.92690  0.11901  1.0000
  C   C1408     1.0  0.38390  0.93737  0.13032  1.0000
  C   C1409     1.0  0.37656  0.95856  0.13044  1.0000
  H   H1407     1.0  0.34975  0.82577  0.15338  1.0000
  C   C1410     1.0  0.46546  0.73915  0.41603  1.0000
  H   H1408     1.0  0.38122  0.91062  0.11872  1.0000
  C   C1411     1.0  0.35996  0.94346  0.18522  1.0000
  C   C1412     1.0  0.56254  0.75440  0.35445  1.0000
  H   H1409     1.0  0.39671  0.81887  0.22906  1.0000
  C   C1413     1.0  0.54260  0.75723  0.32746  1.0000
  C   C1414     1.0  0.54074  0.77889  0.32383  1.0000
  C   C1415     1.0  0.54976  0.78824  0.33559  1.0000
  C   C1416     1.0  0.56080  0.77601  0.35075  1.0000
  C   C1417     1.0  0.37731  0.84691  0.32656  1.0000
  C   C1418     1.0  0.39111  0.80542  0.26124  1.0000
  H   H1410     1.0  0.54881  0.80481  0.33266  1.0000
  H   H1411     1.0  0.56810  0.78332  0.35953  1.0000
  C   C1419     1.0  0.62730  0.85464  0.44908  1.0000
  C   C1420     1.0  0.63221  0.85765  0.42756  1.0000
  C   C1421     1.0  0.34117  0.80529  0.11440  1.0000
  C   C1422     1.0  0.60364  0.81890  0.31547  1.0000
  H   H1412     1.0  0.39475  0.88448  0.03329  1.0000
  C   C1423     1.0  0.63587  0.86541  0.45997  1.0000
  S   S482      1.0  0.42765  0.74722  0.37661  1.0000
  C   C1424     1.0  0.38844  0.85283  0.33910  1.0000
  H   H1413     1.0  0.49491  0.77266  0.29726  1.0000
  N   N116      1.0  0.35631  0.83660  0.26432  1.0000
  C   C1425     1.0  0.33839  0.90247  0.22430  1.0000
  C   C1426     1.0  0.36905  0.83545  0.24566  1.0000
  H   H1414     1.0  0.59929  0.90375  0.44160  1.0000
  H   H1415     1.0  0.58978  0.82754  0.32437  1.0000
  Fe  Fe246     1.0  0.34669  0.80289  0.00088  1.0000
  S   S483      1.0  0.33370  0.97200  0.09295  1.0000
  S   S484      1.0  0.34472  0.79899  0.03549  1.0000
  S   S485      1.0  0.37781  0.82063  0.32602  1.0000
  H   H1416     1.0  0.36560  0.84659  0.23204  1.0000
  N   N117      1.0  0.41683  0.87923  0.08318  1.0000
  C   C1427     1.0  0.40597  0.89790  0.07524  1.0000
  C   C1428     1.0  0.42066  0.86270  0.07310  1.0000
  C   C1429     1.0  0.39794  0.90014  0.05714  1.0000
  C   C1430     1.0  0.41304  0.86446  0.05486  1.0000
  C   C1431     1.0  0.40142  0.88324  0.04699  1.0000
  C   C1432     1.0  0.42499  0.87691  0.10226  1.0000
  H   H1417     1.0  0.40326  0.91115  0.08300  1.0000
  H   H1418     1.0  0.42909  0.84783  0.07951  1.0000
  H   H1419     1.0  0.41534  0.85110  0.04733  1.0000
  H   H1420     1.0  0.41689  0.88923  0.11144  1.0000
  H   H1421     1.0  0.42278  0.86173  0.11221  1.0000
  H   H1422     1.0  0.44182  0.87770  0.09861  1.0000
  H   H1423     1.0  0.40474  0.79330  0.26002  1.0000
  C   C1433     1.0  0.37800  0.80667  0.28018  1.0000
  H   H1424     1.0  0.32786  0.85233  0.25497  1.0000
  C   C1434     1.0  0.48244  0.77652  0.31036  1.0000
  C   C1435     1.0  0.36219  0.95396  0.20023  1.0000
  C   C1436     1.0  0.55321  0.74501  0.34298  1.0000
  H   H1425     1.0  0.44507  0.94130  0.24814  1.0000
  H   H1426     1.0  0.60638  0.94652  0.41537  1.0000
  C   C1437     1.0  0.38805  0.87401  0.33872  1.0000
  C   C1438     1.0  0.41707  0.85205  0.26946  1.0000
  H   H1427     1.0  0.42800  0.76270  0.42105  1.0000
  H   H1428     1.0  0.41265  0.95687  0.26934  1.0000
  H   H1429     1.0  0.56896  0.79500  0.47008  1.0000
  H   H1430     1.0  0.43530  0.84247  0.31439  1.0000
  H   H1431     1.0  0.35060  0.82332  0.29636  1.0000
  H   H1432     1.0  0.38137  0.79561  0.29390  1.0000
  H   H1433     1.0  0.42375  0.82541  0.30486  1.0000
  H   H1434     1.0  0.46587  0.73986  0.39932  1.0000
  H   H1435     1.0  0.53597  0.74988  0.31817  1.0000
  C   C1439     1.0  0.40713  0.86843  0.25633  1.0000
  H   H1436     1.0  0.33867  0.93728  0.16824  1.0000
  Fe  Fe247     1.0  0.36298  0.96641  0.26176  1.0000
  S   S486      1.0  0.38747  0.97376  0.23459  1.0000
  C   C1440     1.0  0.57946  0.79787  0.28082  1.0000
  H   H1437     1.0  0.63129  0.93566  0.40172  1.0000
  H   H1438     1.0  0.61483  0.81114  0.32596  1.0000
  C   C1441     1.0  0.58924  0.88798  0.42186  1.0000
  C   C1442     1.0  0.58921  0.88646  0.40150  1.0000
  H   H1439     1.0  0.62560  0.84937  0.41908  1.0000
  H   H1440     1.0  0.39508  0.90122  0.25096  1.0000
  C   C1443     1.0  0.43319  0.83800  0.30005  1.0000
  H   H1441     1.0  0.62446  0.92675  0.42865  1.0000
  C   C1444     1.0  0.61202  0.77313  0.44014  1.0000
  C   C1445     1.0  0.34048  0.94538  0.17996  1.0000
  S   S487      1.0  0.35834  0.93351  0.27158  1.0000
  C   C1446     1.0  0.36069  0.96920  0.11945  1.0000
  Fe  Fe248     1.0  0.35766  0.93858  0.30352  1.0000
  H   H1442     1.0  0.37330  0.93375  0.17778  1.0000
  H   H1443     1.0  0.46652  0.75472  0.41864  1.0000
  H   H1444     1.0  0.60712  0.79345  0.46231  1.0000
  N   N118      1.0  0.42265  0.85548  0.28671  1.0000
  C   C1447     1.0  0.41867  0.87505  0.29130  1.0000
  C   C1448     1.0  0.40851  0.89174  0.27864  1.0000
  C   C1449     1.0  0.40281  0.88839  0.26100  1.0000
  H   H1445     1.0  0.42293  0.87779  0.30504  1.0000
  H   H1446     1.0  0.40470  0.90707  0.28274  1.0000
  H   H1447     1.0  0.44877  0.83204  0.29164  1.0000
  N   N119      1.0  0.59720  0.80412  0.30587  1.0000
  C   C1450     1.0  0.60080  0.78331  0.31360  1.0000
  C   C1451     1.0  0.58666  0.81147  0.28972  1.0000
  C   C1452     1.0  0.59392  0.76925  0.30498  1.0000
  C   C1453     1.0  0.59987  0.78511  0.45440  1.0000
  H   H1448     1.0  0.60849  0.77747  0.32686  1.0000
  C   C1454     1.0  0.49046  0.77523  0.34472  1.0000
  H   H1449     1.0  0.61126  0.83039  0.30343  1.0000
  H   H1450     1.0  0.35623  0.89498  0.30354  1.0000
  C   C1455     1.0  0.45213  0.91429  0.29568  1.0000
  C   C1456     1.0  0.36529  0.88333  0.31340  1.0000
  H   H1451     1.0  0.46336  0.90238  0.30296  1.0000
  C   C1457     1.0  0.65288  0.88341  0.42752  1.0000
  H   H1452     1.0  0.42064  0.83662  0.26554  1.0000
  H   H1453     1.0  0.47059  0.91413  0.26522  1.0000
  H   H1454     1.0  0.34599  0.79128  0.10770  1.0000
  N   N120      1.0  0.60839  0.91610  0.40977  1.0000
  C   C1458     1.0  0.60810  0.91496  0.38977  1.0000
  C   C1459     1.0  0.59892  0.90302  0.42574  1.0000
  C   C1460     1.0  0.59864  0.90006  0.38533  1.0000
  H   H1455     1.0  0.37728  0.95247  0.20451  1.0000
  H   H1456     1.0  0.62877  0.77199  0.43714  1.0000
  C   C1461     1.0  0.61799  0.93211  0.41412  1.0000
  H   H1457     1.0  0.61532  0.92553  0.37709  1.0000
  H   H1458     1.0  0.48736  0.79205  0.34238  1.0000
  H   H1459     1.0  0.59869  0.89908  0.36941  1.0000
  H   H1460     1.0  0.58351  0.82800  0.28384  1.0000
  H   H1461     1.0  0.64799  0.87445  0.40034  1.0000
  C   C1462     1.0  0.64856  0.87989  0.44916  1.0000
  C   C1463     1.0  0.50143  0.74259  0.36603  1.0000
  C   C1464     1.0  0.37653  0.88929  0.32581  1.0000
  N   N121      1.0  0.43423  0.92284  0.30725  1.0000
  C   C1465     1.0  0.42020  0.93803  0.29804  1.0000
  C   C1466     1.0  0.42383  0.94488  0.27665  1.0000
  C   C1467     1.0  0.45629  0.92084  0.27430  1.0000
  C   C1468     1.0  0.44200  0.93615  0.26474  1.0000
  H   H1462     1.0  0.40601  0.94483  0.30720  1.0000
  C   C1469     1.0  0.36056  0.82244  0.28146  1.0000
  S   S488      1.0  0.44819  0.73667  0.32129  1.0000
  H   H1463     1.0  0.42913  0.89870  0.33282  1.0000
  H   H1464     1.0  0.38315  0.96672  0.13903  1.0000
  N   N122      1.0  0.58141  0.76297  0.43480  1.0000
  C   C1470     1.0  0.56937  0.77476  0.44871  1.0000
  C   C1471     1.0  0.38660  0.81984  0.24385  1.0000
  H   H1465     1.0  0.65451  0.88880  0.45756  1.0000
  H   H1466     1.0  0.39725  0.84112  0.34916  1.0000
  S   S489      1.0  0.62103  0.92426  0.33409  1.0000
  C   C1472     1.0  0.34880  0.80632  0.13194  1.0000
  H   H1467     1.0  0.57693  0.76604  0.28225  1.0000
  C   C1473     1.0  0.49261  0.74373  0.33283  1.0000
  H   H1468     1.0  0.46784  0.77242  0.30835  1.0000
  H   H1469     1.0  0.39488  0.75177  0.43959  1.0000
  N   N123      1.0  0.48852  0.76495  0.32985  1.0000
  C   C1474     1.0  0.49703  0.76421  0.36297  1.0000
  C   C1475     1.0  0.64499  0.87192  0.41685  1.0000
  C   C1476     1.0  0.57160  0.75179  0.42402  1.0000
  H   H1470     1.0  0.39664  0.87853  0.34849  1.0000
  H   H1471     1.0  0.57050  0.80382  0.26847  1.0000
  C   C1477     1.0  0.34335  0.82457  0.14020  1.0000
  S   S490      1.0  0.60844  0.83943  0.46167  1.0000
  H   H1472     1.0  0.58202  0.87469  0.39823  1.0000
  N   N124      1.0  0.32830  0.82191  0.10548  1.0000
  C   C1478     1.0  0.34477  0.96623  0.20989  1.0000
  C   C1479     1.0  0.33039  0.84152  0.13088  1.0000
  H   H1473     1.0  0.40746  0.73519  0.31407  1.0000
  C   C1480     1.0  0.33077  0.91684  0.23778  1.0000
  H   H1474     1.0  0.58241  0.87715  0.43459  1.0000
  C   C1481     1.0  0.40934  0.74070  0.43940  1.0000
  H   H1475     1.0  0.49100  0.73560  0.32107  1.0000
  H   H1476     1.0  0.50673  0.73384  0.37999  1.0000
  S   S491      1.0  0.57761  0.73936  0.37244  1.0000
  H   H1477     1.0  0.56711  0.76195  0.40975  1.0000
  H   H1478     1.0  0.33306  0.82532  0.07293  1.0000
  N   N125      1.0  0.32566  0.96791  0.20479  1.0000
  S   S492      1.0  0.32930  0.98039  0.26410  1.0000
  H   H1479     1.0  0.32444  0.76813  0.98737  1.0000
  H   H1480     1.0  0.58228  0.73767  0.41960  1.0000
  H   H1481     1.0  0.32649  0.85591  0.13694  1.0000
  S   S493      1.0  0.36497  0.78120  0.97869  1.0000
  Fe  Fe249     1.0  0.33076  0.98178  0.29676  1.0000
  Fe  Fe250     1.0  0.65415  0.91734  0.34065  1.0000
  H   H1482     1.0  0.34304  0.86862  0.26145  1.0000
  C   C1482     1.0  0.33811  0.85320  0.26571  1.0000
  H   H1483     1.0  0.32873  0.85218  0.28152  1.0000
  Fe  Fe251     1.0  0.32459  0.94763  0.27673  1.0000
  S   S494      1.0  0.32318  0.94992  0.30991  1.0000
  C   C1483     1.0  0.32334  0.95763  0.19008  1.0000
  C   C1484     1.0  0.32308  0.83996  0.11332  1.0000
  Fe  Fe252     1.0  0.55779  0.77084  0.85252  1.0000
  S   S495      1.0  0.56523  0.78412  0.81899  1.0000
  S   S496      1.0  0.52472  0.76820  0.86645  1.0000
  Fe  Fe253     1.0  0.60285  0.75531  0.85651  1.0000
  S   S497      1.0  0.61404  0.76703  0.82291  1.0000
  C   C1485     1.0  0.64875  0.89838  0.62601  1.0000
  Fe  Fe254     1.0  0.59072  0.79596  0.82784  1.0000
  S   S498      1.0  0.59503  0.82829  0.81026  1.0000
  Fe  Fe255     1.0  0.58760  0.75449  0.81698  1.0000
  S   S499      1.0  0.64247  0.79214  0.48662  1.0000
  S   S500      1.0  0.58111  0.78514  0.86205  1.0000
  C   C1486     1.0  0.34277  0.77223  0.85260  1.0000
  S   S501      1.0  0.62374  0.93559  0.80078  1.0000
  Fe  Fe256     1.0  0.62756  0.96161  0.81499  1.0000
  H   H1484     1.0  0.62853  0.88956  0.79696  1.0000
  S   S502      1.0  0.65007  0.88536  0.83173  1.0000
  H   H1485     1.0  0.50368  0.84153  0.83783  1.0000
  Fe  Fe257     1.0  0.60701  0.87131  0.69426  1.0000
  S   S503      1.0  0.57295  0.87438  0.70663  1.0000
  H   H1486     1.0  0.36727  0.73784  0.92743  1.0000
  Fe  Fe258     1.0  0.60205  0.86266  0.65280  1.0000
  S   S504      1.0  0.56747  0.86500  0.66187  1.0000
  S   S505      1.0  0.62207  0.85356  0.62337  1.0000
  Fe  Fe259     1.0  0.56933  0.89262  0.67519  1.0000
  S   S506      1.0  0.54364  0.92021  0.67380  1.0000
  Fe  Fe260     1.0  0.57413  0.84680  0.69242  1.0000
  S   S507      1.0  0.55990  0.81968  0.71119  1.0000
  S   S508      1.0  0.60352  0.89185  0.66374  1.0000
  S   S509      1.0  0.60862  0.84204  0.68244  1.0000
  Fe  Fe261     1.0  0.60586  0.80296  0.53677  1.0000
  C   C1487     1.0  0.59393  0.79242  0.62529  1.0000
  S   S510      1.0  0.58522  0.81161  0.56615  1.0000
  C   C1488     1.0  0.56382  0.80868  0.65565  1.0000
  H   H1487     1.0  0.58534  0.74417  0.90227  1.0000
  Fe  Fe262     1.0  0.62027  0.77200  0.50653  1.0000
  C   C1489     1.0  0.60073  0.73500  0.48420  1.0000
  C   C1490     1.0  0.62367  0.81871  0.76491  1.0000
  S   S511      1.0  0.59352  0.79844  0.50951  1.0000
  S   S512      1.0  0.62589  0.82565  0.51803  1.0000
  Fe  Fe263     1.0  0.44511  0.83134  0.81061  1.0000
  S   S513      1.0  0.46390  0.80858  0.79089  1.0000
  S   S514      1.0  0.46339  0.84436  0.82750  1.0000
  Fe  Fe264     1.0  0.40491  0.83099  0.79710  1.0000
  S   S515      1.0  0.42055  0.80890  0.77536  1.0000
  S   S516      1.0  0.37006  0.83888  0.79977  1.0000
  Fe  Fe265     1.0  0.43687  0.79190  0.80134  1.0000
  S   S517      1.0  0.44168  0.75729  0.81034  1.0000
  Fe  Fe266     1.0  0.44616  0.82758  0.76669  1.0000
  S   S518      1.0  0.46183  0.83682  0.73387  1.0000
  S   S519      1.0  0.41970  0.81263  0.82384  1.0000
  S   S520      1.0  0.42888  0.85172  0.78568  1.0000
  H   H1488     1.0  0.52835  0.81134  0.85225  1.0000
  C   C1491     1.0  0.32351  0.89967  0.80464  1.0000
  C   C1492     1.0  0.33800  0.73965  0.94830  1.0000
  H   H1489     1.0  0.50497  0.73979  0.84984  1.0000
  C   C1493     1.0  0.35551  0.84927  0.82133  1.0000
  C   C1494     1.0  0.36467  0.85844  0.83316  1.0000
  C   C1495     1.0  0.35226  0.86815  0.84927  1.0000
  C   C1496     1.0  0.33075  0.86849  0.85370  1.0000
  C   C1497     1.0  0.33412  0.84907  0.82620  1.0000
  H   H1490     1.0  0.38120  0.85862  0.82947  1.0000
  H   H1491     1.0  0.35930  0.87581  0.85796  1.0000
  C   C1498     1.0  0.36965  0.79403  0.84003  1.0000
  S   S521      1.0  0.63089  0.77452  0.53575  1.0000
  C   C1499     1.0  0.40114  0.75913  0.80685  1.0000
  S   S522      1.0  0.62558  0.73488  0.87606  1.0000
  H   H1492     1.0  0.54861  0.73452  0.49473  1.0000
  S   S523      1.0  0.62080  0.74369  0.49206  1.0000
  H   H1493     1.0  0.40265  0.77311  0.79567  1.0000
  H   H1494     1.0  0.36904  0.76055  0.80499  1.0000
  C   C1500     1.0  0.34320  0.77432  0.89318  1.0000
  C   C1501     1.0  0.53277  0.82538  0.71821  1.0000
  C   C1502     1.0  0.52103  0.84143  0.70637  1.0000
  C   C1503     1.0  0.49926  0.84485  0.71136  1.0000
  C   C1504     1.0  0.48916  0.83270  0.72855  1.0000
  C   C1505     1.0  0.50099  0.81714  0.74083  1.0000
  C   C1506     1.0  0.52273  0.81330  0.73551  1.0000
  H   H1495     1.0  0.52865  0.85090  0.69304  1.0000
  H   H1496     1.0  0.49021  0.85697  0.70183  1.0000
  H   H1497     1.0  0.49339  0.80762  0.75404  1.0000
  H   H1498     1.0  0.53178  0.80091  0.74477  1.0000
  C   C1507     1.0  0.61133  0.84373  0.60636  1.0000
  C   C1508     1.0  0.58988  0.84519  0.60817  1.0000
  C   C1509     1.0  0.58195  0.83616  0.59505  1.0000
  C   C1510     1.0  0.59540  0.82543  0.58022  1.0000
  C   C1511     1.0  0.61683  0.82444  0.57809  1.0000
  C   C1512     1.0  0.62474  0.83356  0.59112  1.0000
  H   H1499     1.0  0.57938  0.85319  0.61968  1.0000
  H   H1500     1.0  0.56535  0.83714  0.59668  1.0000
  H   H1501     1.0  0.62732  0.81611  0.56680  1.0000
  C   C1513     1.0  0.43742  0.77402  0.74393  1.0000
  C   C1514     1.0  0.54978  0.94530  0.66867  1.0000
  C   C1515     1.0  0.57033  0.94879  0.66333  1.0000
  C   C1516     1.0  0.34455  0.83050  0.94581  1.0000
  H   H1502     1.0  0.36391  0.79728  0.82510  1.0000
  C   C1517     1.0  0.53347  0.96222  0.66982  1.0000
  H   H1503     1.0  0.62429  0.81097  0.64762  1.0000
  H   H1504     1.0  0.64133  0.83220  0.58980  1.0000
  H   H1505     1.0  0.51758  0.95961  0.67390  1.0000
  C   C1518     1.0  0.57292  0.79378  0.62458  1.0000
  H   H1506     1.0  0.59479  0.76418  0.75225  1.0000
  C   C1519     1.0  0.63342  0.84988  0.83747  1.0000
  C   C1520     1.0  0.64201  0.90932  0.74718  1.0000
  H   H1507     1.0  0.35841  0.85785  0.93893  1.0000
  C   C1521     1.0  0.62640  0.91198  0.71097  1.0000
  H   H1508     1.0  0.57330  0.77786  0.76799  1.0000
  H   H1509     1.0  0.59027  0.97182  0.65438  1.0000
  H   H1510     1.0  0.63194  0.86327  0.47663  1.0000
  H   H1511     1.0  0.62038  0.91309  0.69699  1.0000
  H   H1512     1.0  0.32700  0.84187  0.81715  1.0000
  H   H1513     1.0  0.61619  0.76866  0.77637  1.0000
  Fe  Fe267     1.0  0.64727  0.94725  0.77424  1.0000
  H   H1514     1.0  0.54636  0.75444  0.80151  1.0000
  N   N126      1.0  0.47943  0.76644  0.74632  1.0000
  H   H1515     1.0  0.47243  0.74178  0.77107  1.0000
  C   C1522     1.0  0.35589  0.78483  0.87682  1.0000
  C   C1523     1.0  0.61157  0.84321  0.81572  1.0000
  C   C1524     1.0  0.61444  0.86216  0.80267  1.0000
  C   C1525     1.0  0.62659  0.87498  0.80708  1.0000
  H   H1516     1.0  0.64809  0.90816  0.76114  1.0000
  C   C1526     1.0  0.33371  0.76185  0.97412  1.0000
  C   C1527     1.0  0.62125  0.83706  0.83308  1.0000
  H   H1517     1.0  0.60710  0.86706  0.78914  1.0000
  C   C1528     1.0  0.33185  0.88487  0.91802  1.0000
  C   C1529     1.0  0.32593  0.74861  0.96503  1.0000
  H   H1518     1.0  0.61919  0.82253  0.84326  1.0000
  C   C1530     1.0  0.50752  0.78968  0.85640  1.0000
  C   C1531     1.0  0.48794  0.78709  0.85412  1.0000
  C   C1532     1.0  0.47437  0.80392  0.84527  1.0000
  C   C1533     1.0  0.47997  0.82358  0.83950  1.0000
  C   C1534     1.0  0.49932  0.82633  0.84229  1.0000
  C   C1535     1.0  0.51328  0.80928  0.85036  1.0000
  H   H1519     1.0  0.48334  0.77203  0.85894  1.0000
  H   H1520     1.0  0.45945  0.80173  0.84316  1.0000
  C   C1536     1.0  0.63604  0.86897  0.82461  1.0000
  N   N127      1.0  0.59496  0.91748  0.85032  1.0000
  C   C1537     1.0  0.59570  0.89689  0.85040  1.0000
  C   C1538     1.0  0.58160  0.93229  0.83984  1.0000
  C   C1539     1.0  0.58329  0.89067  0.83933  1.0000
  C   C1540     1.0  0.56917  0.92663  0.82837  1.0000
  C   C1541     1.0  0.57012  0.90566  0.82806  1.0000
  C   C1542     1.0  0.60809  0.92349  0.86217  1.0000
  H   H1521     1.0  0.60632  0.88515  0.85869  1.0000
  H   H1522     1.0  0.58076  0.94863  0.83999  1.0000
  H   H1523     1.0  0.58425  0.87430  0.83914  1.0000
  H   H1524     1.0  0.55900  0.93847  0.81967  1.0000
  H   H1525     1.0  0.56077  0.90099  0.81907  1.0000
  H   H1526     1.0  0.62410  0.91437  0.85958  1.0000
  H   H1527     1.0  0.60942  0.94017  0.85741  1.0000
  H   H1528     1.0  0.60151  0.92058  0.87887  1.0000
  H   H1529     1.0  0.60554  0.78652  0.61302  1.0000
  C   C1543     1.0  0.36556  0.75786  0.94938  1.0000
  H   H1530     1.0  0.36623  0.79371  0.88016  1.0000
  H   H1531     1.0  0.32638  0.91321  0.82989  1.0000
  N   N128      1.0  0.50875  0.85263  0.76885  1.0000
  C   C1544     1.0  0.52595  0.85932  0.75646  1.0000
  C   C1545     1.0  0.51067  0.83828  0.78641  1.0000
  C   C1546     1.0  0.54568  0.85173  0.76172  1.0000
  C   C1547     1.0  0.53013  0.83035  0.79210  1.0000
  C   C1548     1.0  0.54772  0.83725  0.77976  1.0000
  C   C1549     1.0  0.48798  0.86189  0.76422  1.0000
  H   H1532     1.0  0.52448  0.87069  0.74248  1.0000
  H   H1533     1.0  0.49705  0.83308  0.79628  1.0000
  H   H1534     1.0  0.55923  0.85729  0.75203  1.0000
  H   H1535     1.0  0.53145  0.81920  0.80623  1.0000
  H   H1536     1.0  0.56284  0.83156  0.78434  1.0000
  H   H1537     1.0  0.47787  0.84995  0.76769  1.0000
  H   H1538     1.0  0.48067  0.87403  0.77379  1.0000
  H   H1539     1.0  0.48847  0.86885  0.74763  1.0000
  N   N129      1.0  0.59925  0.79317  0.75739  1.0000
  C   C1550     1.0  0.61409  0.78500  0.76949  1.0000
  C   C1551     1.0  0.59622  0.81387  0.74914  1.0000
  H   H1540     1.0  0.61498  0.98025  0.71505  1.0000
  C   C1552     1.0  0.60838  0.82692  0.75276  1.0000
  H   H1541     1.0  0.51060  0.77231  0.73547  1.0000
  H   H1542     1.0  0.60588  0.84336  0.74639  1.0000
  H   H1543     1.0  0.62763  0.78297  0.65050  1.0000
  C   C1553     1.0  0.63722  0.92869  0.73488  1.0000
  C   C1554     1.0  0.35372  0.76627  0.96655  1.0000
  C   C1555     1.0  0.50152  0.76231  0.74784  1.0000
  Fe  Fe268     1.0  0.61619  0.81846  0.49079  1.0000
  S   S524      1.0  0.57870  0.74034  0.84992  1.0000
  S   S525      1.0  0.64819  0.97521  0.78717  1.0000
  S   S526      1.0  0.65355  0.94350  0.83097  1.0000
  H   H1544     1.0  0.64339  0.87633  0.75067  1.0000
  N   N130      1.0  0.33022  0.86324  0.92707  1.0000
  H   H1545     1.0  0.64068  0.84505  0.85104  1.0000
  C   C1556     1.0  0.38210  0.75201  0.81213  1.0000
  C   C1557     1.0  0.63150  0.89258  0.72316  1.0000
  S   S527      1.0  0.58985  0.73557  0.79230  1.0000
  S   S528      1.0  0.62917  0.86955  0.71579  1.0000
  C   C1558     1.0  0.34552  0.85126  0.93718  1.0000
  C   C1559     1.0  0.57445  0.96920  0.65893  1.0000
  H   H1546     1.0  0.58299  0.93583  0.66230  1.0000
  H   H1547     1.0  0.50831  0.74589  0.74649  1.0000
  H   H1548     1.0  0.38104  0.76125  0.94336  1.0000
  H   H1549     1.0  0.63660  0.89424  0.61937  1.0000
  C   C1560     1.0  0.55780  0.80213  0.63978  1.0000
  C   C1561     1.0  0.58496  0.80705  0.65590  1.0000
  H   H1550     1.0  0.33951  0.89163  0.80266  1.0000
  H   H1551     1.0  0.42096  0.77721  0.74329  1.0000
  C   C1562     1.0  0.57978  0.73973  0.49307  1.0000
  C   C1563     1.0  0.62952  0.92998  0.71669  1.0000
  H   H1552     1.0  0.35669  0.82111  0.95390  1.0000
  S   S529      1.0  0.60267  0.98269  0.83242  1.0000
  H   H1553     1.0  0.50336  0.76505  0.76301  1.0000
  H   H1554     1.0  0.58946  0.81217  0.66830  1.0000
  H   H1555     1.0  0.44451  0.80002  0.72020  1.0000
  H   H1556     1.0  0.56849  0.78915  0.61180  1.0000
  H   H1557     1.0  0.58433  0.82045  0.73978  1.0000
  C   C1564     1.0  0.54731  0.74069  0.79510  1.0000
  H   H1558     1.0  0.62593  0.94486  0.70700  1.0000
  H   H1559     1.0  0.48175  0.79275  0.72217  1.0000
  C   C1565     1.0  0.45061  0.78674  0.73093  1.0000
  H   H1560     1.0  0.51429  0.74502  0.79591  1.0000
  C   C1566     1.0  0.58578  0.77982  0.75429  1.0000
  C   C1567     1.0  0.62177  0.79794  0.64108  1.0000
  C   C1568     1.0  0.47172  0.78264  0.73227  1.0000
  N   N131      1.0  0.35544  0.78380  0.85683  1.0000
  H   H1561     1.0  0.58766  0.98239  0.69439  1.0000
  H   H1562     1.0  0.38519  0.78398  0.83820  1.0000
  H   H1563     1.0  0.57534  0.74934  0.50490  1.0000
  C   C1569     1.0  0.62658  0.79762  0.77336  1.0000
  N   N132      1.0  0.59969  0.79941  0.64060  1.0000
  C   C1570     1.0  0.35779  0.74457  0.94032  1.0000
  C   C1571     1.0  0.52915  0.73538  0.79180  1.0000
  H   H1564     1.0  0.57858  0.78633  0.74033  1.0000
  H   H1565     1.0  0.34269  0.77102  0.83679  1.0000
  H   H1566     1.0  0.55223  0.81517  0.66763  1.0000
  C   C1572     1.0  0.41806  0.74817  0.81609  1.0000
  C   C1573     1.0  0.33032  0.76238  0.88900  1.0000
  H   H1567     1.0  0.54146  0.80372  0.63911  1.0000
  H   H1568     1.0  0.65435  0.95808  0.64565  1.0000
  Fe  Fe269     1.0  0.65163  0.91814  0.81426  1.0000
  H   H1569     1.0  0.37129  0.80921  0.84314  1.0000
  S   S530      1.0  0.64141  0.95132  0.74164  1.0000
  C   C1574     1.0  0.44538  0.75768  0.75834  1.0000
  H   H1570     1.0  0.63111  0.79917  0.62524  1.0000
  C   C1575     1.0  0.37981  0.73429  0.82713  1.0000
  H   H1571     1.0  0.34454  0.88544  0.90440  1.0000
  H   H1572     1.0  0.64132  0.91132  0.63455  1.0000
  H   H1573     1.0  0.63285  0.82881  0.76822  1.0000
  H   H1574     1.0  0.34356  0.77515  0.90901  1.0000
  C   C1576     1.0  0.63936  0.89130  0.74121  1.0000
  H   H1575     1.0  0.63809  0.79123  0.78326  1.0000
  Fe  Fe270     1.0  0.65038  0.79724  0.51576  1.0000
  H   H1576     1.0  0.58975  0.97509  0.79673  1.0000
  H   H1577     1.0  0.33488  0.89290  0.92968  1.0000
  C   C1577     1.0  0.33009  0.76131  0.86858  1.0000
  H   H1578     1.0  0.65062  0.89434  0.66625  1.0000
  H   H1579     1.0  0.43521  0.74809  0.76905  1.0000
  C   C1578     1.0  0.46652  0.75419  0.75943  1.0000
  H   H1580     1.0  0.47756  0.74068  0.83074  1.0000
  C   C1579     1.0  0.53757  0.98250  0.66564  1.0000
  C   C1580     1.0  0.32773  0.82205  0.94418  1.0000
  H   H1581     1.0  0.32672  0.80604  0.95113  1.0000
  Fe  Fe271     1.0  0.69458  0.09879  0.04428  1.0000
  S   S531      1.0  0.71496  0.07651  0.02490  1.0000
  S   S532      1.0  0.70696  0.12200  0.05574  1.0000
  N   N133      1.0  0.82567  0.00379  0.24550  1.0000
  Fe  Fe272     1.0  0.69716  0.05320  0.04608  1.0000
  S   S533      1.0  0.71235  0.02153  0.06024  1.0000
  S   S534      1.0  0.67820  0.07515  0.06684  1.0000
  C   C1581     1.0  0.94003  0.22956  0.37321  1.0000
  Fe  Fe273     1.0  0.89866  0.04909  0.16681  1.0000
  S   S535      1.0  0.87755  0.07770  0.15473  1.0000
  S   S536      1.0  0.88827  0.01848  0.16909  1.0000
  Fe  Fe274     1.0  0.92833  0.07416  0.17682  1.0000
  S   S537      1.0  0.90983  0.10446  0.16393  1.0000
  S   S538      1.0  0.95336  0.07028  0.19682  1.0000
  Fe  Fe275     1.0  0.88208  0.09065  0.18117  1.0000
  S   S539      1.0  0.85782  0.10934  0.20170  1.0000
  Fe  Fe276     1.0  0.90711  0.08858  0.13832  1.0000
  S   S540      1.0  0.90862  0.10514  0.10500  1.0000
  S   S541      1.0  0.90028  0.06105  0.19513  1.0000
  S   S542      1.0  0.92845  0.05921  0.14938  1.0000
  Fe  Fe277     1.0  0.81359  0.13679  0.99483  1.0000
  S   S543      1.0  0.81765  0.10254  0.00638  1.0000
  S   S544      1.0  0.78292  0.15822  0.99758  1.0000
  S   S545      1.0  0.83403  0.22440  0.43800  1.0000
  H   H1582     1.0  0.72243  0.07981  0.07616  1.0000
  H   H1583     1.0  0.86496  0.00542  0.05467  1.0000
  H   H1584     1.0  0.79432  0.03892  0.41242  1.0000
  Fe  Fe278     1.0  0.84592  0.10715  0.01700  1.0000
  S   S546      1.0  0.85021  0.08856  0.04873  1.0000
  H   H1585     1.0  0.83821  0.11614  0.16425  1.0000
  S   S547      1.0  0.84021  0.14189  0.00767  1.0000
  H   H1586     1.0  0.76131  0.00747  0.31858  1.0000
  C   C1582     1.0  0.72864  0.01354  0.00506  1.0000
  Fe  Fe279     1.0  0.86216  0.20622  0.36815  1.0000
  S   S548      1.0  0.87748  0.21589  0.39018  1.0000
  C   C1583     1.0  0.78494  0.07040  0.39760  1.0000
  Fe  Fe280     1.0  0.85539  0.16509  0.39549  1.0000
  S   S549      1.0  0.87025  0.17145  0.42035  1.0000
  S   S550      1.0  0.84756  0.13311  0.39707  1.0000
  Fe  Fe281     1.0  0.85230  0.20412  0.41453  1.0000
  C   C1584     1.0  0.97198  0.12397  0.19997  1.0000
  Fe  Fe282     1.0  0.89417  0.18300  0.39399  1.0000
  S   S551      1.0  0.92890  0.17831  0.39022  1.0000
  S   S552      1.0  0.83531  0.19680  0.39191  1.0000
  S   S553      1.0  0.88089  0.17429  0.36993  1.0000
  Fe  Fe283     1.0  0.83319  0.03169  0.32428  1.0000
  S   S554      1.0  0.81048  0.01820  0.31331  1.0000
  S   S555      1.0  0.86691  0.01785  0.32292  1.0000
  Fe  Fe284     1.0  0.80288  0.07099  0.33227  1.0000
  S   S556      1.0  0.77716  0.06079  0.32176  1.0000
  S   S557      1.0  0.79859  0.10346  0.33986  1.0000
  Fe  Fe285     1.0  0.78755  0.02926  0.33978  1.0000
  S   S558      1.0  0.76603  0.00822  0.36062  1.0000
  Fe  Fe286     1.0  0.80205  0.05036  0.29612  1.0000
  S   S559      1.0  0.79997  0.05152  0.26305  1.0000
  S   S560      1.0  0.81124  0.04029  0.35255  1.0000
  S   S561      1.0  0.82664  0.06303  0.30492  1.0000
  C   C1585     1.0  0.85615  0.02922  0.00680  1.0000
  H   H1587     1.0  0.74512  0.04049  0.03170  1.0000
  C   C1586     1.0  0.75844  0.05463  0.38071  1.0000
  C   C1587     1.0  0.83476  0.12533  0.38012  1.0000
  C   C1588     1.0  0.82286  0.13969  0.36698  1.0000
  C   C1589     1.0  0.81217  0.13274  0.35449  1.0000
  C   C1590     1.0  0.81363  0.11143  0.35464  1.0000
  C   C1591     1.0  0.82602  0.09709  0.36734  1.0000
  C   C1592     1.0  0.83633  0.10402  0.38017  1.0000
  H   H1588     1.0  0.82137  0.15612  0.36690  1.0000
  H   H1589     1.0  0.80253  0.14396  0.34480  1.0000
  H   H1590     1.0  0.82735  0.08065  0.36759  1.0000
  H   H1591     1.0  0.84556  0.09280  0.39024  1.0000
  H   H1592     1.0  0.72862  0.05235  0.07736  1.0000
  H   H1593     1.0  0.97243  0.13920  0.19062  1.0000
  C   C1593     1.0  0.87139  0.99914  0.14607  1.0000
  H   H1594     1.0  0.76477  0.03425  0.07858  1.0000
  C   C1594     1.0  0.82946  0.00617  0.22445  1.0000
  C   C1595     1.0  0.78426  0.04921  0.40244  1.0000
  H   H1595     1.0  0.88117  0.00721  0.21532  1.0000
  H   H1596     1.0  0.98693  0.09448  0.24375  1.0000
  H   H1597     1.0  0.77295  0.09979  0.38050  1.0000
  H   H1598     1.0  0.93166  0.16014  0.31154  1.0000
  C   C1596     1.0  0.95784  0.13493  0.34372  1.0000
  C   C1597     1.0  0.96562  0.15310  0.34239  1.0000
  C   C1598     1.0  0.95694  0.16629  0.35690  1.0000
  C   C1599     1.0  0.94013  0.16160  0.37239  1.0000
  C   C1600     1.0  0.93221  0.14359  0.37351  1.0000
  C   C1601     1.0  0.94130  0.13010  0.35946  1.0000
  H   H1599     1.0  0.96300  0.18029  0.35585  1.0000
  H   H1600     1.0  0.91934  0.13982  0.38553  1.0000
  H   H1601     1.0  0.93542  0.11594  0.36075  1.0000
  H   H1602     1.0  0.80171  0.98592  0.25620  1.0000
  H   H1603     1.0  0.74833  0.04819  0.37401  1.0000
  C   C1602     1.0  0.81544  0.06807  0.24585  1.0000
  C   C1603     1.0  0.81697  0.08704  0.25051  1.0000
  C   C1604     1.0  0.82936  0.10010  0.23648  1.0000
  C   C1605     1.0  0.84094  0.09379  0.21824  1.0000
  C   C1606     1.0  0.83956  0.07475  0.21370  1.0000
  C   C1607     1.0  0.82644  0.06217  0.22727  1.0000
  H   H1604     1.0  0.80828  0.09180  0.26473  1.0000
  H   H1605     1.0  0.83029  0.11490  0.23999  1.0000
  H   H1606     1.0  0.84839  0.06981  0.19962  1.0000
  H   H1607     1.0  0.82501  0.04775  0.22346  1.0000
  C   C1608     1.0  0.96285  0.08962  0.20510  1.0000
  H   H1608     1.0  0.95625  0.11401  0.17967  1.0000
  H   H1609     1.0  0.89534  0.02439  0.05924  1.0000
  C   C1609     1.0  0.89313  0.09963  0.08909  1.0000
  C   C1610     1.0  0.88002  0.08493  0.09643  1.0000
  C   C1611     1.0  0.86694  0.08183  0.08391  1.0000
  C   C1612     1.0  0.86681  0.09333  0.06389  1.0000
  C   C1613     1.0  0.88004  0.10789  0.05641  1.0000
  C   C1614     1.0  0.89323  0.11091  0.06893  1.0000
  H   H1610     1.0  0.88001  0.07584  0.11173  1.0000
  H   H1611     1.0  0.85690  0.07040  0.08980  1.0000
  H   H1612     1.0  0.88025  0.11670  0.04094  1.0000
  H   H1613     1.0  0.90351  0.12212  0.06298  1.0000
  C   C1615     1.0  0.76186  0.99178  0.00863  1.0000
  C   C1616     1.0  0.79028  0.05041  0.06524  1.0000
  C   C1617     1.0  0.77218  0.08335  0.38436  1.0000
  N   N134      1.0  0.75943  0.07535  0.37582  1.0000
  N   N135      1.0  0.75482  0.06709  0.07385  1.0000
  C   C1618     1.0  0.89911  0.00919  0.10978  1.0000
  C   C1619     1.0  0.89940  0.01708  0.12748  1.0000
  C   C1620     1.0  0.88587  0.01168  0.14583  1.0000
  C   C1621     1.0  0.75882  0.02153  0.98135  1.0000
  C   C1622     1.0  0.92169  0.22847  0.32910  1.0000
  S   S562      1.0  0.86696  0.10176  0.98710  1.0000
  H   H1614     1.0  0.91063  0.02672  0.12713  1.0000
  C   C1623     1.0  0.75194  0.99420  0.35038  1.0000
  H   H1615     1.0  0.86360  0.13860  0.16341  1.0000
  C   C1624     1.0  0.72804  0.13162  0.03904  1.0000
  C   C1625     1.0  0.74357  0.11878  0.02771  1.0000
  C   C1626     1.0  0.76095  0.12659  0.01549  1.0000
  C   C1627     1.0  0.76235  0.14747  0.01394  1.0000
  C   C1628     1.0  0.74659  0.16034  0.02489  1.0000
  C   C1629     1.0  0.72972  0.15232  0.03776  1.0000
  H   H1616     1.0  0.74249  0.10272  0.02876  1.0000
  H   H1617     1.0  0.77290  0.11665  0.00678  1.0000
  H   H1618     1.0  0.74759  0.17649  0.02368  1.0000
  H   H1619     1.0  0.71782  0.16227  0.04655  1.0000
  S   S563      1.0  0.98607  0.15618  0.27621  1.0000
  C   C1630     1.0  0.74626  0.08929  0.36196  1.0000
  C   C1631     1.0  0.77083  0.04126  0.39407  1.0000
  H   H1620     1.0  0.88749  0.05216  0.05381  1.0000
  N   N136      1.0  0.87305  0.03461  0.03933  1.0000
  C   C1632     1.0  0.87306  0.04940  0.02183  1.0000
  C   C1633     1.0  0.86492  0.01714  0.04082  1.0000
  C   C1634     1.0  0.85650  0.01413  0.02455  1.0000
  C   C1635     1.0  0.88198  0.03710  0.05660  1.0000
  H   H1621     1.0  0.78782  0.00141  0.98634  1.0000
  H   H1622     1.0  0.85023  0.00018  0.02570  1.0000
  H   H1623     1.0  0.80268  0.00354  0.27299  1.0000
  H   H1624     1.0  0.81701  0.00687  0.21613  1.0000
  H   H1625     1.0  0.97176  0.06888  0.23220  1.0000
  C   C1636     1.0  0.85205  0.13015  0.11228  1.0000
  C   C1637     1.0  0.84190  0.12040  0.13104  1.0000
  C   C1638     1.0  0.86009  0.13636  0.14909  1.0000
  C   C1639     1.0  0.84580  0.12375  0.14954  1.0000
  H   H1626     1.0  0.84916  0.12720  0.09797  1.0000
  H   H1627     1.0  0.83135  0.11005  0.13122  1.0000
  C   C1640     1.0  0.74894  0.99710  0.06846  1.0000
  C   C1641     1.0  0.87508  0.99751  0.30879  1.0000
  C   C1642     1.0  0.90231  0.22221  0.33547  1.0000
  N   N137      1.0  0.88809  0.13988  0.33255  1.0000
  C   C1643     1.0  0.90874  0.14075  0.32589  1.0000
  C   C1644     1.0  0.87342  0.15737  0.32960  1.0000
  C   C1645     1.0  0.91520  0.15954  0.31626  1.0000
  C   C1646     1.0  0.87931  0.17640  0.31980  1.0000
  C   C1647     1.0  0.90036  0.17748  0.31328  1.0000
  C   C1648     1.0  0.88172  0.12051  0.34433  1.0000
  H   H1628     1.0  0.92044  0.12694  0.32830  1.0000
  H   H1629     1.0  0.85709  0.15681  0.33546  1.0000
  H   H1630     1.0  0.79299  0.01364  0.24950  1.0000
  H   H1631     1.0  0.83844  0.00073  0.27270  1.0000
  H   H1632     1.0  0.88037  0.12039  0.36113  1.0000
  H   H1633     1.0  0.86642  0.11892  0.34139  1.0000
  H   H1634     1.0  0.89312  0.10672  0.34016  1.0000
  N   N138      1.0  0.90088  0.08166  0.23988  1.0000
  C   C1649     1.0  0.88004  0.08334  0.24730  1.0000
  C   C1650     1.0  0.91403  0.06341  0.24474  1.0000
  C   C1651     1.0  0.87187  0.06658  0.26013  1.0000
  C   C1652     1.0  0.90641  0.04639  0.25780  1.0000
  C   C1653     1.0  0.88518  0.04808  0.26562  1.0000
  H   H1635     1.0  0.86958  0.09771  0.24327  1.0000
  H   H1636     1.0  0.93051  0.06195  0.23847  1.0000
  H   H1637     1.0  0.85530  0.06796  0.26575  1.0000
  H   H1638     1.0  0.91688  0.03199  0.26181  1.0000
  H   H1639     1.0  0.87902  0.03514  0.27594  1.0000
  H   H1640     1.0  0.91412  0.09583  0.21023  1.0000
  H   H1641     1.0  0.92685  0.22156  0.37647  1.0000
  H   H1642     1.0  0.86081  0.99496  0.16019  1.0000
  Fe  Fe287     1.0  0.85901  0.13620  0.97680  1.0000
  H   H1643     1.0  0.70897  0.04654  0.98500  1.0000
  C   C1654     1.0  0.74046  0.99622  0.01539  1.0000
  H   H1644     1.0  0.90118  0.20735  0.34527  1.0000
  H   H1645     1.0  0.96085  0.20276  0.38538  1.0000
  H   H1646     1.0  0.74141  0.98749  0.30504  1.0000
  S   S564      1.0  0.96781  0.11845  0.32544  1.0000
  H   H1647     1.0  0.81252  0.07085  0.05216  1.0000
  C   C1655     1.0  0.86560  0.00629  0.22386  1.0000
  H   H1648     1.0  0.73288  0.09826  0.37103  1.0000
  H   H1649     1.0  0.90514  0.19227  0.30628  1.0000
  C   C1656     1.0  0.95917  0.21898  0.37810  1.0000
  H   H1650     1.0  0.80166  0.03625  0.06431  1.0000
  H   H1651     1.0  0.75531  0.10030  0.35076  1.0000
  C   C1657     1.0  0.89564  0.99402  0.29853  1.0000
  H   H1652     1.0  0.87413  0.00263  0.25376  1.0000
  C   C1658     1.0  0.98021  0.09884  0.22983  1.0000
  S   S565      1.0  0.80989  0.99393  0.04317  1.0000
  H   H1653     1.0  0.86440  0.05861  0.99147  1.0000
  C   C1659     1.0  0.87010  0.14571  0.13007  1.0000
  H   H1654     1.0  0.77037  0.02475  0.39741  1.0000
  N   N139      1.0  0.86576  0.14282  0.11201  1.0000
  Fe  Fe288     1.0  0.68863  0.08349  0.00730  1.0000
  C   C1660     1.0  0.73962  0.01505  0.05653  1.0000
  C   C1661     1.0  0.78150  0.08778  0.05965  1.0000
  S   S566      1.0  0.67263  0.05794  0.02651  1.0000
  H   H1655     1.0  0.87947  0.06329  0.02062  1.0000
  C   C1662     1.0  0.76071  0.08613  0.06769  1.0000
  C   C1663     1.0  0.90920  0.09923  0.22615  1.0000
  C   C1664     1.0  0.96275  0.10970  0.19372  1.0000
  C   C1665     1.0  0.78297  0.00221  0.04917  1.0000
  C   C1666     1.0  0.72544  0.04378  0.97718  1.0000
  H   H1656     1.0  0.92286  0.10211  0.23140  1.0000
  H   H1657     1.0  0.74033  0.08062  0.35270  1.0000
  C   C1667     1.0  0.79635  0.06977  0.05837  1.0000
  H   H1658     1.0  0.91011  0.01291  0.09585  1.0000
  H   H1659     1.0  0.79552  0.07678  0.40375  1.0000
  C   C1668     1.0  0.77115  0.00452  0.99152  1.0000
  H   H1660     1.0  0.95405  0.23000  0.27808  1.0000
  H   H1661     1.0  0.89748  0.11375  0.22552  1.0000
  H   H1662     1.0  0.71212  0.01720  0.01088  1.0000
  C   C1669     1.0  0.97614  0.22937  0.37326  1.0000
  H   H1663     1.0  0.73314  0.98684  0.02910  1.0000
  H   H1664     1.0  0.78606  0.10293  0.05438  1.0000
  C   C1670     1.0  0.84942  0.00744  0.21333  1.0000
  S   S567      1.0  0.66991  0.10826  0.02455  1.0000
  H   H1665     1.0  0.87242  0.17051  0.09186  1.0000
  C   C1671     1.0  0.75210  0.02683  0.04120  1.0000
  C   C1672     1.0  0.86454  0.04694  0.00535  1.0000
  H   H1666     1.0  0.73365  0.14100  0.98697  1.0000
  C   C1673     1.0  0.73297  0.06559  0.08209  1.0000
  C   C1674     1.0  0.77371  0.02031  0.03740  1.0000
  H   H1667     1.0  0.88149  0.15516  0.12983  1.0000
  C   C1675     1.0  0.76936  0.04936  0.07318  1.0000
  C   C1676     1.0  0.88510  0.99611  0.11019  1.0000
  H   H1668     1.0  0.87014  0.03651  0.07094  1.0000
  C   C1677     1.0  0.80474  0.00149  0.25668  1.0000
  H   H1669     1.0  0.78324  0.02918  0.02514  1.0000
  H   H1670     1.0  0.84941  0.02723  0.99416  1.0000
  C   C1678     1.0  0.87601  0.15347  0.09238  1.0000
  H   H1671     1.0  0.87096  0.15008  0.07891  1.0000
  C   C1679     1.0  0.86163  0.00384  0.24537  1.0000
  H   H1672     1.0  0.73019  0.06340  0.09920  1.0000
  C   C1680     1.0  0.97156  0.08435  0.22324  1.0000
  H   H1673     1.0  0.74927  0.10021  0.06880  1.0000
  H   H1674     1.0  0.89311  0.14822  0.09069  1.0000
  H   H1675     1.0  0.84570  0.98701  0.31594  1.0000
  H   H1676     1.0  0.97727  0.21383  0.26765  1.0000
  H   H1677     1.0  0.86768  0.19039  0.31801  1.0000
  N   N140      1.0  0.73788  0.02588  0.98822  1.0000
  H   H1678     1.0  0.85228  0.00917  0.19665  1.0000
  C   C1681     1.0  0.87095  0.99141  0.12828  1.0000
  C   C1682     1.0  0.98090  0.11864  0.21797  1.0000
  C   C1683     1.0  0.75240  0.99666  0.32914  1.0000
  C   C1684     1.0  0.84142  0.00263  0.25601  1.0000
  H   H1679     1.0  0.93536  0.21835  0.33396  1.0000
  H   H1680     1.0  0.97829  0.15700  0.33021  1.0000
  H   H1681     1.0  0.90643  0.00344  0.29992  1.0000
  C   C1685     1.0  0.97123  0.22836  0.27409  1.0000
  H   H1682     1.0  0.87634  0.23025  0.43818  1.0000
  C   C1686     1.0  0.86129  0.98503  0.30729  1.0000
  C   C1687     1.0  0.77061  0.99077  0.06494  1.0000
  S   S568      1.0  0.86017  0.22774  0.33801  1.0000
  S   S569      1.0  0.88660  0.98503  0.08820  1.0000
  H   H1683     1.0  0.73935  0.98790  0.08034  1.0000
  C   C1688     1.0  0.74110  0.98529  0.32149  1.0000
  H   H1684     1.0  0.97730  0.22676  0.28862  1.0000
  H   H1685     1.0  0.85143  0.12574  0.91788  1.0000
  Fe  Fe289     1.0  0.75035  0.03068  0.86875  1.0000
  S   S570      1.0  0.75980  0.05355  0.84058  1.0000
  N   N141      1.0  0.83898  0.22843  0.50779  1.0000
  Fe  Fe290     1.0  0.75996  0.05665  0.89753  1.0000
  S   S571      1.0  0.76916  0.08179  0.87137  1.0000
  S   S572      1.0  0.75873  0.06051  0.93048  1.0000
  Fe  Fe291     1.0  0.74177  0.07774  0.85920  1.0000
  S   S573      1.0  0.71838  0.10285  0.84486  1.0000
  Fe  Fe292     1.0  0.78647  0.05529  0.85548  1.0000
  S   S574      1.0  0.81909  0.05461  0.83692  1.0000
  S   S575      1.0  0.73085  0.05491  0.88669  1.0000
  S   S576      1.0  0.77873  0.03013  0.88238  1.0000
  Fe  Fe293     1.0  0.95310  0.09593  0.81520  1.0000
  S   S577      1.0  0.94293  0.08947  0.84962  1.0000
  C   C1689     1.0  0.98132  0.15874  0.85710  1.0000
  Fe  Fe294     1.0  0.93070  0.14009  0.81190  1.0000
  S   S578      1.0  0.91955  0.13772  0.84589  1.0000
  S   S579      1.0  0.91960  0.16798  0.78961  1.0000
  Fe  Fe295     1.0  0.95164  0.12029  0.84874  1.0000
  S   S580      1.0  0.97001  0.12041  0.87328  1.0000
  Fe  Fe296     1.0  0.91167  0.10729  0.84374  1.0000
  S   S581      1.0  0.87986  0.10282  0.86210  1.0000
  S   S582      1.0  0.96371  0.12565  0.81469  1.0000
  S   S583      1.0  0.92099  0.11077  0.80936  1.0000
  S   S584      1.0  0.67194  0.17246  0.89697  1.0000
  H   H1686     1.0  0.79591  0.08435  0.97418  1.0000
  H   H1687     1.0  0.87712  0.17720  0.85309  1.0000
  C   C1690     1.0  0.76302  0.12638  0.94288  1.0000
  C   C1691     1.0  0.86786  0.22268  0.93527  1.0000
  C   C1692     1.0  0.84704  0.14256  0.83350  1.0000
  C   C1693     1.0  0.87429  0.21580  0.80313  1.0000
  S   S585      1.0  0.66280  0.98426  0.60532  1.0000
  S   S586      1.0  0.88434  0.15256  0.95647  1.0000
  C   C1694     1.0  0.98316  0.07863  0.77253  1.0000
  N   N142      1.0  0.74812  0.12053  0.93526  1.0000
  H   H1688     1.0  0.92751  0.15073  0.89187  1.0000
  H   H1689     1.0  0.93620  0.14767  0.93388  1.0000
  C   C1695     1.0  0.88240  0.13782  0.78304  1.0000
  H   H1690     1.0  0.67078  0.10203  0.85570  1.0000
  H   H1691     1.0  0.87732  0.15743  0.80568  1.0000
  H   H1692     1.0  0.83835  0.13102  0.84431  1.0000
  C   C1696     1.0  0.85877  0.19071  0.95703  1.0000
  H   H1693     1.0  0.80491  0.03089  0.81143  1.0000
  C   C1697     1.0  0.85953  0.21678  0.50075  1.0000
  S   S587      1.0  0.83959  0.07743  0.95491  1.0000
  H   H1694     1.0  0.89481  0.14528  0.77319  1.0000
  H   H1695     1.0  0.73480  0.02011  0.82572  1.0000
  C   C1698     1.0  0.66852  0.09746  0.96518  1.0000
  C   C1699     1.0  0.88688  0.19966  0.79369  1.0000
  C   C1700     1.0  0.66326  0.08192  0.90677  1.0000
  S   S588      1.0  0.83180  0.13420  0.96325  1.0000
  C   C1701     1.0  0.66242  0.09743  0.87112  1.0000
  C   C1702     1.0  0.87969  0.22135  0.81995  1.0000
  H   H1696     1.0  0.90707  0.18172  0.92847  1.0000
  C   C1703     1.0  0.90451  0.18844  0.80152  1.0000
  C   C1704     1.0  0.90976  0.19359  0.81866  1.0000
  C   C1705     1.0  0.85379  0.21222  0.95020  1.0000
  H   H1697     1.0  0.66241  0.04362  0.71295  1.0000
  H   H1698     1.0  0.74331  0.10292  0.91424  1.0000
  C   C1706     1.0  0.87248  0.14461  0.80151  1.0000
  C   C1707     1.0  0.98435  0.14027  0.87123  1.0000
  C   C1708     1.0  0.70655  0.12267  0.85910  1.0000
  C   C1709     1.0  0.68970  0.13701  0.85256  1.0000
  C   C1710     1.0  0.67901  0.15217  0.86431  1.0000
  C   C1711     1.0  0.68562  0.15355  0.88227  1.0000
  C   C1712     1.0  0.70276  0.13950  0.88865  1.0000
  C   C1713     1.0  0.71305  0.12384  0.87721  1.0000
  H   H1699     1.0  0.68472  0.13622  0.83850  1.0000
  C   C1714     1.0  0.72819  0.12183  0.94586  1.0000
  H   H1700     1.0  0.70772  0.14047  0.90265  1.0000
  H   H1701     1.0  0.72596  0.11268  0.88234  1.0000
  C   C1715     1.0  0.83632  0.06713  0.84461  1.0000
  C   C1716     1.0  0.83013  0.07723  0.86168  1.0000
  C   C1717     1.0  0.84383  0.08767  0.86708  1.0000
  C   C1718     1.0  0.86385  0.08819  0.85548  1.0000
  C   C1719     1.0  0.87021  0.07788  0.83855  1.0000
  C   C1720     1.0  0.85647  0.06738  0.83315  1.0000
  H   H1702     1.0  0.81480  0.07692  0.87081  1.0000
  H   H1703     1.0  0.83886  0.09536  0.88037  1.0000
  H   H1704     1.0  0.88564  0.07808  0.82955  1.0000
  H   H1705     1.0  0.86146  0.05947  0.82003  1.0000
  C   C1721     1.0  0.78108  0.06630  0.93655  1.0000
  C   C1722     1.0  0.77951  0.07421  0.95468  1.0000
  C   C1723     1.0  0.79721  0.07847  0.96008  1.0000
  C   C1724     1.0  0.81668  0.07431  0.94764  1.0000
  C   C1725     1.0  0.81817  0.06657  0.92945  1.0000
  C   C1726     1.0  0.80040  0.06284  0.92377  1.0000
  H   H1706     1.0  0.86343  0.20725  0.87133  1.0000
  H   H1707     1.0  0.83890  0.22071  0.95632  1.0000
  H   H1708     1.0  0.83317  0.06332  0.91974  1.0000
  H   H1709     1.0  0.80179  0.05674  0.90977  1.0000
  H   H1710     1.0  0.88288  0.19585  0.78034  1.0000
  H   H1711     1.0  0.85294  0.16491  0.92855  1.0000
  H   H1712     1.0  0.80728  0.01137  0.84668  1.0000
  H   H1713     1.0  0.90190  0.21464  0.84049  1.0000
  C   C1727     1.0  0.97338  0.09700  0.76168  1.0000
  C   C1728     1.0  0.72274  0.12905  0.96467  1.0000
  H   H1714     1.0  0.83875  0.11143  0.81895  1.0000
  H   H1715     1.0  0.96073  0.10690  0.76973  1.0000
  H   H1716     1.0  0.95191  0.13203  0.91534  1.0000
  S   S589      1.0  0.69288  0.09058  0.97286  1.0000
  H   H1717     1.0  0.67928  0.11781  0.93740  1.0000
  H   H1718     1.0  0.85620  0.09843  0.78684  1.0000
  H   H1719     1.0  0.88453  0.11535  0.76366  1.0000
  H   H1720     1.0  0.83612  0.15732  0.83008  1.0000
  H   H1721     1.0  0.85887  0.14507  0.84164  1.0000
  H   H1722     1.0  0.67187  0.07493  0.91924  1.0000
  H   H1723     1.0  0.85136  0.20094  0.90939  1.0000
  N   N143      1.0  0.86633  0.15109  0.90192  1.0000
  C   C1729     1.0  0.87279  0.15441  0.88099  1.0000
  C   C1730     1.0  0.85737  0.18795  0.90122  1.0000
  C   C1731     1.0  0.87191  0.17461  0.86969  1.0000
  C   C1732     1.0  0.86422  0.19148  0.87992  1.0000
  H   H1724     1.0  0.87867  0.14138  0.87297  1.0000
  C   C1733     1.0  0.87800  0.17966  0.94919  1.0000
  C   C1734     1.0  0.78906  0.98901  0.84441  1.0000
  H   H1725     1.0  0.87361  0.12836  0.92792  1.0000
  C   C1735     1.0  0.89217  0.19016  0.93450  1.0000
  H   H1726     1.0  0.76954  0.10606  0.91192  1.0000
  H   H1727     1.0  0.97225  0.11673  0.73198  1.0000
  H   H1728     1.0  0.76458  0.07703  0.96459  1.0000
  H   H1729     1.0  0.69061  0.08549  0.88367  1.0000
  H   H1730     1.0  0.96412  0.14635  0.92737  1.0000
  H   H1731     1.0  0.82319  0.21292  0.49280  1.0000
  H   H1732     1.0  0.72569  0.04141  0.96126  1.0000
  C   C1736     1.0  0.86077  0.11158  0.79069  1.0000
  C   C1737     1.0  0.82170  0.22423  0.50272  1.0000
  H   H1733     1.0  0.98234  0.05679  0.83954  1.0000
  C   C1738     1.0  0.79890  0.00629  0.83701  1.0000
  C   C1739     1.0  0.86722  0.12986  0.91358  1.0000
  C   C1740     1.0  0.72661  0.00710  0.83005  1.0000
  C   C1741     1.0  0.66615  0.11140  0.94687  1.0000
  C   C1742     1.0  0.77727  0.99325  0.81262  1.0000
  C   C1743     1.0  0.67376  0.08793  0.88688  1.0000
  H   H1734     1.0  0.89830  0.21958  0.91648  1.0000
  H   H1735     1.0  0.72079  0.00874  0.79930  1.0000
  H   H1736     1.0  0.76610  0.03134  0.96800  1.0000
  H   H1737     1.0  0.87735  0.11821  0.90454  1.0000
  N   N144      1.0  0.94674  0.16462  0.90449  1.0000
  C   C1744     1.0  0.95560  0.18165  0.90309  1.0000
  C   C1745     1.0  0.93437  0.16431  0.89079  1.0000
  C   C1746     1.0  0.95257  0.19873  0.88733  1.0000
  C   C1747     1.0  0.93104  0.18113  0.87482  1.0000
  C   C1748     1.0  0.94038  0.19835  0.87301  1.0000
  C   C1749     1.0  0.94985  0.14684  0.92116  1.0000
  H   H1738     1.0  0.96560  0.18188  0.91378  1.0000
  H   H1739     1.0  0.98778  0.18994  0.84744  1.0000
  C   C1750     1.0  0.72472  0.99623  0.85034  1.0000
  H   H1740     1.0  0.92169  0.18063  0.86366  1.0000
  H   H1741     1.0  0.87174  0.22651  0.49819  1.0000
  H   H1742     1.0  0.78539  0.01936  0.78946  1.0000
  S   S590      1.0  0.73750  0.00146  0.86895  1.0000
  C   C1751     1.0  0.79762  0.01725  0.81714  1.0000
  C   C1752     1.0  0.97992  0.10254  0.74030  1.0000
  C   C1753     1.0  0.75317  0.11412  0.91500  1.0000
  C   C1754     1.0  0.89753  0.21032  0.82766  1.0000
  H   H1743     1.0  0.92362  0.18514  0.82445  1.0000
  H   H1744     1.0  0.86015  0.21197  0.48574  1.0000
  H   H1745     1.0  0.97097  0.16056  0.84623  1.0000
  H   H1746     1.0  0.75058  0.12785  0.90270  1.0000
  N   N145      1.0  0.85718  0.13503  0.81429  1.0000
  H   H1747     1.0  0.65898  0.03779  0.75936  1.0000
  H   H1748     1.0  0.77887  0.12524  0.93456  1.0000
  C   C1755     1.0  0.85098  0.11898  0.80890  1.0000
  C   C1756     1.0  0.85839  0.16753  0.91201  1.0000
  C   C1757     1.0  0.87663  0.12105  0.77773  1.0000
  S   S591      1.0  0.97570  0.07158  0.79939  1.0000
  H   H1749     1.0  0.93851  0.21126  0.86034  1.0000
  C   C1758     1.0  0.88711  0.21159  0.92753  1.0000
  H   H1750     1.0  0.66702  0.01101  0.83013  1.0000
  C   C1759     1.0  0.78666  0.01078  0.80485  1.0000
  C   C1760     1.0  0.65732  0.02231  0.79117  1.0000
  C   C1761     1.0  0.71866  0.00059  0.81507  1.0000
  H   H1751     1.0  0.86324  0.20274  0.51238  1.0000
  H   H1752     1.0  0.96025  0.21188  0.88574  1.0000
  C   C1762     1.0  0.75809  0.13376  0.96162  1.0000
  H   H1753     1.0  0.71637  0.11712  0.93989  1.0000
  H   H1754     1.0  0.86058  0.22433  0.79708  1.0000
  H   H1755     1.0  0.76876  0.98831  0.80299  1.0000
  H   H1756     1.0  0.66756  0.22007  0.90795  1.0000
  H   H1757     1.0  0.67082  0.99306  0.66637  1.0000
  H   H1758     1.0  0.67360  0.01511  0.78901  1.0000
  H   H1759     1.0  0.84773  0.18271  0.96838  1.0000
  H   H1760     1.0  0.66584  0.16303  0.85929  1.0000
  C   C1763     1.0  0.73777  0.13517  0.97250  1.0000
  H   H1761     1.0  0.76991  0.13843  0.96766  1.0000
  H   H1762     1.0  0.78835  0.23203  0.50506  1.0000
  H   H1763     1.0  0.65956  0.98918  0.82362  1.0000
  H   H1764     1.0  0.70694  0.12977  0.97313  1.0000
  H   H1765     1.0  0.98854  0.08244  0.85820  1.0000
  H   H1766     1.0  0.98748  0.07490  0.65129  1.0000
  Fe  Fe297     1.0  0.83813  0.10023  0.97575  1.0000
  H   H1767     1.0  0.73183  0.05811  0.97601  1.0000
  Fe  Fe298     1.0  0.95431  0.32713  0.26984  1.0000
  S   S592      1.0  0.93682  0.35061  0.28952  1.0000
  S   S593      1.0  0.97059  0.33782  0.23761  1.0000
  Fe  Fe299     1.0  0.94309  0.29098  0.30281  1.0000
  S   S594      1.0  0.92535  0.31097  0.32572  1.0000
  S   S595      1.0  0.94723  0.25650  0.31117  1.0000
  Fe  Fe300     1.0  0.91194  0.33076  0.29871  1.0000
  S   S596      1.0  0.87739  0.33996  0.29859  1.0000
  Fe  Fe301     1.0  0.95183  0.32871  0.31456  1.0000
  S   S597      1.0  0.96702  0.34033  0.33550  1.0000
  S   S598      1.0  0.92813  0.30930  0.27640  1.0000
  S   S599      1.0  0.97083  0.30663  0.29435  1.0000
  Fe  Fe302     1.0  0.73615  0.41085  0.36420  1.0000
  S   S600      1.0  0.75780  0.38716  0.34677  1.0000
  H   H1768     1.0  0.66437  0.44220  0.44988  1.0000
  Fe  Fe303     1.0  0.74084  0.38438  0.40578  1.0000
  S   S601      1.0  0.76199  0.35818  0.39234  1.0000
  S   S602      1.0  0.73146  0.38074  0.44004  1.0000
  Fe  Fe304     1.0  0.77781  0.38294  0.37094  1.0000
  S   S603      1.0  0.81252  0.37875  0.36988  1.0000
  Fe  Fe305     1.0  0.74032  0.36453  0.36968  1.0000
  S   S604      1.0  0.72897  0.33883  0.36117  1.0000
  S   S605      1.0  0.75782  0.40902  0.38614  1.0000
  S   S606      1.0  0.71760  0.38835  0.38534  1.0000
  C   C1764     1.0  0.69812  0.42441  0.06526  1.0000
  C   C1765     1.0  0.83074  0.37906  0.41536  1.0000
  H   H1769     1.0  0.71937  0.45769  0.38997  1.0000
  C   C1766     1.0  0.67237  0.31937  0.40630  1.0000
  H   H1770     1.0  0.67183  0.42681  0.02655  1.0000
  C   C1767     1.0  0.70237  0.34154  0.43936  1.0000
  C   C1768     1.0  0.79092  0.37593  0.46456  1.0000
  C   C1769     1.0  0.70863  0.39145  0.32762  1.0000
  N   N146      1.0  0.67263  0.46260  0.42166  1.0000
  H   H1771     1.0  0.83641  0.28850  0.31497  1.0000
  H   H1772     1.0  0.71432  0.40409  0.33204  1.0000
  C   C1770     1.0  0.80429  0.33269  0.42905  1.0000
  C   C1771     1.0  0.69592  0.43291  0.43556  1.0000
  H   H1773     1.0  0.88484  0.29302  0.36914  1.0000
  C   C1772     1.0  0.88636  0.25422  0.31626  1.0000
  H   H1774     1.0  0.67248  0.36487  0.07350  1.0000
  C   C1773     1.0  0.92326  0.24806  0.31718  1.0000
  C   C1774     1.0  0.75954  0.36272  0.46561  1.0000
  C   C1775     1.0  0.68197  0.37236  0.08054  1.0000
  H   H1775     1.0  0.68481  0.48015  0.39290  1.0000
  H   H1776     1.0  0.81474  0.30292  0.44674  1.0000
  H   H1777     1.0  0.79799  0.36360  0.41214  1.0000
  H   H1778     1.0  0.70950  0.39451  0.31063  1.0000
  C   C1776     1.0  0.83555  0.32437  0.44384  1.0000
  C   C1777     1.0  0.70754  0.45451  0.40346  1.0000
  H   H1779     1.0  0.82847  0.26853  0.34908  1.0000
  H   H1780     1.0  0.85291  0.34912  0.43855  1.0000
  H   H1781     1.0  0.94821  0.26570  0.26437  1.0000
  C   C1778     1.0  0.69307  0.35177  0.47355  1.0000
  C   C1779     1.0  0.70728  0.33145  0.37877  1.0000
  C   C1780     1.0  0.70546  0.31050  0.38419  1.0000
  C   C1781     1.0  0.68819  0.30444  0.39820  1.0000
  C   C1782     1.0  0.67372  0.40788  0.34192  1.0000
  N   N147      1.0  0.68466  0.39303  0.06886  1.0000
  C   C1783     1.0  0.69155  0.34634  0.38711  1.0000
  H   H1782     1.0  0.71752  0.29890  0.37773  1.0000
  H   H1783     1.0  0.84355  0.37804  0.40190  1.0000
  H   H1784     1.0  0.83027  0.31309  0.32405  1.0000
  H   H1785     1.0  0.69243  0.36255  0.38257  1.0000
  C   C1784     1.0  0.75413  0.37892  0.44973  1.0000
  H   H1786     1.0  0.74956  0.35132  0.47212  1.0000
  H   H1787     1.0  0.95389  0.27607  0.35069  1.0000
  C   C1785     1.0  0.95535  0.26016  0.35885  1.0000
  C   C1786     1.0  0.78526  0.39228  0.44895  1.0000
  C   C1787     1.0  0.76704  0.39361  0.44134  1.0000
  C   C1788     1.0  0.93806  0.25027  0.36352  1.0000
  H   H1788     1.0  0.66330  0.33497  0.44832  1.0000
  H   H1789     1.0  0.79501  0.40394  0.44270  1.0000
  H   H1790     1.0  0.76281  0.40627  0.42922  1.0000
  C   C1789     1.0  0.85971  0.35093  0.31849  1.0000
  C   C1790     1.0  0.86628  0.35483  0.33548  1.0000
  C   C1791     1.0  0.85163  0.36331  0.35118  1.0000
  C   C1792     1.0  0.83036  0.36775  0.35008  1.0000
  C   C1793     1.0  0.82378  0.36352  0.33326  1.0000
  C   C1794     1.0  0.83844  0.35525  0.31747  1.0000
  H   H1791     1.0  0.88265  0.35159  0.33637  1.0000
  H   H1792     1.0  0.85683  0.36663  0.36411  1.0000
  H   H1793     1.0  0.80745  0.36698  0.33222  1.0000
  H   H1794     1.0  0.83328  0.35235  0.30430  1.0000
  C   C1795     1.0  0.96407  0.26437  0.25604  1.0000
  C   C1796     1.0  0.90559  0.26095  0.31073  1.0000
  H   H1795     1.0  0.69129  0.35740  0.33951  1.0000
  C   C1797     1.0  0.85836  0.26639  0.47003  1.0000
  H   H1796     1.0  0.90670  0.27605  0.30140  1.0000
  H   H1797     1.0  0.87282  0.26401  0.31094  1.0000
  C   C1798     1.0  0.68792  0.46715  0.40521  1.0000
  H   H1798     1.0  0.71869  0.33871  0.44194  1.0000
  H   H1799     1.0  0.83519  0.38603  0.42705  1.0000
  H   H1800     1.0  0.84618  0.31347  0.45283  1.0000
  S   S607      1.0  0.81367  0.37482  0.47382  1.0000
  H   H1801     1.0  0.70034  0.32803  0.43322  1.0000
  C   C1799     1.0  0.71149  0.43729  0.41878  1.0000
  C   C1800     1.0  0.69535  0.40460  0.07594  1.0000
  C   C1801     1.0  0.81790  0.31847  0.44047  1.0000
  C   C1802     1.0  0.86534  0.24089  0.44697  1.0000
  H   H1802     1.0  0.86810  0.26468  0.39266  1.0000
  C   C1803     1.0  0.83707  0.26775  0.47075  1.0000
  H   H1803     1.0  0.72651  0.42719  0.41762  1.0000
  H   H1804     1.0  0.68978  0.42473  0.38357  1.0000
  N   N148      1.0  0.68723  0.39017  0.33798  1.0000
  C   C1804     1.0  0.66783  0.34051  0.46046  1.0000
  C   C1805     1.0  0.98307  0.38232  0.24350  1.0000
  H   H1805     1.0  0.81345  0.25620  0.46122  1.0000
  H   H1806     1.0  0.81715  0.38974  0.40974  1.0000
  H   H1807     1.0  0.67346  0.37371  0.09643  1.0000
  H   H1808     1.0  0.98863  0.34510  0.27304  1.0000
  N   N149      1.0  0.82594  0.35833  0.42441  1.0000
  H   H1809     1.0  0.71940  0.37679  0.33200  1.0000
  H   H1810     1.0  0.67280  0.39636  0.45438  1.0000
  H   H1811     1.0  0.97873  0.33059  0.37509  1.0000
  H   H1812     1.0  0.85546  0.30496  0.30932  1.0000
  H   H1813     1.0  0.66741  0.39184  0.04592  1.0000
  C   C1806     1.0  0.67643  0.40074  0.05123  1.0000
  H   H1814     1.0  0.70007  0.35573  0.42750  1.0000
  C   C1807     1.0  0.67404  0.34035  0.40070  1.0000
  N   N150      1.0  0.68755  0.34429  0.45843  1.0000
  H   H1815     1.0  0.69728  0.36214  0.08128  1.0000
  C   C1808     1.0  0.98848  0.32343  0.34444  1.0000
  H   H1816     1.0  0.66205  0.35194  0.40707  1.0000
  H   H1817     1.0  0.79048  0.32835  0.42635  1.0000
  C   C1809     1.0  0.83932  0.34451  0.43567  1.0000
  C   C1810     1.0  0.68193  0.46717  0.34645  1.0000
  C   C1811     1.0  0.97024  0.28144  0.24185  1.0000
  H   H1818     1.0  0.98707  0.27674  0.36116  1.0000
  H   H1819     1.0  0.69002  0.47551  0.33256  1.0000
  C   C1812     1.0  0.66103  0.44607  0.38246  1.0000
  C   C1813     1.0  0.68059  0.37146  0.34271  1.0000
  H   H1820     1.0  0.68697  0.28817  0.40255  1.0000
  C   C1814     1.0  0.80863  0.35265  0.42102  1.0000
  C   C1815     1.0  0.82997  0.25550  0.45999  1.0000
  S   S608      1.0  0.71908  0.44064  0.34810  1.0000
  C   C1816     1.0  0.68186  0.43843  0.37501  1.0000
  H   H1821     1.0  0.70151  0.39868  0.09013  1.0000
  H   H1822     1.0  0.69887  0.41941  0.44739  1.0000
  S   S609      1.0  0.68527  0.47686  0.06846  1.0000
  C   C1817     1.0  0.69254  0.44914  0.35718  1.0000
  C   C1818     1.0  0.87246  0.25321  0.45774  1.0000
  C   C1819     1.0  0.66099  0.47477  0.35382  1.0000
  H   H1823     1.0  0.83978  0.25253  0.38235  1.0000
  N   N151      1.0  0.97398  0.24978  0.36398  1.0000
  N   N152      1.0  0.85005  0.28954  0.34065  1.0000
  C   C1820     1.0  0.84066  0.27416  0.35352  1.0000
  C   C1821     1.0  0.86565  0.29638  0.34617  1.0000
  C   C1822     1.0  0.84703  0.26501  0.37238  1.0000
  C   C1823     1.0  0.87242  0.28757  0.36491  1.0000
  C   C1824     1.0  0.86302  0.27177  0.37808  1.0000
  C   C1825     1.0  0.84263  0.29950  0.32132  1.0000
  C   C1826     1.0  0.84401  0.24165  0.44847  1.0000
  H   H1824     1.0  0.87301  0.30864  0.33601  1.0000
  C   C1827     1.0  0.68978  0.43240  0.04729  1.0000
  H   H1825     1.0  0.67887  0.42278  0.33765  1.0000
  H   H1826     1.0  0.70626  0.43378  0.07109  1.0000
  H   H1827     1.0  0.88897  0.25203  0.45704  1.0000
  H   H1828     1.0  0.92347  0.25835  0.35891  1.0000
  H   H1829     1.0  0.97523  0.40186  0.21532  1.0000
  H   H1830     1.0  0.95931  0.29581  0.23905  1.0000
  N   N153      1.0  0.97786  0.24625  0.25941  1.0000
  C   C1828     1.0  0.77809  0.36110  0.47290  1.0000
  C   C1829     1.0  0.66009  0.37007  0.35232  1.0000
  C   C1830     1.0  0.88460  0.23509  0.32909  1.0000
  H   H1831     1.0  0.69141  0.44798  0.03919  1.0000
  C   C1831     1.0  0.65802  0.39889  0.46458  1.0000
  C   C1832     1.0  0.67646  0.44582  0.43680  1.0000
  H   H1832     1.0  0.96698  0.38135  0.25023  1.0000
  C   C1833     1.0  0.67883  0.42053  0.04021  1.0000
  C   C1834     1.0  0.98764  0.39383  0.22370  1.0000
  H   H1833     1.0  0.70846  0.35540  0.47173  1.0000
  H   H1834     1.0  0.98032  0.36837  0.28415  1.0000
  Fe  Fe306     1.0  0.68728  0.38645  0.56437  1.0000
  S   S610      1.0  0.70629  0.40448  0.53833  1.0000
  S   S611      1.0  0.69703  0.35483  0.58209  1.0000
  Fe  Fe307     1.0  0.69266  0.43182  0.55463  1.0000
  N   N154      1.0  0.84860  0.32646  0.90318  1.0000
  S   S612      1.0  0.67499  0.41288  0.58166  1.0000
  Fe  Fe308     1.0  0.80207  0.42658  0.81699  1.0000
  S   S613      1.0  0.78638  0.43874  0.78929  1.0000
  S   S614      1.0  0.80181  0.39259  0.83025  1.0000
  Fe  Fe309     1.0  0.81340  0.46828  0.81651  1.0000
  C   C1835     1.0  0.86715  0.47080  0.61710  1.0000
  S   S615      1.0  0.86778  0.27955  0.48551  1.0000
  Fe  Fe310     1.0  0.77311  0.46709  0.80376  1.0000
  S   S616      1.0  0.81474  0.31484  0.49684  1.0000
  Fe  Fe311     1.0  0.81441  0.45369  0.77646  1.0000
  S   S617      1.0  0.83130  0.45538  0.74371  1.0000
  S   S618      1.0  0.78588  0.45352  0.83291  1.0000
  S   S619      1.0  0.83100  0.44017  0.80322  1.0000
  Fe  Fe312     1.0  0.88365  0.29727  0.85995  1.0000
  S   S620      1.0  0.90111  0.28080  0.88549  1.0000
  S   S621      1.0  0.88333  0.33180  0.85226  1.0000
  Fe  Fe313     1.0  0.87809  0.25657  0.85006  1.0000
  H   H1835     1.0  0.72319  0.41062  0.47667  1.0000
  C   C1836     1.0  0.71931  0.43747  0.49106  1.0000
  Fe  Fe314     1.0  0.87747  0.25977  0.89397  1.0000
  H   H1836     1.0  0.86461  0.39485  0.79624  1.0000
  Fe  Fe315     1.0  0.91758  0.25980  0.86313  1.0000
  S   S622      1.0  0.95220  0.25141  0.85561  1.0000
  S   S623      1.0  0.85820  0.27829  0.87055  1.0000
  S   S624      1.0  0.90164  0.27736  0.83703  1.0000
  C   C1837     1.0  0.81536  0.33272  0.89257  1.0000
  Fe  Fe316     1.0  0.90756  0.39245  0.65598  1.0000
  S   S625      1.0  0.87972  0.37841  0.65678  1.0000
  S   S626      1.0  0.91029  0.42543  0.64150  1.0000
  Fe  Fe317     1.0  0.92952  0.35417  0.68139  1.0000
  S   S627      1.0  0.90341  0.33679  0.68418  1.0000
  S   S628      1.0  0.95826  0.33869  0.69545  1.0000
  Fe  Fe318     1.0  0.90295  0.34994  0.65054  1.0000
  S   S629      1.0  0.90222  0.32916  0.62802  1.0000
  Fe  Fe319     1.0  0.88254  0.36671  0.68994  1.0000
  S   S630      1.0  0.85425  0.36841  0.71468  1.0000
  S   S631      1.0  0.93090  0.36497  0.64713  1.0000
  S   S632      1.0  0.90864  0.38301  0.68982  1.0000
  Fe  Fe320     1.0  0.82080  0.34637  0.49724  1.0000
  H   H1837     1.0  0.97969  0.35712  0.81688  1.0000
  Fe  Fe321     1.0  0.84084  0.33280  0.53572  1.0000
  S   S633      1.0  0.83737  0.29946  0.53842  1.0000
  S   S634      1.0  0.84786  0.35189  0.55702  1.0000
  Fe  Fe322     1.0  0.84688  0.30358  0.50369  1.0000
  Fe  Fe323     1.0  0.80553  0.31277  0.53102  1.0000
  S   S635      1.0  0.77924  0.29684  0.54847  1.0000
  S   S636      1.0  0.85379  0.33563  0.50165  1.0000
  S   S637      1.0  0.80801  0.34553  0.53074  1.0000
  C   C1838     1.0  0.88459  0.33464  0.61049  1.0000
  C   C1839     1.0  0.87194  0.35406  0.60690  1.0000
  C   C1840     1.0  0.86017  0.35876  0.59093  1.0000
  C   C1841     1.0  0.86087  0.34411  0.57846  1.0000
  C   C1842     1.0  0.87290  0.32443  0.58254  1.0000
  C   C1843     1.0  0.88470  0.31973  0.59851  1.0000
  H   H1838     1.0  0.87172  0.36568  0.61598  1.0000
  H   H1839     1.0  0.85088  0.37403  0.58790  1.0000
  H   H1840     1.0  0.87355  0.31301  0.57308  1.0000
  H   H1841     1.0  0.89440  0.30464  0.60125  1.0000
  C   C1844     1.0  0.95995  0.36748  0.71915  1.0000
  H   H1842     1.0  0.94647  0.37681  0.71324  1.0000
  C   C1845     1.0  0.96416  0.27311  0.85231  1.0000
  H   H1843     1.0  0.85782  0.29638  0.92039  1.0000
  H   H1844     1.0  0.85796  0.40990  0.77212  1.0000
  H   H1845     1.0  0.85083  0.24640  0.52389  1.0000
  C   C1846     1.0  0.96885  0.30318  0.86452  1.0000
  C   C1847     1.0  0.95795  0.28693  0.86632  1.0000
  C   C1848     1.0  0.98588  0.30575  0.84863  1.0000
  C   C1849     1.0  0.82792  0.29951  0.91207  1.0000
  H   H1846     1.0  0.80945  0.47650  0.69936  1.0000
  H   H1847     1.0  0.94522  0.28468  0.87897  1.0000
  H   H1848     1.0  0.85790  0.47152  0.66325  1.0000
  H   H1849     1.0  0.88284  0.40042  0.55393  1.0000
  H   H1850     1.0  0.98303  0.25395  0.90559  1.0000
  S   S638      1.0  0.67956  0.40997  0.49001  1.0000
  H   H1851     1.0  0.94061  0.34190  0.83898  1.0000
  C   C1850     1.0  0.94377  0.30739  0.80764  1.0000
  C   C1851     1.0  0.82478  0.37593  0.83577  1.0000
  C   C1852     1.0  0.82558  0.35439  0.83895  1.0000
  C   C1853     1.0  0.84370  0.34065  0.84343  1.0000
  C   C1854     1.0  0.86098  0.34844  0.84507  1.0000
  C   C1855     1.0  0.86022  0.36996  0.84182  1.0000
  C   C1856     1.0  0.84215  0.38369  0.83717  1.0000
  H   H1852     1.0  0.81214  0.34834  0.83785  1.0000
  H   H1853     1.0  0.84418  0.32406  0.84592  1.0000
  H   H1854     1.0  0.87353  0.37606  0.84320  1.0000
  H   H1855     1.0  0.84155  0.40028  0.83499  1.0000
  C   C1857     1.0  0.83748  0.43121  0.73572  1.0000
  C   C1858     1.0  0.85269  0.42829  0.71832  1.0000
  C   C1859     1.0  0.85772  0.40909  0.71165  1.0000
  C   C1860     1.0  0.84755  0.39274  0.72238  1.0000
  C   C1861     1.0  0.83214  0.39573  0.73963  1.0000
  C   C1862     1.0  0.82715  0.41493  0.74634  1.0000
  H   H1856     1.0  0.86056  0.44092  0.70994  1.0000
  H   H1857     1.0  0.86912  0.40715  0.69794  1.0000
  H   H1858     1.0  0.82414  0.38315  0.74789  1.0000
  H   H1859     1.0  0.81527  0.41710  0.75967  1.0000
  C   C1863     1.0  0.72790  0.44715  0.50287  1.0000
  H   H1860     1.0  0.88137  0.32169  0.90114  1.0000
  C   C1864     1.0  0.96820  0.34807  0.71344  1.0000
  C   C1865     1.0  0.71935  0.33908  0.57112  1.0000
  C   C1866     1.0  0.72360  0.31827  0.58040  1.0000
  C   C1867     1.0  0.74184  0.30543  0.57303  1.0000
  C   C1868     1.0  0.75621  0.31339  0.55659  1.0000
  C   C1869     1.0  0.75208  0.33426  0.54720  1.0000
  C   C1870     1.0  0.73352  0.34709  0.55437  1.0000
  H   H1861     1.0  0.71278  0.31204  0.59342  1.0000
  H   H1862     1.0  0.74497  0.28933  0.58032  1.0000
  H   H1863     1.0  0.76306  0.34042  0.53434  1.0000
  H   H1864     1.0  0.73042  0.36317  0.54720  1.0000
  C   C1871     1.0  0.67880  0.35527  0.49146  1.0000
  C   C1872     1.0  0.86144  0.43810  0.61141  1.0000
  C   C1873     1.0  0.87784  0.42754  0.62162  1.0000
  C   C1874     1.0  0.88930  0.43856  0.62919  1.0000
  C   C1875     1.0  0.88402  0.46024  0.62681  1.0000
  S   S639      1.0  0.86344  0.24171  0.83127  1.0000
  H   H1865     1.0  0.85288  0.42951  0.60522  1.0000
  H   H1866     1.0  0.88190  0.41091  0.62314  1.0000
  C   C1876     1.0  0.79993  0.24996  0.52187  1.0000
  H   H1867     1.0  0.97396  0.34099  0.77778  1.0000
  C   C1877     1.0  0.81759  0.25384  0.52725  1.0000
  Fe  Fe324     1.0  0.67783  0.41239  0.52346  1.0000
  C   C1878     1.0  0.83347  0.33952  0.89354  1.0000
  C   C1879     1.0  0.93762  0.31694  0.82501  1.0000
  C   C1880     1.0  0.96363  0.33440  0.79106  1.0000
  C   C1881     1.0  0.84592  0.30676  0.91260  1.0000
  C   C1882     1.0  0.87886  0.37610  0.75848  1.0000
  H   H1868     1.0  0.71970  0.46163  0.50769  1.0000
  H   H1869     1.0  0.77348  0.32683  0.59160  1.0000
  S   S640      1.0  0.86099  0.24944  0.92609  1.0000
  C   C1883     1.0  0.77694  0.40917  0.51005  1.0000
  H   H1870     1.0  0.79877  0.30699  0.90103  1.0000
  C   C1884     1.0  0.88577  0.35815  0.74968  1.0000
  C   C1885     1.0  0.95683  0.31618  0.79049  1.0000
  H   H1871     1.0  0.84809  0.44019  0.65641  1.0000
  C   C1886     1.0  0.96967  0.37518  0.73191  1.0000
  H   H1872     1.0  0.93865  0.29306  0.80759  1.0000
  N   N155      1.0  0.86247  0.37697  0.77453  1.0000
  H   H1873     1.0  0.83884  0.39763  0.79051  1.0000
  H   H1874     1.0  0.95409  0.37280  0.81763  1.0000
  H   H1875     1.0  0.83550  0.35519  0.88611  1.0000
  H   H1876     1.0  0.95140  0.42914  0.67413  1.0000
  H   H1877     1.0  0.96186  0.30883  0.77693  1.0000
  C   C1887     1.0  0.70875  0.46921  0.58930  1.0000
  H   H1878     1.0  0.85137  0.32886  0.78004  1.0000
  C   C1888     1.0  0.74689  0.43769  0.50907  1.0000
  H   H1879     1.0  0.89127  0.41642  0.58064  1.0000
  H   H1880     1.0  0.81609  0.26537  0.53687  1.0000
  H   H1881     1.0  0.75330  0.44529  0.51840  1.0000
  N   N156      1.0  0.75682  0.41890  0.50397  1.0000
  S   S641      1.0  0.71887  0.44920  0.55491  1.0000
  H   H1882     1.0  0.77759  0.39218  0.51542  1.0000
  C   C1889     1.0  0.96281  0.41494  0.67424  1.0000
  C   C1890     1.0  0.86746  0.33379  0.90422  1.0000
  H   H1883     1.0  0.86638  0.33768  0.91970  1.0000
  H   H1884     1.0  0.96352  0.39043  0.73582  1.0000
  H   H1885     1.0  0.80367  0.34301  0.88441  1.0000
  S   S642      1.0  0.83611  0.47243  0.59533  1.0000
  C   C1891     1.0  0.96081  0.39967  0.66391  1.0000
  C   C1892     1.0  0.96595  0.36193  0.80904  1.0000
  H   H1886     1.0  0.92758  0.31019  0.83850  1.0000
  H   H1887     1.0  0.83041  0.41035  0.67278  1.0000
  H   H1888     1.0  0.75472  0.46593  0.55610  1.0000
  N   N157      1.0  0.83004  0.45988  0.67717  1.0000
  C   C1893     1.0  0.81400  0.46205  0.69340  1.0000
  C   C1894     1.0  0.83558  0.44178  0.66944  1.0000
  C   C1895     1.0  0.80359  0.44551  0.70286  1.0000
  C   C1896     1.0  0.82550  0.42493  0.67850  1.0000
  C   C1897     1.0  0.80952  0.42679  0.69543  1.0000
  C   C1898     1.0  0.85571  0.39574  0.78382  1.0000
  H   H1889     1.0  0.94786  0.40195  0.65582  1.0000
  S   S643      1.0  0.79984  0.48299  0.78833  1.0000
  H   H1890     1.0  0.79141  0.44705  0.71621  1.0000
  C   C1899     1.0  0.74753  0.48183  0.58219  1.0000
  H   H1891     1.0  0.80202  0.41363  0.70301  1.0000
  H   H1892     1.0  0.86999  0.34771  0.89226  1.0000
  H   H1893     1.0  0.97081  0.37059  0.79331  1.0000
  C   C1900     1.0  0.87579  0.34109  0.75740  1.0000
  H   H1894     1.0  0.98581  0.26519  0.82542  1.0000
  C   C1901     1.0  0.81264  0.31255  0.90184  1.0000
  H   H1895     1.0  0.82607  0.28373  0.91929  1.0000
  C   C1902     1.0  0.84100  0.47721  0.66755  1.0000
  N   N158      1.0  0.75483  0.37845  0.58638  1.0000
  C   C1903     1.0  0.77317  0.38586  0.58052  1.0000
  C   C1904     1.0  0.75488  0.35753  0.59090  1.0000
  C   C1905     1.0  0.79217  0.37216  0.57835  1.0000
  C   C1906     1.0  0.77357  0.34341  0.58863  1.0000
  C   C1907     1.0  0.79231  0.35082  0.58236  1.0000
  C   C1908     1.0  0.73508  0.39299  0.58880  1.0000
  H   H1896     1.0  0.77316  0.40244  0.57752  1.0000
  H   H1897     1.0  0.74040  0.35163  0.59614  1.0000
  H   H1898     1.0  0.80677  0.37794  0.57354  1.0000
  H   H1899     1.0  0.68310  0.36174  0.50314  1.0000
  H   H1900     1.0  0.97371  0.36914  0.65670  1.0000
  H   H1901     1.0  0.73582  0.40769  0.57750  1.0000
  H   H1902     1.0  0.72218  0.38631  0.58613  1.0000
  H   H1903     1.0  0.73122  0.39675  0.60463  1.0000
  N   N159      1.0  0.91644  0.35999  0.57451  1.0000
  C   C1909     1.0  0.92100  0.36858  0.58940  1.0000
  C   C1910     1.0  0.90311  0.37129  0.56171  1.0000
  C   C1911     1.0  0.91208  0.38900  0.59181  1.0000
  C   C1912     1.0  0.89378  0.39169  0.56379  1.0000
  C   C1913     1.0  0.89840  0.40060  0.57888  1.0000
  C   C1914     1.0  0.92668  0.33889  0.57167  1.0000
  H   H1904     1.0  0.93128  0.35948  0.59978  1.0000
  H   H1905     1.0  0.89916  0.36438  0.55014  1.0000
  H   H1906     1.0  0.91563  0.39573  0.60373  1.0000
  H   H1907     1.0  0.96423  0.31362  0.87559  1.0000
  C   C1915     1.0  0.85600  0.45972  0.60919  1.0000
  H   H1908     1.0  0.91712  0.33146  0.56469  1.0000
  H   H1909     1.0  0.94207  0.33928  0.56158  1.0000
  H   H1910     1.0  0.92882  0.32885  0.58679  1.0000
  H   H1911     1.0  0.98094  0.42359  0.69285  1.0000
  H   H1912     1.0  0.69373  0.46454  0.59217  1.0000
  C   C1916     1.0  0.97543  0.38140  0.66418  1.0000
  C   C1917     1.0  0.98752  0.36345  0.73927  1.0000
  H   H1913     1.0  0.83997  0.36083  0.79531  1.0000
  H   H1914     1.0  0.80696  0.34008  0.58055  1.0000
  H   H1915     1.0  0.89295  0.46886  0.63249  1.0000
  C   C1918     1.0  0.98097  0.27586  0.83627  1.0000
  N   N160      1.0  0.95769  0.34355  0.80824  1.0000
  H   H1916     1.0  0.88052  0.32737  0.75021  1.0000
  C   C1919     1.0  0.65869  0.35139  0.49368  1.0000
  C   C1920     1.0  0.83713  0.24290  0.52003  1.0000
  C   C1921     1.0  0.85931  0.34201  0.77400  1.0000
  H   H1917     1.0  0.88630  0.38951  0.75201  1.0000
  C   C1922     1.0  0.72974  0.41849  0.48566  1.0000
  H   H1918     1.0  0.89826  0.35772  0.73646  1.0000
  C   C1923     1.0  0.85289  0.36015  0.78251  1.0000
  C   C1924     1.0  0.94495  0.33498  0.82514  1.0000
  C   C1925     1.0  0.74845  0.40934  0.49246  1.0000
  C   C1926     1.0  0.72364  0.46366  0.57246  1.0000
  H   H1919     1.0  0.78476  0.25862  0.52724  1.0000
  H   H1920     1.0  0.65975  0.24132  0.93487  1.0000
  S   S644      1.0  0.66547  0.44129  0.53730  1.0000
  H   H1921     1.0  0.77988  0.41576  0.52278  1.0000
  S   S645      1.0  0.89572  0.23695  0.87407  1.0000
  H   H1922     1.0  0.75609  0.39439  0.48872  1.0000
  C   C1927     1.0  0.74304  0.47005  0.56905  1.0000
  H   H1923     1.0  0.78218  0.34866  0.48524  1.0000
  H   H1924     1.0  0.78964  0.41142  0.49657  1.0000
  C   C1928     1.0  0.97951  0.41168  0.68478  1.0000
  H   H1925     1.0  0.70438  0.44436  0.48652  1.0000
  C   C1929     1.0  0.98576  0.33619  0.72121  1.0000
  H   H1926     1.0  0.82600  0.27751  0.48031  1.0000
  H   H1927     1.0  0.84965  0.48136  0.79134  1.0000
  C   C1930     1.0  0.65689  0.40543  0.48338  1.0000
  C   C1931     1.0  0.80195  0.23506  0.50952  1.0000
  S   S646      1.0  0.66028  0.39158  0.54821  1.0000
  C   C1932     1.0  0.71317  0.48121  0.60231  1.0000
  H   H1928     1.0  0.84782  0.68720  0.09020  1.0000
  C   C1933     1.0  0.84137  0.63422  0.16470  1.0000
  C   C1934     1.0  0.96432  0.69300  0.08877  1.0000
  H   H1929     1.0  0.85820  0.59479  0.17347  1.0000
  H   H1930     1.0  0.68788  0.54897  0.04814  1.0000
  Fe  Fe325     1.0  0.90167  0.64883  0.14350  1.0000
  S   S647      1.0  0.90199  0.63708  0.11457  1.0000
  S   S648      1.0  0.88283  0.67979  0.14910  1.0000
  Fe  Fe326     1.0  0.93353  0.61247  0.15962  1.0000
  S   S649      1.0  0.93579  0.59760  0.13196  1.0000
  S   S650      1.0  0.95539  0.59504  0.18192  1.0000
  Fe  Fe327     1.0  0.93635  0.62956  0.11364  1.0000
  S   S651      1.0  0.95955  0.63476  0.08451  1.0000
  Fe  Fe328     1.0  0.90098  0.60635  0.13552  1.0000
  S   S652      1.0  0.88142  0.58309  0.13337  1.0000
  S   S653      1.0  0.93635  0.64390  0.14082  1.0000
  S   S654      1.0  0.89847  0.61850  0.16494  1.0000
  Fe  Fe329     1.0  0.74884  0.55515  0.08743  1.0000
  S   S655      1.0  0.74452  0.58745  0.09431  1.0000
  Fe  Fe330     1.0  0.78025  0.56503  0.04886  1.0000
  S   S656      1.0  0.77736  0.59823  0.05180  1.0000
  S   S657      1.0  0.80244  0.55054  0.02368  1.0000
  Fe  Fe331     1.0  0.77921  0.58557  0.08522  1.0000
  S   S658      1.0  0.79712  0.60445  0.09772  1.0000
  Fe  Fe332     1.0  0.74333  0.59750  0.06075  1.0000
  S   S659      1.0  0.71753  0.62360  0.05311  1.0000
  S   S660      1.0  0.78394  0.55198  0.08182  1.0000
  S   S661      1.0  0.74593  0.56557  0.05422  1.0000
  H   H1931     1.0  0.83411  0.54219  0.98968  1.0000
  H   H1932     1.0  0.69872  0.57657  0.10794  1.0000
  H   H1933     1.0  0.73504  0.52199  0.06652  1.0000
  H   H1934     1.0  0.95389  0.68412  0.03525  1.0000
  H   H1935     1.0  0.65858  0.53182  0.06845  1.0000
  C   C1935     1.0  0.69779  0.50990  0.10773  1.0000
  H   H1936     1.0  0.85679  0.61317  0.97893  1.0000
  C   C1936     1.0  0.96809  0.65847  0.08090  1.0000
  C   C1937     1.0  0.95723  0.67408  0.09202  1.0000
  H   H1937     1.0  0.94306  0.67184  0.10271  1.0000
  C   C1938     1.0  0.85951  0.58886  0.12088  1.0000
  C   C1939     1.0  0.85210  0.60904  0.11153  1.0000
  C   C1940     1.0  0.83345  0.61332  0.10361  1.0000
  C   C1941     1.0  0.82207  0.59753  0.10485  1.0000
  C   C1942     1.0  0.82992  0.57721  0.11340  1.0000
  C   C1943     1.0  0.84851  0.57295  0.12145  1.0000
  H   H1938     1.0  0.86039  0.62144  0.11096  1.0000
  H   H1939     1.0  0.82751  0.62911  0.09701  1.0000
  H   H1940     1.0  0.82128  0.56492  0.11457  1.0000
  H   H1941     1.0  0.85415  0.55727  0.12860  1.0000
  H   H1942     1.0  0.78873  0.59398  0.00715  1.0000
  H   H1943     1.0  0.71220  0.67277  0.00957  1.0000
  H   H1944     1.0  0.98602  0.64274  0.27666  1.0000
  C   C1944     1.0  0.96469  0.62649  0.19793  1.0000
  C   C1945     1.0  0.96815  0.60529  0.19712  1.0000
  H   H1945     1.0  0.98523  0.71869  0.11920  1.0000
  C   C1946     1.0  0.71385  0.65779  0.98374  1.0000
  C   C1947     1.0  0.95462  0.72366  0.03643  1.0000
  H   H1946     1.0  0.95364  0.63714  0.18937  1.0000
  H   H1947     1.0  0.71874  0.49954  0.05202  1.0000
  S   S662      1.0  0.72631  0.53450  0.10702  1.0000
  C   C1948     1.0  0.69595  0.49332  0.07938  1.0000
  C   C1949     1.0  0.68022  0.55292  0.06304  1.0000
  N   N161      1.0  0.84205  0.61185  0.01066  1.0000
  H   H1948     1.0  0.89873  0.67800  0.08042  1.0000
  H   H1949     1.0  0.66142  0.64181  0.01319  1.0000
  C   C1950     1.0  0.68582  0.61849  0.00135  1.0000
  C   C1951     1.0  0.67593  0.63166  0.01542  1.0000
  C   C1952     1.0  0.68547  0.63263  0.03176  1.0000
  C   C1953     1.0  0.70474  0.62021  0.03421  1.0000
  C   C1954     1.0  0.71420  0.60637  0.02068  1.0000
  C   C1955     1.0  0.70479  0.60560  0.00417  1.0000
  H   H1950     1.0  0.96989  0.71397  0.03177  1.0000
  H   H1951     1.0  0.67816  0.64339  0.04219  1.0000
  H   H1952     1.0  0.72923  0.59700  0.02228  1.0000
  C   C1956     1.0  0.82830  0.61180  0.04667  1.0000
  C   C1957     1.0  0.71465  0.51897  0.09593  1.0000
  C   C1958     1.0  0.73999  0.64992  0.00536  1.0000
  C   C1959     1.0  0.86835  0.71567  0.12422  1.0000
  C   C1960     1.0  0.87106  0.69394  0.12817  1.0000
  C   C1961     1.0  0.86381  0.68372  0.11572  1.0000
  C   C1962     1.0  0.85377  0.69515  0.09953  1.0000
  H   H1953     1.0  0.69205  0.51259  0.12339  1.0000
  H   H1954     1.0  0.86530  0.66704  0.11895  1.0000
  C   C1963     1.0  0.97533  0.63389  0.21012  1.0000
  C   C1964     1.0  0.81051  0.56666  0.00049  1.0000
  C   C1965     1.0  0.80153  0.58764  0.99625  1.0000
  C   C1966     1.0  0.81903  0.65713  0.14252  1.0000
  H   H1955     1.0  0.79904  0.64214  0.13132  1.0000
  C   C1967     1.0  0.98826  0.61025  0.13221  1.0000
  C   C1968     1.0  0.98241  0.59166  0.20854  1.0000
  H   H1956     1.0  0.95581  0.70508  0.09729  1.0000
  H   H1957     1.0  0.82571  0.58180  0.06550  1.0000
  H   H1958     1.0  0.87371  0.72364  0.13396  1.0000
  H   H1959     1.0  0.70014  0.57440  0.06248  1.0000
  H   H1960     1.0  0.98223  0.62042  0.30904  1.0000
  C   C1969     1.0  0.72195  0.51532  0.07573  1.0000
  H   H1961     1.0  0.92817  0.66266  0.05567  1.0000
  H   H1962     1.0  0.76538  0.62561  0.99809  1.0000
  H   H1963     1.0  0.85666  0.63542  0.98992  1.0000
  C   C1970     1.0  0.91008  0.68726  0.07134  1.0000
  C   C1971     1.0  0.81817  0.62040  0.15122  1.0000
  H   H1964     1.0  0.74555  0.65224  0.01860  1.0000
  C   C1972     1.0  0.83402  0.62245  0.02669  1.0000
  H   H1965     1.0  0.97391  0.63902  0.32641  1.0000
  H   H1966     1.0  0.81375  0.67251  0.13429  1.0000
  C   C1973     1.0  0.83841  0.57956  0.03368  1.0000
  C   C1974     1.0  0.75100  0.63468  0.99387  1.0000
  H   H1967     1.0  0.83191  0.63927  0.02406  1.0000
  H   H1968     1.0  0.97241  0.65028  0.21077  1.0000
  H   H1969     1.0  0.82182  0.62023  0.05935  1.0000
  C   C1975     1.0  0.98591  0.66188  0.06642  1.0000
  C   C1976     1.0  0.94104  0.69095  0.04590  1.0000
  C   C1977     1.0  0.84427  0.59067  0.01395  1.0000
  C   C1978     1.0  0.82714  0.55840  0.98645  1.0000
  N   N162      1.0  0.93944  0.71095  0.04863  1.0000
  H   H1970     1.0  0.97933  0.59886  0.14178  1.0000
  C   C1979     1.0  0.68719  0.56719  0.07129  1.0000
  C   C1980     1.0  0.92325  0.71947  0.06216  1.0000
  H   H1971     1.0  0.85025  0.58223  0.00124  1.0000
  H   H1972     1.0  0.83305  0.63123  0.98359  1.0000
  C   C1981     1.0  0.84743  0.62347  0.98979  1.0000
  C   C1982     1.0  0.83051  0.59022  0.05014  1.0000
  H   H1973     1.0  0.76125  0.60052  0.97707  1.0000
  H   H1974     1.0  0.71247  0.59544  0.99325  1.0000
  C   C1983     1.0  0.83424  0.65420  0.15472  1.0000
  H   H1975     1.0  0.67553  0.49024  0.10879  1.0000
  H   H1976     1.0  0.85325  0.63212  0.17406  1.0000
  H   H1977     1.0  0.83266  0.59409  0.18919  1.0000
  C   C1984     1.0  0.85143  0.71683  0.09531  1.0000
  C   C1985     1.0  0.90843  0.70775  0.07376  1.0000
  H   H1978     1.0  0.81197  0.60724  0.14949  1.0000
  C   C1986     1.0  0.92647  0.67876  0.05731  1.0000
  C   C1987     1.0  0.85877  0.72712  0.10763  1.0000
  C   C1988     1.0  0.84132  0.59677  0.17316  1.0000
  C   C1989     1.0  0.81077  0.64017  0.14088  1.0000
  H   H1979     1.0  0.98509  0.57523  0.20813  1.0000
  H   H1980     1.0  0.67404  0.59416  0.10987  1.0000
  C   C1990     1.0  0.71271  0.50249  0.06756  1.0000
  H   H1981     1.0  0.69323  0.59761  0.08703  1.0000
  N   N163      1.0  0.83363  0.61758  0.16253  1.0000
  C   C1991     1.0  0.68638  0.58574  0.09926  1.0000
  H   H1982     1.0  0.83970  0.58459  0.16491  1.0000
  H   H1983     1.0  0.84070  0.66729  0.15624  1.0000
  H   H1984     1.0  0.80451  0.72279  0.99008  1.0000
  C   C1992     1.0  0.72124  0.66144  0.00031  1.0000
  H   H1985     1.0  0.69906  0.66630  0.97994  1.0000
  N   N164      1.0  0.67800  0.57177  0.09035  1.0000
  C   C1993     1.0  0.98947  0.62021  0.22165  1.0000
  H   H1986     1.0  0.89577  0.71453  0.08455  1.0000
  C   C1994     1.0  0.81926  0.72420  0.98002  1.0000
  H   H1987     1.0  0.98235  0.59367  0.09675  1.0000
  H   H1988     1.0  0.83953  0.56282  0.03609  1.0000
  S   S663      1.0  0.67587  0.61973  0.97898  1.0000
  C   C1995     1.0  0.98248  0.69613  0.07467  1.0000
  N   N165      1.0  0.74338  0.63083  0.97798  1.0000
  C   C1996     1.0  0.98925  0.62774  0.13999  1.0000
  C   C1997     1.0  0.98757  0.63081  0.31697  1.0000
  S   S664      1.0  0.83835  0.73066  0.07527  1.0000
  C   C1998     1.0  0.66189  0.56240  0.10166  1.0000
  C   C1999     1.0  0.68839  0.49722  0.09948  1.0000
  C   C2000     1.0  0.80943  0.60037  0.97804  1.0000
  H   H1989     1.0  0.98117  0.62976  0.15538  1.0000
  H   H1990     1.0  0.94866  0.73302  0.02250  1.0000
  C   C2001     1.0  0.66377  0.54332  0.07444  1.0000
  Fe  Fe333     1.0  0.86068  0.57781  0.74784  1.0000
  S   S665      1.0  0.82627  0.58574  0.75702  1.0000
  S   S666      1.0  0.87534  0.54430  0.75370  1.0000
  Fe  Fe334     1.0  0.86512  0.62182  0.72773  1.0000
  S   S667      1.0  0.83068  0.63329  0.73543  1.0000
  S   S668      1.0  0.88540  0.64546  0.71055  1.0000
  Fe  Fe335     1.0  0.83288  0.61357  0.76663  1.0000
  S   S669      1.0  0.81321  0.62028  0.79719  1.0000
  Fe  Fe336     1.0  0.82731  0.60441  0.72527  1.0000
  S   S670      1.0  0.80371  0.60428  0.70571  1.0000
  S   S671      1.0  0.86757  0.60404  0.75987  1.0000
  S   S672      1.0  0.86140  0.59456  0.71513  1.0000
  Fe  Fe337     1.0  0.80662  0.68410  0.93200  1.0000
  S   S673      1.0  0.83545  0.66566  0.91618  1.0000
  H   H1991     1.0  0.84184  0.55539  0.63263  1.0000
  Fe  Fe338     1.0  0.77817  0.65985  0.91956  1.0000
  S   S674      1.0  0.80482  0.63938  0.90367  1.0000
  S   S675      1.0  0.74665  0.65152  0.92194  1.0000
  Fe  Fe339     1.0  0.82003  0.63813  0.93052  1.0000
  S   S676      1.0  0.83869  0.60777  0.94278  1.0000
  Fe  Fe340     1.0  0.81760  0.66854  0.89040  1.0000
  S   S677      1.0  0.83342  0.67286  0.85682  1.0000
  S   S678      1.0  0.79231  0.65598  0.94789  1.0000
  S   S679      1.0  0.78979  0.68964  0.90482  1.0000
  H   H1992     1.0  0.75854  0.59550  0.60684  1.0000
  Fe  Fe341     1.0  0.86390  0.69577  0.57239  1.0000
  S   S680      1.0  0.85752  0.68552  0.60670  1.0000
  S   S681      1.0  0.89459  0.68432  0.55403  1.0000
  H   H1993     1.0  0.74978  0.55668  0.74397  1.0000
  S   S682      1.0  0.81110  0.71271  0.60461  1.0000
  S   S683      1.0  0.96925  0.61780  0.65112  1.0000
  Fe  Fe342     1.0  0.84228  0.71872  0.60704  1.0000
  H   H1994     1.0  0.76188  0.60805  0.58040  1.0000
  Fe  Fe343     1.0  0.82712  0.68017  0.60127  1.0000
  S   S684      1.0  0.81368  0.65203  0.62001  1.0000
  H   H1995     1.0  0.84704  0.71224  0.93435  1.0000
  S   S685      1.0  0.83482  0.68786  0.56677  1.0000
  Fe  Fe344     1.0  0.76774  0.51321  0.61616  1.0000
  S   S686      1.0  0.79171  0.51941  0.58790  1.0000
  S   S687      1.0  0.73701  0.50344  0.61534  1.0000
  Fe  Fe345     1.0  0.79552  0.52093  0.64426  1.0000
  S   S688      1.0  0.82176  0.52620  0.61797  1.0000
  S   S689      1.0  0.80259  0.52093  0.67576  1.0000
  Fe  Fe346     1.0  0.79664  0.54576  0.60146  1.0000
  S   S690      1.0  0.80226  0.57670  0.58171  1.0000
  Fe  Fe347     1.0  0.81438  0.49947  0.60736  1.0000
  N   N166      1.0  0.72926  0.52707  0.85354  1.0000
  S   S691      1.0  0.77043  0.54170  0.62822  1.0000
  C   C2002     1.0  0.83526  0.57113  0.96857  1.0000
  Fe  Fe348     1.0  0.69757  0.63228  0.83568  1.0000
  S   S692      1.0  0.71335  0.59926  0.83926  1.0000
  S   S693      1.0  0.71429  0.65706  0.83888  1.0000
  Fe  Fe349     1.0  0.68268  0.59197  0.85625  1.0000
  Fe  Fe350     1.0  0.70110  0.59794  0.81121  1.0000
  S   S694      1.0  0.72559  0.58265  0.78797  1.0000
  S   S695      1.0  0.68764  0.63197  0.80593  1.0000
  C   C2003     1.0  0.72935  0.55542  0.79341  1.0000
  C   C2004     1.0  0.71297  0.54486  0.80305  1.0000
  S   S696      1.0  0.67123  0.58779  0.82865  1.0000
  H   H1996     1.0  0.69762  0.55347  0.80747  1.0000
  H   H1997     1.0  0.77442  0.49842  0.83408  1.0000
  H   H1998     1.0  0.66617  0.69929  0.87058  1.0000
  C   C2005     1.0  0.76360  0.55912  0.73185  1.0000
  C   C2006     1.0  0.82655  0.59213  0.96435  1.0000
  H   H1999     1.0  0.94964  0.65765  0.66311  1.0000
  H   H2000     1.0  0.72584  0.55706  0.86112  1.0000
  H   H2001     1.0  0.79296  0.56391  0.75105  1.0000
  H   H2002     1.0  0.70270  0.51303  0.85553  1.0000
  H   H2003     1.0  0.85633  0.62690  0.61821  1.0000
  H   H2004     1.0  0.82394  0.53825  0.75929  1.0000
  C   C2007     1.0  0.80950  0.63178  0.60896  1.0000
  C   C2008     1.0  0.81451  0.63190  0.58769  1.0000
  C   C2009     1.0  0.81213  0.61496  0.57957  1.0000
  C   C2010     1.0  0.80504  0.59761  0.59264  1.0000
  C   C2011     1.0  0.79995  0.59748  0.61392  1.0000
  C   C2012     1.0  0.80201  0.61458  0.62200  1.0000
  H   H2005     1.0  0.82032  0.64500  0.57749  1.0000
  H   H2006     1.0  0.81602  0.61522  0.56309  1.0000
  H   H2007     1.0  0.79444  0.58424  0.62417  1.0000
  H   H2008     1.0  0.79806  0.61434  0.63848  1.0000
  C   C2013     1.0  0.85752  0.59987  0.60529  1.0000
  H   H2009     1.0  0.73707  0.49679  0.84553  1.0000
  C   C2014     1.0  0.68283  0.65351  0.92599  1.0000
  H   H2010     1.0  0.95040  0.64407  0.71680  1.0000
  C   C2015     1.0  0.73648  0.54426  0.85499  1.0000
  C   C2016     1.0  0.94638  0.70257  0.57728  1.0000
  C   C2017     1.0  0.95025  0.68470  0.56844  1.0000
  C   C2018     1.0  0.93442  0.67931  0.56092  1.0000
  C   C2019     1.0  0.91458  0.69151  0.56270  1.0000
  C   C2020     1.0  0.91074  0.70937  0.57154  1.0000
  C   C2021     1.0  0.92674  0.71511  0.57841  1.0000
  H   H2011     1.0  0.93748  0.66554  0.55398  1.0000
  C   C2022     1.0  0.85673  0.72917  0.95375  1.0000
  H   H2012     1.0  0.86285  0.60718  0.58962  1.0000
  H   H2013     1.0  0.76752  0.51409  0.78573  1.0000
  H   H2014     1.0  0.82382  0.62131  0.65957  1.0000
  C   C2023     1.0  0.85389  0.61092  0.62157  1.0000
  H   H2015     1.0  0.85517  0.57129  0.59665  1.0000
  S   S697      1.0  0.85111  0.72948  0.57300  1.0000
  H   H2016     1.0  0.88673  0.72768  0.61165  1.0000
  H   H2017     1.0  0.83576  0.57556  0.66067  1.0000
  C   C2024     1.0  0.84065  0.61449  0.65782  1.0000
  C   C2025     1.0  0.74000  0.65118  0.89805  1.0000
  C   C2026     1.0  0.74600  0.66551  0.88058  1.0000
  C   C2027     1.0  0.73848  0.66677  0.86229  1.0000
  C   C2028     1.0  0.72530  0.65343  0.86124  1.0000
  C   C2029     1.0  0.72012  0.63837  0.87838  1.0000
  C   C2030     1.0  0.72732  0.63739  0.89682  1.0000
  H   H2018     1.0  0.75581  0.67617  0.88137  1.0000
  H   H2019     1.0  0.74259  0.67841  0.84905  1.0000
  H   H2020     1.0  0.71003  0.62795  0.87767  1.0000
  H   H2021     1.0  0.72278  0.62613  0.91024  1.0000
  C   C2031     1.0  0.80508  0.58157  0.69575  1.0000
  C   C2032     1.0  0.81896  0.56346  0.70141  1.0000
  C   C2033     1.0  0.81864  0.54511  0.69451  1.0000
  C   C2034     1.0  0.80473  0.54482  0.68163  1.0000
  C   C2035     1.0  0.79165  0.56321  0.67507  1.0000
  C   C2036     1.0  0.79171  0.58148  0.68225  1.0000
  H   H2022     1.0  0.82956  0.56341  0.71157  1.0000
  H   H2023     1.0  0.82896  0.53099  0.69950  1.0000
  H   H2024     1.0  0.78087  0.56318  0.66514  1.0000
  H   H2025     1.0  0.78109  0.59551  0.67762  1.0000
  C   C2037     1.0  0.90811  0.63775  0.69328  1.0000
  C   C2038     1.0  0.92113  0.65221  0.68371  1.0000
  C   C2039     1.0  0.93952  0.64652  0.67005  1.0000
  C   C2040     1.0  0.93201  0.61180  0.67554  1.0000
  C   C2041     1.0  0.91355  0.61753  0.68910  1.0000
  H   H2026     1.0  0.91712  0.66779  0.68712  1.0000
  H   H2027     1.0  0.93633  0.59602  0.67265  1.0000
  H   H2028     1.0  0.90371  0.60622  0.69650  1.0000
  C   C2042     1.0  0.81848  0.63610  0.81281  1.0000
  C   C2043     1.0  0.80598  0.63710  0.83228  1.0000
  C   C2044     1.0  0.81014  0.64865  0.84568  1.0000
  C   C2045     1.0  0.82683  0.65943  0.83971  1.0000
  C   C2046     1.0  0.83905  0.65884  0.82002  1.0000
  C   C2047     1.0  0.83500  0.64711  0.80665  1.0000
  H   H2029     1.0  0.79306  0.62879  0.83714  1.0000
  H   H2030     1.0  0.80031  0.64930  0.86056  1.0000
  H   H2031     1.0  0.85190  0.66726  0.81521  1.0000
  H   H2032     1.0  0.84466  0.64656  0.79163  1.0000
  C   C2048     1.0  0.86136  0.52994  0.77495  1.0000
  C   C2049     1.0  0.86136  0.50902  0.77501  1.0000
  C   C2050     1.0  0.74270  0.51053  0.84658  1.0000
  S   S698      1.0  0.68317  0.57034  0.88632  1.0000
  C   C2051     1.0  0.84981  0.53926  0.79156  1.0000
  H   H2033     1.0  0.87019  0.50181  0.76216  1.0000
  H   H2034     1.0  0.76797  0.62027  0.95504  1.0000
  H   H2035     1.0  0.84977  0.55543  0.79156  1.0000
  C   C2052     1.0  0.70700  0.52649  0.85988  1.0000
  S   S699      1.0  0.66761  0.62521  0.85515  1.0000
  H   H2036     1.0  0.84374  0.60475  0.67278  1.0000
  S   S700      1.0  0.98422  0.67421  0.63453  1.0000
  C   C2053     1.0  0.85568  0.71405  0.51218  1.0000
  S   S701      1.0  0.96556  0.70908  0.58775  1.0000
  C   C2054     1.0  0.71629  0.52305  0.80629  1.0000
  H   H2037     1.0  0.96552  0.67522  0.56704  1.0000
  H   H2038     1.0  0.71910  0.63928  0.96011  1.0000
  C   C2055     1.0  0.77131  0.52895  0.84102  1.0000
  H   H2039     1.0  0.83004  0.50337  0.74956  1.0000
  C   C2056     1.0  0.75757  0.54555  0.84862  1.0000
  C   C2057     1.0  0.84313  0.71825  0.94866  1.0000
  H   H2040     1.0  0.84851  0.56468  0.95810  1.0000
  C   C2058     1.0  0.84212  0.58239  0.64522  1.0000
  H   H2041     1.0  0.76635  0.57522  0.73047  1.0000
  C   C2059     1.0  0.83868  0.52749  0.80841  1.0000
  C   C2060     1.0  0.75238  0.52243  0.79074  1.0000
  H   H2042     1.0  0.89555  0.71897  0.57278  1.0000
  H   H2043     1.0  0.87642  0.71317  0.67225  1.0000
  H   H2044     1.0  0.67496  0.57857  0.92782  1.0000
  N   N167      1.0  0.76864  0.63420  0.77184  1.0000
  C   C2061     1.0  0.76359  0.61534  0.78146  1.0000
  C   C2062     1.0  0.76739  0.64942  0.78305  1.0000
  C   C2063     1.0  0.75777  0.61109  0.80290  1.0000
  C   C2064     1.0  0.76138  0.64576  0.80452  1.0000
  C   C2065     1.0  0.75665  0.62642  0.81447  1.0000
  C   C2066     1.0  0.77417  0.63843  0.74928  1.0000
  H   H2045     1.0  0.76388  0.60349  0.77257  1.0000
  H   H2046     1.0  0.77119  0.66445  0.77549  1.0000
  H   H2047     1.0  0.75383  0.59608  0.81035  1.0000
  H   H2048     1.0  0.76035  0.65779  0.81345  1.0000
  H   H2049     1.0  0.75186  0.62351  0.83110  1.0000
  H   H2050     1.0  0.78372  0.62447  0.74337  1.0000
  H   H2051     1.0  0.75985  0.64297  0.74234  1.0000
  H   H2052     1.0  0.78354  0.65104  0.74399  1.0000
  N   N168      1.0  0.78174  0.54374  0.73698  1.0000
  C   C2067     1.0  0.78465  0.52436  0.73214  1.0000
  C   C2068     1.0  0.79537  0.54864  0.74702  1.0000
  C   C2069     1.0  0.80206  0.50960  0.73654  1.0000
  C   C2070     1.0  0.81295  0.53424  0.75166  1.0000
  C   C2071     1.0  0.81641  0.51469  0.74614  1.0000
  H   H2053     1.0  0.86249  0.70466  0.52517  1.0000
  H   H2054     1.0  0.97137  0.59721  0.69489  1.0000
  H   H2055     1.0  0.83001  0.53461  0.82136  1.0000
  C   C2072     1.0  0.83855  0.50659  0.80833  1.0000
  H   H2056     1.0  0.93722  0.66942  0.61292  1.0000
  H   H2057     1.0  0.76318  0.55932  0.84959  1.0000
  C   C2073     1.0  0.66036  0.58153  0.92230  1.0000
  N   N169      1.0  0.74587  0.58210  0.58756  1.0000
  C   C2074     1.0  0.75644  0.57471  0.57008  1.0000
  C   C2075     1.0  0.73099  0.57212  0.60056  1.0000
  C   C2076     1.0  0.75220  0.55685  0.56528  1.0000
  C   C2077     1.0  0.72624  0.55434  0.59613  1.0000
  C   C2078     1.0  0.73699  0.54664  0.57842  1.0000
  H   H2058     1.0  0.76859  0.58230  0.55997  1.0000
  H   H2059     1.0  0.76101  0.55069  0.55175  1.0000
  H   H2060     1.0  0.71478  0.54610  0.60670  1.0000
  H   H2061     1.0  0.73386  0.53245  0.57522  1.0000
  H   H2062     1.0  0.68361  0.70556  0.88413  1.0000
  Fe  Fe351     1.0  0.82129  0.72090  0.57036  1.0000
  H   H2063     1.0  0.78773  0.52960  0.83593  1.0000
  C   C2079     1.0  0.76386  0.51131  0.84008  1.0000
  H   H2064     1.0  0.69348  0.68248  0.91392  1.0000
  H   H2065     1.0  0.87414  0.68664  0.68405  1.0000
  H   H2066     1.0  0.67147  0.62453  0.93349  1.0000
  C   C2080     1.0  0.75091  0.60033  0.59301  1.0000
  H   H2067     1.0  0.76024  0.55790  0.71670  1.0000
  H   H2068     1.0  0.84957  0.62739  0.65452  1.0000
  C   C2081     1.0  0.73605  0.51174  0.80024  1.0000
  C   C2082     1.0  0.68045  0.69295  0.87746  1.0000
  C   C2083     1.0  0.74905  0.54416  0.78741  1.0000
  H   H2069     1.0  0.97443  0.59757  0.72092  1.0000
  H   H2070     1.0  0.76179  0.55229  0.78027  1.0000
  H   H2071     1.0  0.73665  0.61192  0.59629  1.0000
  C   C2084     1.0  0.82400  0.71624  0.96150  1.0000
  H   H2072     1.0  0.70248  0.52570  0.87687  1.0000
  H   H2073     1.0  0.85992  0.70036  0.66359  1.0000
  N   N170      1.0  0.84519  0.59610  0.85359  1.0000
  C   C2085     1.0  0.85607  0.61215  0.84899  1.0000
  C   C2086     1.0  0.83808  0.58818  0.87370  1.0000
  C   C2087     1.0  0.85993  0.62078  0.86472  1.0000
  C   C2088     1.0  0.84194  0.59625  0.88984  1.0000
  C   C2089     1.0  0.85289  0.61269  0.88526  1.0000
  C   C2090     1.0  0.84062  0.58753  0.83702  1.0000
  H   H2074     1.0  0.86142  0.61872  0.83308  1.0000
  H   H2075     1.0  0.82925  0.57563  0.87736  1.0000
  H   H2076     1.0  0.86777  0.63409  0.86098  1.0000
  H   H2077     1.0  0.83615  0.59012  0.90582  1.0000
  H   H2078     1.0  0.85552  0.61942  0.89762  1.0000
  H   H2079     1.0  0.84624  0.57050  0.83899  1.0000
  H   H2080     1.0  0.82360  0.59079  0.83709  1.0000
  H   H2081     1.0  0.84811  0.59459  0.82148  1.0000
  H   H2082     1.0  0.65808  0.63006  0.90067  1.0000
  Fe  Fe352     1.0  0.65852  0.62211  0.82572  1.0000
  C   C2091     1.0  0.82630  0.72731  0.49468  1.0000
  S   S702      1.0  0.80423  0.70706  0.95366  1.0000
  C   C2092     1.0  0.68523  0.67132  0.91111  1.0000
  H   H2083     1.0  0.92378  0.72912  0.58485  1.0000
  N   N171      1.0  0.84619  0.60216  0.64123  1.0000
  C   C2093     1.0  0.97365  0.66229  0.70064  1.0000
  N   N172      1.0  0.67765  0.67439  0.89313  1.0000
  H   H2084     1.0  0.74491  0.60947  0.95789  1.0000
  S   S703      1.0  0.82406  0.49201  0.82899  1.0000
  N   N173      1.0  0.89217  0.69000  0.65396  1.0000
  C   C2094     1.0  0.91004  0.69819  0.64905  1.0000
  C   C2095     1.0  0.89046  0.67403  0.64501  1.0000
  C   C2096     1.0  0.92636  0.69113  0.63402  1.0000
  C   C2097     1.0  0.90661  0.66639  0.63011  1.0000
  C   C2098     1.0  0.92461  0.67511  0.62453  1.0000
  C   C2099     1.0  0.87487  0.69789  0.66928  1.0000
  H   H2085     1.0  0.91159  0.71058  0.65643  1.0000
  H   H2086     1.0  0.87649  0.66721  0.64934  1.0000
  C   C2100     1.0  0.84969  0.49747  0.79149  1.0000
  H   H2087     1.0  0.90519  0.65386  0.62286  1.0000
  C   C2101     1.0  0.67308  0.63858  0.92218  1.0000
  C   C2102     1.0  0.73257  0.48760  0.59890  1.0000
  H   H2088     1.0  0.68887  0.65104  0.94023  1.0000
  N   N174      1.0  0.97613  0.62603  0.70014  1.0000
  C   C2103     1.0  0.84558  0.57088  0.62936  1.0000
  C   C2104     1.0  0.85318  0.57976  0.60923  1.0000
  H   H2089     1.0  0.70352  0.51493  0.81351  1.0000
  C   C2105     1.0  0.94510  0.62623  0.66606  1.0000
  H   H2090     1.0  0.80278  0.61662  0.97498  1.0000
  H   H2091     1.0  0.94022  0.69815  0.62962  1.0000
  H   H2092     1.0  0.69778  0.54079  0.85224  1.0000
  C   C2106     1.0  0.96549  0.64389  0.70687  1.0000
  H   H2093     1.0  0.72298  0.57765  0.61468  1.0000
  C   C2107     1.0  0.66554  0.64174  0.90376  1.0000
  C   C2108     1.0  0.75498  0.61445  0.96646  1.0000
  H   H2094     1.0  0.77377  0.52039  0.72435  1.0000
  S   S704      1.0  0.79033  0.49217  0.63516  1.0000
  H   H2095     1.0  0.66248  0.66211  0.87481  1.0000
  C   C2109     1.0  0.66802  0.65983  0.88928  1.0000
  H   H2096     1.0  0.87107  0.73142  0.94328  1.0000
  H   H2097     1.0  0.70142  0.48559  0.61513  1.0000
  H   H2098     1.0  0.82507  0.70654  0.52402  1.0000
  C   C2110     1.0  0.96773  0.60671  0.70734  1.0000
  C   C2111     1.0  0.66000  0.57839  0.90248  1.0000
  H   H2099     1.0  0.95050  0.60986  0.71165  1.0000
  C   C2112     1.0  0.83480  0.71496  0.51145  1.0000
  Fe  Fe353     1.0  0.98742  0.68104  0.60008  1.0000
  H   H2100     1.0  0.80450  0.49436  0.73243  1.0000
  H   H2101     1.0  0.96503  0.67651  0.70570  1.0000
  H   H2102     1.0  0.80996  0.72820  0.49447  1.0000
  H   H2103     1.0  0.69360  0.68904  0.86496  1.0000
  C   C2113     1.0  0.72522  0.64238  0.97263  1.0000
  H   H2104     1.0  0.86322  0.48755  0.61511  1.0000
  H   H2105     1.0  0.83928  0.48827  0.67828  1.0000
  C   C2114     1.0  0.86777  0.72550  0.49619  1.0000
  Fe  Fe354     1.0  0.98837  0.64103  0.63099  1.0000
  H   H2106     1.0  0.88398  0.72499  0.49674  1.0000
  S   S705      1.0  0.74004  0.48437  0.80561  1.0000
  H   H2107     1.0  0.83465  0.48572  0.65354  1.0000
  H   H2108     1.0  0.76252  0.48658  0.57929  1.0000
  S   S706      1.0  0.98910  0.64807  0.59676  1.0000
  Fe  Fe355     1.0  0.86578  0.76553  0.00626  1.0000
  S   S707      1.0  0.83643  0.77450  0.02808  1.0000
  Fe  Fe356     1.0  0.89287  0.77355  0.03484  1.0000
  S   S708      1.0  0.86549  0.78178  0.05926  1.0000
  S   S709      1.0  0.92615  0.77360  0.03752  1.0000
  Fe  Fe357     1.0  0.85377  0.75516  0.05275  1.0000
  S   S710      1.0  0.82846  0.97685  0.09638  1.0000
  Fe  Fe358     1.0  0.85097  0.80045  0.03241  1.0000
  S   S711      1.0  0.83321  0.83328  0.03311  1.0000
  C   C2115     1.0  0.96223  0.78229  0.13426  1.0000
  S   S712      1.0  0.87895  0.79348  0.00815  1.0000
  C   C2116     1.0  0.72917  0.97135  0.33493  1.0000
  S   S713      1.0  0.86032  0.96051  0.05604  1.0000
  H   H2109     1.0  0.85667  0.74389  0.10464  1.0000
  Fe  Fe359     1.0  0.82752  0.94296  0.10822  1.0000
  S   S714      1.0  0.86196  0.93289  0.10157  1.0000
  S   S715      1.0  0.81216  0.92695  0.13847  1.0000
  S   S716      1.0  0.95775  0.89566  0.14398  1.0000
  Fe  Fe360     1.0  0.85611  0.92813  0.07138  1.0000
  S   S717      1.0  0.87383  0.89832  0.06074  1.0000
  C   C2117     1.0  0.93001  0.87159  0.16864  1.0000
  S   S718      1.0  0.82145  0.93641  0.07881  1.0000
  S   S719      1.0  0.82167  0.96340  0.21460  1.0000
  S   S720      1.0  0.94102  0.84175  0.08273  1.0000
  Fe  Fe361     1.0  0.76646  0.84975  0.45182  1.0000
  C   C2118     1.0  0.84354  0.85230  0.10248  1.0000
  C   C2119     1.0  0.85201  0.87880  0.11788  1.0000
  Fe  Fe362     1.0  0.80198  0.86104  0.41768  1.0000
  S   S721      1.0  0.81492  0.82775  0.41501  1.0000
  S   S722      1.0  0.81635  0.88721  0.39666  1.0000
  Fe  Fe363     1.0  0.78158  0.82535  0.41693  1.0000
  S   S723      1.0  0.77123  0.80736  0.39739  1.0000
  Fe  Fe364     1.0  0.80818  0.82157  0.44980  1.0000
  H   H2110     1.0  0.73046  0.89885  0.31834  1.0000
  S   S724      1.0  0.76899  0.85900  0.41763  1.0000
  S   S725      1.0  0.79820  0.85527  0.45236  1.0000
  Fe  Fe365     1.0  0.83828  0.93949  0.23697  1.0000
  S   S726      1.0  0.87288  0.93305  0.22934  1.0000
  C   C2120     1.0  0.79867  0.95590  0.36095  1.0000
  Fe  Fe366     1.0  0.83683  0.90863  0.27690  1.0000
  S   S727      1.0  0.87149  0.89883  0.27251  1.0000
  S   S728      1.0  0.81360  0.89383  0.30203  1.0000
  Fe  Fe367     1.0  0.87183  0.93301  0.26274  1.0000
  H   H2111     1.0  0.96670  0.88785  0.20026  1.0000
  Fe  Fe368     1.0  0.86989  0.89974  0.23932  1.0000
  S   S729      1.0  0.88788  0.87508  0.22102  1.0000
  S   S730      1.0  0.83718  0.94293  0.26962  1.0000
  S   S731      1.0  0.83509  0.90608  0.24454  1.0000
  Fe  Fe369     1.0  0.69427  0.93399  0.34061  1.0000
  S   S732      1.0  0.68530  0.91620  0.31971  1.0000
  Fe  Fe370     1.0  0.69580  0.88819  0.34241  1.0000
  S   S733      1.0  0.71490  0.85876  0.33296  1.0000
  S   S734      1.0  0.70634  0.90567  0.36205  1.0000
  H   H2112     1.0  0.85966  0.86625  0.12889  1.0000
  C   C2121     1.0  0.86795  0.96938  0.29519  1.0000
  C   C2122     1.0  0.86991  0.92660  0.17037  1.0000
  S   S735      1.0  0.89688  0.94759  0.26845  1.0000
  C   C2123     1.0  0.92609  0.90226  0.24727  1.0000
  H   H2113     1.0  0.72549  0.87414  0.43511  1.0000
  H   H2114     1.0  0.86410  0.88481  0.10533  1.0000
  H   H2115     1.0  0.93781  0.77868  0.09605  1.0000
  H   H2116     1.0  0.80010  0.97231  0.32968  1.0000
  C   C2124     1.0  0.81741  0.88750  0.37021  1.0000
  C   C2125     1.0  0.80612  0.87530  0.36392  1.0000
  C   C2126     1.0  0.80546  0.87708  0.34290  1.0000
  C   C2127     1.0  0.81633  0.89082  0.32800  1.0000
  C   C2128     1.0  0.82799  0.90272  0.33419  1.0000
  C   C2129     1.0  0.82843  0.90114  0.35528  1.0000
  H   H2117     1.0  0.79767  0.86468  0.37528  1.0000
  H   H2118     1.0  0.79642  0.86780  0.33823  1.0000
  H   H2119     1.0  0.83634  0.91344  0.32280  1.0000
  H   H2120     1.0  0.83713  0.91066  0.36008  1.0000
  C   C2130     1.0  0.75720  0.82206  0.37822  1.0000
  C   C2131     1.0  0.75421  0.84377  0.37427  1.0000
  C   C2132     1.0  0.74133  0.85517  0.36030  1.0000
  C   C2133     1.0  0.73165  0.84487  0.34997  1.0000
  C   C2134     1.0  0.73547  0.82317  0.35312  1.0000
  C   C2135     1.0  0.74809  0.81180  0.36731  1.0000
  H   H2121     1.0  0.76194  0.85181  0.38176  1.0000
  H   H2122     1.0  0.73927  0.87187  0.35726  1.0000
  H   H2123     1.0  0.72829  0.81513  0.34491  1.0000
  H   H2124     1.0  0.75056  0.79502  0.37007  1.0000
  H   H2125     1.0  0.77486  0.91428  0.38055  1.0000
  C   C2136     1.0  0.70277  0.83540  0.40005  1.0000
  H   H2126     1.0  0.97038  0.81026  0.06174  1.0000
  C   C2137     1.0  0.83027  0.84478  0.09341  1.0000
  H   H2127     1.0  0.85883  0.84325  0.10387  1.0000
  C   C2138     1.0  0.90554  0.88210  0.19844  1.0000
  C   C2139     1.0  0.91431  0.86741  0.18559  1.0000
  C   C2140     1.0  0.94729  0.85656  0.22058  1.0000
  N   N175      1.0  0.97675  0.75092  0.12056  1.0000
  S   S736      1.0  0.66715  0.90298  0.41419  1.0000
  H   H2128     1.0  0.91813  0.97600  0.27827  1.0000
  C   C2141     1.0  0.75833  0.88159  0.30312  1.0000
  C   C2142     1.0  0.89736  0.92513  0.14072  1.0000
  H   H2129     1.0  0.79433  0.85529  0.29993  1.0000
  C   C2143     1.0  0.77663  0.89998  0.27313  1.0000
  H   H2130     1.0  0.71344  0.80234  0.40572  1.0000
  C   C2144     1.0  0.81495  0.93718  0.15950  1.0000
  C   C2145     1.0  0.81134  0.92571  0.17947  1.0000
  C   C2146     1.0  0.81357  0.93363  0.19643  1.0000
  C   C2147     1.0  0.81899  0.95324  0.19352  1.0000
  S   S737      1.0  0.73779  0.85882  0.47434  1.0000
  C   C2148     1.0  0.82075  0.95663  0.15655  1.0000
  H   H2131     1.0  0.80679  0.91068  0.18181  1.0000
  H   H2132     1.0  0.81057  0.92478  0.21180  1.0000
  C   C2149     1.0  0.88838  0.96627  0.28452  1.0000
  C   C2150     1.0  0.92933  0.88251  0.24212  1.0000
  H   H2133     1.0  0.93505  0.93972  0.13116  1.0000
  C   C2151     1.0  0.84412  0.85111  0.04163  1.0000
  C   C2152     1.0  0.83353  0.87163  0.04155  1.0000
  C   C2153     1.0  0.84202  0.88616  0.04814  1.0000
  C   C2154     1.0  0.86125  0.88026  0.05466  1.0000
  C   C2155     1.0  0.87159  0.85967  0.05510  1.0000
  C   C2156     1.0  0.86311  0.84514  0.04860  1.0000
  H   H2134     1.0  0.81878  0.87633  0.03622  1.0000
  H   H2135     1.0  0.83395  0.90202  0.04762  1.0000
  H   H2136     1.0  0.88648  0.85509  0.06004  1.0000
  H   H2137     1.0  0.87138  0.82941  0.04872  1.0000
  C   C2157     1.0  0.93057  0.79130  0.05151  1.0000
  C   C2158     1.0  0.91395  0.80366  0.06200  1.0000
  C   C2159     1.0  0.91760  0.81840  0.07224  1.0000
  C   C2160     1.0  0.93787  0.82104  0.07201  1.0000
  C   C2161     1.0  0.95466  0.80829  0.06204  1.0000
  C   C2162     1.0  0.95098  0.79340  0.05182  1.0000
  H   H2138     1.0  0.89823  0.80207  0.06205  1.0000
  H   H2139     1.0  0.90460  0.82794  0.08025  1.0000
  C   C2163     1.0  0.94843  0.78792  0.12029  1.0000
  H   H2140     1.0  0.96396  0.78380  0.04379  1.0000
  H   H2141     1.0  0.80090  0.85136  0.08297  1.0000
  H   H2142     1.0  0.75667  0.86732  0.31401  1.0000
  Fe  Fe371     1.0  0.97433  0.86994  0.12598  1.0000
  C   C2164     1.0  0.83305  0.73472  0.98533  1.0000
  N   N176      1.0  0.91754  0.86542  0.02376  1.0000
  C   C2165     1.0  0.92370  0.84493  0.02207  1.0000
  C   C2166     1.0  0.90110  0.87707  0.01512  1.0000
  C   C2167     1.0  0.91310  0.83546  0.01182  1.0000
  C   C2168     1.0  0.89020  0.86815  0.00465  1.0000
  C   C2169     1.0  0.89619  0.84717  0.00314  1.0000
  C   C2170     1.0  0.92736  0.87452  0.03642  1.0000
  H   H2143     1.0  0.93660  0.83564  0.02904  1.0000
  H   H2144     1.0  0.89568  0.89309  0.01720  1.0000
  H   H2145     1.0  0.91769  0.81902  0.01109  1.0000
  H   H2146     1.0  0.96368  0.74638  0.09586  1.0000
  H   H2147     1.0  0.73016  0.80332  0.43505  1.0000
  H   H2148     1.0  0.92828  0.89103  0.02984  1.0000
  H   H2149     1.0  0.91470  0.90621  0.26054  1.0000
  H   H2150     1.0  0.95313  0.85659  0.20382  1.0000
  C   C2171     1.0  0.74531  0.91776  0.29162  1.0000
  H   H2151     1.0  0.90926  0.85253  0.18902  1.0000
  H   H2152     1.0  0.78334  0.85234  0.27846  1.0000
  C   C2172     1.0  0.95229  0.91176  0.21818  1.0000
  N   N177      1.0  0.71230  0.85464  0.42193  1.0000
  C   C2173     1.0  0.72157  0.83659  0.43267  1.0000
  C   C2174     1.0  0.70270  0.85420  0.40601  1.0000
  C   C2175     1.0  0.72204  0.81752  0.42706  1.0000
  S   S738      1.0  0.88255  0.74497  0.03079  1.0000
  H   H2153     1.0  0.96117  0.92316  0.20853  1.0000
  H   H2154     1.0  0.91809  0.87373  0.05228  1.0000
  H   H2155     1.0  0.72895  0.83686  0.44547  1.0000
  C   C2176     1.0  0.82914  0.75086  0.46139  1.0000
  C   C2177     1.0  0.97620  0.76351  0.13434  1.0000
  C   C2178     1.0  0.81861  0.88287  0.10641  1.0000
  H   H2156     1.0  0.78966  0.90041  0.26047  1.0000
  C   C2179     1.0  0.88078  0.91687  0.15391  1.0000
  H   H2157     1.0  0.73376  0.93166  0.29338  1.0000
  H   H2158     1.0  0.89744  0.96540  0.16325  1.0000
  H   H2159     1.0  0.71986  0.95798  0.36671  1.0000
  H   H2160     1.0  0.81306  0.75878  0.46649  1.0000
  C   C2180     1.0  0.95538  0.89174  0.21363  1.0000
  H   H2161     1.0  0.93480  0.93248  0.23889  1.0000
  H   H2162     1.0  0.95873  0.84608  0.22954  1.0000
  H   H2163     1.0  0.74861  0.92608  0.34258  1.0000
  H   H2164     1.0  0.76189  0.89011  0.47339  1.0000
  N   N178      1.0  0.77473  0.88208  0.28711  1.0000
  H   H2165     1.0  0.69513  0.86845  0.39765  1.0000
  N   N179      1.0  0.83754  0.87103  0.10901  1.0000
  C   C2181     1.0  0.92030  0.95087  0.12977  1.0000
  H   H2166     1.0  0.95749  0.73450  0.04558  1.0000
  C   C2182     1.0  0.90225  0.97851  0.28633  1.0000
  C   C2183     1.0  0.96319  0.75626  0.10690  1.0000
  C   C2184     1.0  0.79139  0.93958  0.37530  1.0000
  C   C2185     1.0  0.87581  0.94429  0.17358  1.0000
  S   S739      1.0  0.66205  0.93780  0.35966  1.0000
  H   H2167     1.0  0.77131  0.97888  0.01702  1.0000
  N   N180      1.0  0.94373  0.87753  0.22539  1.0000
  H   H2168     1.0  0.93673  0.86002  0.15912  1.0000
  C   C2186     1.0  0.72891  0.96868  0.35618  1.0000
  H   H2169     1.0  0.78043  0.94959  0.31973  1.0000
  H   H2170     1.0  0.69753  0.87807  0.43954  1.0000
  H   H2171     1.0  0.85701  0.92040  0.18069  1.0000
  C   C2187     1.0  0.71178  0.87449  0.42812  1.0000
  H   H2172     1.0  0.83519  0.83009  0.08787  1.0000
  H   H2173     1.0  0.92201  0.96604  0.13287  1.0000
  C   C2188     1.0  0.82244  0.96480  0.17358  1.0000
  C   C2189     1.0  0.94862  0.77463  0.10680  1.0000
  C   C2190     1.0  0.74344  0.89940  0.30565  1.0000
  H   H2174     1.0  0.81391  0.89783  0.11139  1.0000
  H   H2175     1.0  0.87643  0.90300  0.15144  1.0000
  C   C2191     1.0  0.89275  0.95184  0.16040  1.0000
  H   H2176     1.0  0.96235  0.79248  0.14482  1.0000
  H   H2177     1.0  0.94337  0.86607  0.03770  1.0000
  Fe  Fe372     1.0  0.86261  0.96615  0.08715  1.0000
  H   H2178     1.0  0.84391  0.89155  0.12649  1.0000
  C   C2192     1.0  0.91222  0.90126  0.19387  1.0000
  N   N181      1.0  0.90298  0.94252  0.14396  1.0000
  C   C2193     1.0  0.93712  0.89048  0.16436  1.0000
  H   H2179     1.0  0.79471  0.93631  0.39088  1.0000
  Fe  Fe373     1.0  0.96896  0.84447  0.09534  1.0000
  H   H2180     1.0  0.90588  0.91259  0.20380  1.0000
  H   H2181     1.0  0.88739  0.83988  0.99575  1.0000
  Fe  Fe374     1.0  0.67357  0.90773  0.37931  1.0000
  C   C2194     1.0  0.76467  0.91758  0.34335  1.0000
  S   S740      1.0  0.97846  0.87558  0.09135  1.0000
  C   C2195     1.0  0.92796  0.90544  0.17688  1.0000
  N   N182      1.0  0.77664  0.93056  0.34947  1.0000
  C   C2196     1.0  0.78016  0.92711  0.36932  1.0000
  H   H2182     1.0  0.71190  0.88732  0.41461  1.0000
  H   H2183     1.0  0.82886  0.74124  0.99936  1.0000
  C   C2197     1.0  0.78365  0.94658  0.33532  1.0000
  H   H2184     1.0  0.77213  0.91352  0.32798  1.0000
  S   S741      1.0  0.96298  0.84001  0.12984  1.0000
  C   C2198     1.0  0.79482  0.95943  0.34081  1.0000
  Fe  Fe375     1.0  0.82588  0.96942  0.06612  1.0000
  H   H2185     1.0  0.82884  0.74072  0.45039  1.0000
  H   H2186     1.0  0.90586  0.91746  0.12799  1.0000
  C   C2199     1.0  0.76203  0.91811  0.27524  1.0000
  H   H2187     1.0  0.76369  0.93232  0.26425  1.0000
  H   H2188     1.0  0.91754  0.95358  0.11360  1.0000
  H   H2189     1.0  0.91995  0.87132  0.25136  1.0000
  H   H2190     1.0  0.93339  0.92010  0.17372  1.0000
  H   H2191     1.0  0.77767  0.97678  0.07407  1.0000
  C   C2200     1.0  0.81099  0.85677  0.09062  1.0000
  H   H2192     1.0  0.79020  0.88551  0.09489  1.0000
  C   C2201     1.0  0.80507  0.87594  0.09717  1.0000
  S   S742      1.0  0.77609  0.81575  0.45134  1.0000
  C   C2202     1.0  0.78994  0.86307  0.28475  1.0000
  H   H2193     1.0  0.80459  0.86650  0.27440  1.0000
  H   H2194     1.0  0.80717  0.96587  0.36543  1.0000
  S   S743      1.0  0.71544  0.95737  0.32425  1.0000
  H   H2195     1.0  0.93252  0.85029  0.22433  1.0000
  H   H2196     1.0  0.86005  0.98137  0.12878  1.0000
  H   H2197     1.0  0.82351  0.96560  0.14123  1.0000
  H   H2198     1.0  0.69570  0.83521  0.38699  1.0000
  H   H2199     1.0  0.83805  0.76336  0.45313  1.0000
  C   C2203     1.0  0.71262  0.81697  0.41061  1.0000
  H   H2200     1.0  0.87662  0.87720  0.99861  1.0000
  C   C2204     1.0  0.93752  0.91701  0.23512  1.0000
  H   H2201     1.0  0.93772  0.80262  0.11980  1.0000
  H   H2202     1.0  0.76398  0.90274  0.35438  1.0000
  S   S744      1.0  0.66412  0.88769  0.36141  1.0000
  H   H2203     1.0  0.85737  0.95955  0.29439  1.0000
  H   H2204     1.0  0.82659  0.97999  0.17126  1.0000
  S   S745      1.0  0.83076  0.80148  0.46987  1.0000
  H   H2205     1.0  0.86723  0.95215  0.18616  1.0000
  H   H2206     1.0  0.86821  0.74671  0.46735  1.0000
  H   H2207     1.0  0.92176  0.73541  0.06412  1.0000
  C   C2205     1.0  0.74023  0.98007  0.36384  1.0000
  H   H2208     1.0  0.73984  0.97797  0.38029  1.0000
  H   H2209     1.0  0.98687  0.75935  0.14526  1.0000
  H   H2210     1.0  0.78513  0.77336  0.97758  1.0000
  H   H2211     1.0  0.66001  0.84104  0.53087  1.0000
  Fe  Fe376     1.0  0.67452  0.95586  0.80236  1.0000
  C   C2206     1.0  0.90344  0.74457  0.62485  1.0000
  H   H2212     1.0  0.70816  0.92148  0.68401  1.0000
  C   C2207     1.0  0.97583  0.83228  0.72741  1.0000
  C   C2208     1.0  0.81457  0.78100  0.96100  1.0000
  H   H2213     1.0  0.69773  0.95990  0.84500  1.0000
  H   H2214     1.0  0.79179  0.74276  0.91997  1.0000
  S   S746      1.0  0.68328  0.80016  0.51687  1.0000
  Fe  Fe377     1.0  0.76645  0.84354  0.61194  1.0000
  S   S747      1.0  0.75959  0.87832  0.60490  1.0000
  S   S748      1.0  0.79581  0.82335  0.62175  1.0000
  Fe  Fe378     1.0  0.72633  0.83928  0.59846  1.0000
  S   S749      1.0  0.71658  0.87367  0.59005  1.0000
  S   S750      1.0  0.70467  0.81740  0.59872  1.0000
  Fe  Fe379     1.0  0.75024  0.87347  0.57638  1.0000
  S   S751      1.0  0.76132  0.89194  0.54574  1.0000
  Fe  Fe380     1.0  0.72656  0.87530  0.61935  1.0000
  S   S752      1.0  0.70531  0.89411  0.64215  1.0000
  S   S753      1.0  0.75925  0.83880  0.58221  1.0000
  S   S754      1.0  0.73411  0.84071  0.62897  1.0000
  Fe  Fe381     1.0  0.89524  0.83583  0.65934  1.0000
  S   S755      1.0  0.90325  0.80668  0.68226  1.0000
  S   S756      1.0  0.86329  0.85493  0.65625  1.0000
  Fe  Fe382     1.0  0.94001  0.83425  0.63734  1.0000
  S   S757      1.0  0.95094  0.80487  0.65759  1.0000
  S   S758      1.0  0.96443  0.84847  0.61379  1.0000
  Fe  Fe383     1.0  0.92228  0.79451  0.65409  1.0000
  S   S759      1.0  0.92497  0.76419  0.64297  1.0000
  Fe  Fe384     1.0  0.93140  0.82018  0.68366  1.0000
  S   S760      1.0  0.95044  0.81683  0.70924  1.0000
  S   S761      1.0  0.91308  0.82288  0.63148  1.0000
  S   S762      1.0  0.92164  0.85025  0.66316  1.0000
  H   H2215     1.0  0.84404  0.78481  0.94169  1.0000
  C   C2209     1.0  0.95738  0.83658  0.71918  1.0000
  C   C2210     1.0  0.88545  0.73872  0.62170  1.0000
  C   C2211     1.0  0.98152  0.84715  0.73624  1.0000
  C   C2212     1.0  0.96843  0.86628  0.73761  1.0000
  C   C2213     1.0  0.95001  0.87061  0.72934  1.0000
  C   C2214     1.0  0.94465  0.85599  0.71991  1.0000
  C   C2215     1.0  0.81176  0.81787  0.55993  1.0000
  C   C2216     1.0  0.68887  0.94711  0.60283  1.0000
  H   H2216     1.0  0.93973  0.88533  0.73033  1.0000
  H   H2217     1.0  0.93031  0.85947  0.71385  1.0000
  C   C2217     1.0  0.90203  0.75842  0.63829  1.0000
  C   C2218     1.0  0.88250  0.76683  0.64823  1.0000
  H   H2218     1.0  0.79968  0.86975  0.52316  1.0000
  H   H2219     1.0  0.96756  0.88403  0.81877  1.0000
  S   S763      1.0  0.84321  0.73802  0.63063  1.0000
  H   H2220     1.0  0.88125  0.77750  0.65867  1.0000
  H   H2221     1.0  0.91856  0.73798  0.61725  1.0000
  C   C2219     1.0  0.69224  0.91831  0.63132  1.0000
  C   C2220     1.0  0.69836  0.92703  0.61072  1.0000
  H   H2222     1.0  0.69399  0.95399  0.58699  1.0000
  H   H2223     1.0  0.71084  0.91859  0.60099  1.0000
  C   C2221     1.0  0.68304  0.94496  0.69415  1.0000
  C   C2222     1.0  0.81428  0.83249  0.63141  1.0000
  C   C2223     1.0  0.83184  0.81848  0.63704  1.0000
  C   C2224     1.0  0.84709  0.82516  0.64444  1.0000
  C   C2225     1.0  0.84477  0.84593  0.64653  1.0000
  C   C2226     1.0  0.82715  0.85992  0.64096  1.0000
  C   C2227     1.0  0.81203  0.85328  0.63333  1.0000
  H   H2224     1.0  0.83366  0.80233  0.63574  1.0000
  H   H2225     1.0  0.86047  0.81421  0.64885  1.0000
  H   H2226     1.0  0.82518  0.87598  0.64262  1.0000
  H   H2227     1.0  0.79857  0.86423  0.62913  1.0000
  N   N183      1.0  0.65824  0.88016  0.63936  1.0000
  C   C2228     1.0  0.73815  0.85938  0.51462  1.0000
  C   C2229     1.0  0.74310  0.86687  0.53056  1.0000
  H   H2228     1.0  0.72904  0.84716  0.51823  1.0000
  H   H2229     1.0  0.73773  0.86041  0.54644  1.0000
  H   H2230     1.0  0.81583  0.83643  0.58093  1.0000
  C   C2230     1.0  0.97092  0.81371  0.59608  1.0000
  C   C2231     1.0  0.98172  0.80078  0.58192  1.0000
  H   H2231     1.0  0.95699  0.80985  0.60637  1.0000
  C   C2232     1.0  0.79337  0.77087  0.51666  1.0000
  C   C2233     1.0  0.68914  0.80464  0.53979  1.0000
  C   C2234     1.0  0.70715  0.81267  0.53886  1.0000
  C   C2235     1.0  0.71173  0.81740  0.55665  1.0000
  C   C2236     1.0  0.69870  0.81331  0.57568  1.0000
  C   C2237     1.0  0.68090  0.80492  0.57667  1.0000
  C   C2238     1.0  0.67593  0.80092  0.55874  1.0000
  H   H2232     1.0  0.71749  0.81534  0.52424  1.0000
  H   H2233     1.0  0.72554  0.82376  0.55570  1.0000
  H   H2234     1.0  0.67087  0.80150  0.59136  1.0000
  C   C2239     1.0  0.70011  0.93727  0.68014  1.0000
  H   H2235     1.0  0.96955  0.82115  0.77686  1.0000
  C   C2240     1.0  0.67613  0.92948  0.64380  1.0000
  H   H2236     1.0  0.72217  0.94673  0.63109  1.0000
  C   C2241     1.0  0.83495  0.77562  0.50664  1.0000
  H   H2237     1.0  0.97545  0.73535  0.61233  1.0000
  C   C2242     1.0  0.72462  0.94141  0.64735  1.0000
  H   H2238     1.0  0.79052  0.85257  0.50029  1.0000
  C   C2243     1.0  0.80671  0.81832  0.54065  1.0000
  C   C2244     1.0  0.86458  0.76070  0.64542  1.0000
  C   C2245     1.0  0.67314  0.95854  0.61543  1.0000
  C   C2246     1.0  0.69043  0.88478  0.52806  1.0000
  H   H2239     1.0  0.70076  0.97872  0.64195  1.0000
  H   H2240     1.0  0.77725  0.76892  0.52036  1.0000
  C   C2247     1.0  0.69605  0.96920  0.65671  1.0000
  H   H2241     1.0  0.97616  0.78692  0.58136  1.0000
  H   H2242     1.0  0.80763  0.86984  0.55726  1.0000
  C   C2248     1.0  0.76927  0.96385  0.83984  1.0000
  C   C2249     1.0  0.97654  0.85433  0.66849  1.0000
  C   C2250     1.0  0.80309  0.85506  0.53337  1.0000
  H   H2243     1.0  0.67132  0.92284  0.65977  1.0000
  H   H2244     1.0  0.78575  0.82666  0.50902  1.0000
  H   H2245     1.0  0.66083  0.90418  0.61332  1.0000
  H   H2246     1.0  0.75628  0.96396  0.83182  1.0000
  H   H2247     1.0  0.75888  0.79225  0.64582  1.0000
  H   H2248     1.0  0.98048  0.85929  0.65150  1.0000
  H   H2249     1.0  0.94436  0.87768  0.81401  1.0000
  H   H2250     1.0  0.91041  0.85296  0.57793  1.0000
  C   C2251     1.0  0.67715  0.84522  0.64335  1.0000
  H   H2251     1.0  0.80529  0.76053  0.90043  1.0000
  H   H2252     1.0  0.98577  0.81730  0.72697  1.0000
  N   N184      1.0  0.67958  0.86138  0.51149  1.0000
  C   C2252     1.0  0.97810  0.83170  0.59675  1.0000
  H   H2253     1.0  0.81501  0.80326  0.57030  1.0000
  N   N185      1.0  0.70633  0.94936  0.66165  1.0000
  C   C2253     1.0  0.76155  0.89118  0.50529  1.0000
  C   C2254     1.0  0.75470  0.88285  0.52590  1.0000
  C   C2255     1.0  0.85877  0.73769  0.47962  1.0000
  C   C2256     1.0  0.66835  0.85356  0.52989  1.0000
  C   C2257     1.0  0.67926  0.87669  0.54693  1.0000
  C   C2258     1.0  0.66757  0.86273  0.63119  1.0000
  C   C2259     1.0  0.66804  0.86106  0.54786  1.0000
  C   C2260     1.0  0.79388  0.76252  0.94836  1.0000
  H   H2254     1.0  0.81167  0.83132  0.49699  1.0000
  H   H2255     1.0  0.96009  0.86112  0.67377  1.0000
  H   H2256     1.0  0.85114  0.77726  0.50269  1.0000
  H   H2257     1.0  0.95103  0.85541  0.78469  1.0000
  C   C2261     1.0  0.66655  0.94951  0.63585  1.0000
  C   C2262     1.0  0.79733  0.83682  0.50755  1.0000
  C   C2263     1.0  0.85160  0.73783  0.97191  1.0000
  N   N186      1.0  0.76229  0.77677  0.60026  1.0000
  C   C2264     1.0  0.75363  0.78541  0.61749  1.0000
  C   C2265     1.0  0.78292  0.76818  0.59710  1.0000
  C   C2266     1.0  0.76559  0.78504  0.63236  1.0000
  C   C2267     1.0  0.79529  0.76755  0.61163  1.0000
  C   C2268     1.0  0.78652  0.77589  0.62944  1.0000
  C   C2269     1.0  0.74974  0.77786  0.58451  1.0000
  H   H2258     1.0  0.73743  0.79277  0.61973  1.0000
  H   H2259     1.0  0.78993  0.76174  0.58332  1.0000
  H   H2260     1.0  0.81735  0.78802  0.97309  1.0000
  H   H2261     1.0  0.81163  0.76076  0.60906  1.0000
  H   H2262     1.0  0.79615  0.77586  0.64060  1.0000
  H   H2263     1.0  0.73345  0.77623  0.59170  1.0000
  H   H2264     1.0  0.74948  0.79306  0.57397  1.0000
  H   H2265     1.0  0.75600  0.76523  0.57525  1.0000
  H   H2266     1.0  0.84957  0.76674  0.65375  1.0000
  C   C2270     1.0  0.74484  0.86778  0.49403  1.0000
  C   C2271     1.0  0.98149  0.75333  0.63263  1.0000
  C   C2272     1.0  0.65802  0.88062  0.65965  1.0000
  H   H2267     1.0  0.97061  0.88932  0.68370  1.0000
  C   C2273     1.0  0.69042  0.87688  0.51039  1.0000
  C   C2274     1.0  0.86598  0.74650  0.63232  1.0000
  H   H2268     1.0  0.71254  0.97069  0.87119  1.0000
  H   H2269     1.0  0.80630  0.80385  0.53603  1.0000
  C   C2275     1.0  0.80783  0.85521  0.55260  1.0000
  C   C2276     1.0  0.82635  0.76907  0.92838  1.0000
  H   H2270     1.0  0.76254  0.96274  0.85655  1.0000
  H   H2271     1.0  0.73850  0.94685  0.64940  1.0000
  C   C2277     1.0  0.67734  0.84571  0.66393  1.0000
  H   H2272     1.0  0.78940  0.79273  0.48871  1.0000
  C   C2278     1.0  0.96096  0.87838  0.80758  1.0000
  C   C2279     1.0  0.82956  0.77925  0.94330  1.0000
  H   H2273     1.0  0.68499  0.83238  0.67347  1.0000
  C   C2280     1.0  0.80734  0.75941  0.52948  1.0000
  H   H2274     1.0  0.83899  0.75342  0.53442  1.0000
  C   C2281     1.0  0.98543  0.87944  0.68560  1.0000
  H   H2275     1.0  0.66746  0.86221  0.61521  1.0000
  H   H2276     1.0  0.68446  0.83145  0.63678  1.0000
  H   H2277     1.0  0.67799  0.93537  0.70878  1.0000
  C   C2282     1.0  0.82113  0.78647  0.49340  1.0000
  S   S764      1.0  0.67540  0.92856  0.78681  1.0000
  C   C2283     1.0  0.82808  0.76213  0.52465  1.0000
  C   C2284     1.0  0.66771  0.86349  0.67216  1.0000
  C   C2285     1.0  0.81228  0.83647  0.56591  1.0000
  C   C2286     1.0  0.80023  0.78438  0.49869  1.0000
  N   N187      1.0  0.91516  0.80062  0.58616  1.0000
  C   C2287     1.0  0.89507  0.79869  0.59484  1.0000
  C   C2288     1.0  0.92067  0.81984  0.57994  1.0000
  C   C2289     1.0  0.87986  0.81628  0.59731  1.0000
  C   C2290     1.0  0.90584  0.83778  0.58228  1.0000
  C   C2291     1.0  0.88533  0.83593  0.59118  1.0000
  C   C2292     1.0  0.93116  0.78201  0.58480  1.0000
  H   H2278     1.0  0.89071  0.78350  0.60020  1.0000
  H   H2279     1.0  0.93670  0.82140  0.57358  1.0000
  H   H2280     1.0  0.86405  0.81463  0.60443  1.0000
  N   N188      1.0  0.80872  0.76081  0.93106  1.0000
  H   H2281     1.0  0.72767  0.92415  0.64989  1.0000
  H   H2282     1.0  0.93881  0.77826  0.59861  1.0000
  H   H2283     1.0  0.92441  0.76839  0.58414  1.0000
  H   H2284     1.0  0.94307  0.78437  0.57066  1.0000
  H   H2285     1.0  0.97735  0.83720  0.67196  1.0000
  C   C2293     1.0  0.80611  0.74979  0.91536  1.0000
  H   H2286     1.0  0.66212  0.79455  0.55964  1.0000
  H   H2287     1.0  0.69958  0.89665  0.52720  1.0000
  H   H2288     1.0  0.68214  0.86393  0.47895  1.0000
  C   C2294     1.0  0.96481  0.84807  0.79132  1.0000
  H   H2289     1.0  0.77057  0.90355  0.50166  1.0000
  C   C2295     1.0  0.67247  0.96516  0.68922  1.0000
  C   C2296     1.0  0.75671  0.88355  0.48932  1.0000
  H   H2290     1.0  0.66802  0.84426  0.49417  1.0000
  H   H2291     1.0  0.78028  0.75528  0.95090  1.0000
  N   N189      1.0  0.80227  0.83680  0.52776  1.0000
  N   N190      1.0  0.97217  0.85797  0.80338  1.0000
  H   H2292     1.0  0.81933  0.73676  0.91327  1.0000
  H   H2293     1.0  0.67949  0.88235  0.56083  1.0000
  H   H2294     1.0  0.78126  0.94993  0.83747  1.0000
  H   H2295     1.0  0.87381  0.84964  0.59386  1.0000
  H   H2296     1.0  0.96189  0.88993  0.79301  1.0000
  S   S765      1.0  0.97396  0.88492  0.75012  1.0000
  H   H2297     1.0  0.96816  0.75015  0.64437  1.0000
  C   C2297     1.0  0.79655  0.77269  0.96354  1.0000
  H   H2298     1.0  0.66789  0.86412  0.68809  1.0000
  C   C2298     1.0  0.97531  0.82874  0.78673  1.0000
  C   C2299     1.0  0.70559  0.97315  0.84074  1.0000
  H   H2299     1.0  0.69583  0.84016  0.49193  1.0000
  C   C2300     1.0  0.68142  0.85204  0.49320  1.0000
  N   N191      1.0  0.83825  0.73855  0.47911  1.0000
  H   H2300     1.0  0.69971  0.88276  0.49590  1.0000
  C   C2301     1.0  0.71402  0.97932  0.85559  1.0000
  H   H2301     1.0  0.83839  0.76716  0.91500  1.0000
  H   H2302     1.0  0.65949  0.85447  0.56247  1.0000
  C   C2302     1.0  0.98573  0.74496  0.61450  1.0000
  S   S766      1.0  0.79853  0.74122  0.55080  1.0000
  H   H2303     1.0  0.65930  0.97139  0.70000  1.0000
  S   S767      1.0  0.69986  0.97508  0.80040  1.0000
  H   H2304     1.0  0.78972  0.98084  0.86006  1.0000
  C   C2303     1.0  0.67898  0.97737  0.67038  1.0000
  N   N192      1.0  0.77843  0.98270  0.83222  1.0000
  S   S768      1.0  0.86743  0.75449  0.97585  1.0000
  C   C2304     1.0  0.70821  0.98350  0.82027  1.0000
