data_image0
_chemical_formula_structural       SH2FeSFeSHFeSFeSCSCHCHCSH2CSHFeHSHFeSCFeS2FeSFeSNCNH2NC9H3C7H3SHCHCHC6HCH2C2HCH2C4H4C2FeC2SCH7FeSHSCHC2HSCH3SH3C2S2FeSHSFeHSFeHFeCNCS2HCFeHC2HFeC4H3S2H2C7H4C6H4C2HSCHC6H4S2HNHC2HCH3SH2CH2SHS3CHSH3FeC2FeCHNHSCHC2SH2CSC2HSFeS2FeS2FeSFeS3HSCHNHSCSCHSH2CH2FeHC6H3C6H4C6H5C9HCH2FeNHC6H4CNC6H2CH4CNC6H5SCFeHSNCFeC2H2CH2CSHCHFeSH2FeCH4SHSH5CFeCHSCHNC4SCSHCH4CSHSCHFeH2NFeH3CHFeCSNC4H2SCSC2HSHS2CHCH3FeCH5CSHC2HFeS4H3SFeS2FeS2FeSFeS3HSHFeHFeSHCHFeS2CHC6H4C6H4C3HC2H5C2HC2SHCFeHC6H4C3H2C7H2C2HCFeSCH5C2SCH3NH2FeH2C3HCHCHNC2HNH2C2HC3H3Fe2SCHCH3SHFeCSCH2CHSH2SCSNC2SFeCHCH2CFeH2C3HC5H2C2H5CFeH2NCHC2SHC2HNHCNC5H5CH2C2N2CH2NC2Fe2SHCHC2H3C2SH2CH5CS2HFe2SFeS2FeS2FeSFeS3C3HCH3SH3C2HC6HSHC6H2CHC3HC2H4C6H4C2HCH4CS2C6H2CNC3SHCH3CH3CN2C5H4C3SHCH7NHCH3CHCH7C2H2CHCFeNCFeCHCHC2Fe2H2SCHFeS2FeS2FeSFeS3FeS2HFe2HNSHS2FeC6HCHC6H4CFeCH2C6H4CH4SC6H3CHCHCHCHC2HCHC4HSH5NH2C4SFeHNC6H8NC5NH3SHSCH3C3HCNSC4FeSHCHSHC3H2C2H3NHCHSCH3NC4HSH3SC5HCH3C2NH4FeC3H2CH5CHCH2C2H2CFeSFeS2FeSFeS3HFeSC3H2SFeS2FeSFeS2CHSH3FeSFeHC2HFeHNC6H4C3SNSC6H4C6H5C7SH3C2H2CH3C7HSHNHCHCHSHCHCHCHCH2NH2CHSHFeCSHCFeSHFeHSC2H3NH3CSCH3SNFeSHFeS2FeSFeSCHSHS2HFeSHSCSH2FeCSFeHSCH2S3HCH2C6H4CHC6H4C6H4CH2C7H4CHC2FeNCHC5HSC2H2CH2CH2NC3HCHFeH2SHC2HFeCHCSC2HC2H6C2S2HCH2CH2SC2HC2FeH5NCHCFeC2H2CHCSCHNH2SFeS2FeS2FeSFeS3NFeHSCHSHSNCFeCHC3NH2C7H4C6HCH2C6H5C2H2FeH2C6H2C5SCH3CSCH7CNC6H6CHSC2SH3SHSHFeNH2CNHNCFeSH6CH2S2CS3C3H2NFeHCSCH3SHCHC3HCH2CH4FeCHC2H2CH2CFeC2H4CHC2H3CHC4HC3H2CHFeH2SHCNH2C2S3CSCH3CFeS2FeS2FeSFeS3H3NFeCHSHSC3SH2CSCHC2H2CH3C6H4C6H4C4H2C6SH3C6H4C6H4FeS2HCHNH2C3HCH2C2H4CS3Fe2HNC4HCH3C2HCH3CFeN2HCSH7CHC2HCH2CHCHCHC2HCH2CH3C2NHSH2CS2NHC2HC4SHSNHSCFeSFeSNCHSFeSFeHSHSFeSCFeS2FeHFeHFeS3HCH2C2NH4C6H4C6H4C6H4C6H5CHC3HNCH2CFeCHC2HCH4FeC2H4C2H2CHCHNCH3NC6H4CH2CH2SCHC4H2CH2C2SCHCHCHC3H4SHFeS2FeHFe3S3FeS2FeS2HFeS3H3SFe2CFeSHNHCSH2C7H5C2HSC6H4C6H3C4HCSC3H3S2HCNC6H9SNCH2CSC2SH3SHCH2C3NHCSFeC2FeS3HSHFeSHCSCFeSFeSNSCSCS2H3C9H5C2H2CHC6H4CS2C2H2C2HFeC2HC6H5CNCH2CSCHCH6CHSC4HNSCHCHSNFeCHFeHC2HC2HCH3CHCH2CH2NH2SFeS2CFeSHSC2HFe2HFeHS2HC2SFeHSFeHSHSHCSHCSH2C6H4C4HFe2H4C6FeH3SC7H3S2FeHCHCHFeSHSC3NC4NCH3CFeH3CSHC3HCSHC2SCH3CHS2C2H2CHS3CH2SFeS2H2CSHFeS2FeS2FeSFeS4HS2CSFeS2HFeSCHS2CHC2HCH2FeH2CHCSC6H3C7H4C6H4CHC6H4CHC2S2C6H2CHC2H2CHCH2CHCHSCNHCSHC3H4CHNHCSHNHFeHC3HC2FeHNCHFeHCNC6H8SHCH2NH2C3HCH2CHCHC2NH5FeH3CHFeHFeNC2H2C5HC2H2C2H3CHS2H2C2HC2H2SCHNSFeHSHFeHFe2S2FeS2FeSFeS4CSCHSHCSCHNHSHC7H3C3H2C6H4FeCH2C6H4C6H3C7H4FeCHC3NH3CSHCH3C2SHC2HFeH2CH3NC6H8NHC5S2HCHCHCH3NH2FeCHCH3CNHCH2FeSH2CH2C3HCH2C2
_chemical_formula_sum              "S384 H1152 Fe192 C1152 N96"
_cell_length_a       56.1231
_cell_length_b       56.065
_cell_length_c       55.9307
_cell_angle_alpha    84.5214
_cell_angle_beta     84.608
_cell_angle_gamma    84.6521

_space_group_name_H-M_alt    "P 1"
_space_group_IT_number       1

loop_
  _space_group_symop_operation_xyz
  'x, y, z'

loop_
  _atom_site_type_symbol
  _atom_site_label
  _atom_site_symmetry_multiplicity
  _atom_site_fract_x
  _atom_site_fract_y
  _atom_site_fract_z
  _atom_site_occupancy
  S   S1        1.0  0.45547  0.15429  0.44779  1.0000
  H   H1        1.0  0.46633  0.21417  0.25419  1.0000
  H   H2        1.0  0.10250  0.22017  0.41422  1.0000
  Fe  Fe1       1.0  0.37374  0.22471  0.19944  1.0000
  S   S2        1.0  0.04665  0.09187  0.45701  1.0000
  Fe  Fe2       1.0  0.00549  0.15079  0.45285  1.0000
  S   S3        1.0  0.02313  0.13427  0.41980  1.0000
  H   H3        1.0  0.08483  0.12996  0.37338  1.0000
  Fe  Fe3       1.0  0.01209  0.09931  0.43913  1.0000
  S   S4        1.0  0.99845  0.06819  0.42256  1.0000
  Fe  Fe4       1.0  0.05599  0.12869  0.44070  1.0000
  S   S5        1.0  0.09449  0.13246  0.42412  1.0000
  C   C1        1.0  0.21258  0.19446  0.44753  1.0000
  S   S6        1.0  0.40746  0.20597  0.18220  1.0000
  C   C2        1.0  0.03538  0.10294  0.36321  1.0000
  H   H4        1.0  0.35711  0.12747  0.23357  1.0000
  C   C3        1.0  0.44033  0.00709  0.22521  1.0000
  H   H5        1.0  0.42969  0.99269  0.23314  1.0000
  C   C4        1.0  0.35771  0.14332  0.29913  1.0000
  S   S7        1.0  0.25345  0.20154  0.31152  1.0000
  H   H6        1.0  0.45948  0.03383  0.17079  1.0000
  H   H7        1.0  0.29173  0.20959  0.34111  1.0000
  C   C5        1.0  0.35706  0.13160  0.25217  1.0000
  S   S8        1.0  0.22240  0.20404  0.38048  1.0000
  H   H8        1.0  0.02807  0.19679  0.44991  1.0000
  Fe  Fe5       1.0  0.46728  0.98857  0.09362  1.0000
  H   H9        1.0  0.35770  0.14890  0.31719  1.0000
  S   S9        1.0  0.44990  0.00307  0.12807  1.0000
  H   H10       1.0  0.18552  0.19698  0.42227  1.0000
  Fe  Fe6       1.0  0.47154  0.11651  0.44281  1.0000
  S   S10       1.0  0.45666  0.99375  0.38851  1.0000
  C   C6        1.0  0.99111  0.21129  0.45286  1.0000
  Fe  Fe7       1.0  0.39891  0.17293  0.20648  1.0000
  S   S11       1.0  0.41812  0.18259  0.23741  1.0000
  S   S12       1.0  0.39904  0.13349  0.19875  1.0000
  Fe  Fe8       1.0  0.38291  0.20259  0.24952  1.0000
  S   S13       1.0  0.36649  0.20266  0.28819  1.0000
  Fe  Fe9       1.0  0.42506  0.21655  0.21390  1.0000
  S   S14       1.0  0.36324  0.19061  0.22055  1.0000
  N   N1        1.0  0.37880  0.14019  0.28494  1.0000
  C   C7        1.0  0.21783  0.20022  0.47014  1.0000
  N   N2        1.0  0.46945  0.04239  0.20464  1.0000
  H   H11       1.0  0.44978  0.06427  0.43560  1.0000
  H   H12       1.0  0.09206  0.09153  0.39807  1.0000
  N   N3        1.0  0.05985  0.07761  0.39009  1.0000
  C   C8        1.0  0.47741  0.03694  0.37682  1.0000
  C   C9        1.0  0.18989  0.20140  0.43972  1.0000
  C   C10       1.0  0.44273  0.01230  0.20025  1.0000
  C   C11       1.0  0.45006  0.08916  0.14655  1.0000
  C   C12       1.0  0.43022  0.07929  0.15952  1.0000
  C   C13       1.0  0.41492  0.09308  0.17544  1.0000
  C   C14       1.0  0.41901  0.11699  0.17841  1.0000
  C   C15       1.0  0.43880  0.12688  0.16538  1.0000
  C   C16       1.0  0.45420  0.11303  0.14957  1.0000
  H   H13       1.0  0.42631  0.06124  0.15693  1.0000
  H   H14       1.0  0.39955  0.08530  0.18525  1.0000
  H   H15       1.0  0.44219  0.14524  0.16739  1.0000
  C   C17       1.0  0.05159  0.12057  0.36170  1.0000
  C   C18       1.0  0.28500  0.20098  0.30579  1.0000
  C   C19       1.0  0.29564  0.19569  0.28298  1.0000
  C   C20       1.0  0.32044  0.19681  0.27720  1.0000
  C   C21       1.0  0.33509  0.20198  0.29459  1.0000
  C   C22       1.0  0.32462  0.20627  0.31774  1.0000
  C   C23       1.0  0.29963  0.20605  0.32327  1.0000
  H   H16       1.0  0.28457  0.19104  0.26957  1.0000
  H   H17       1.0  0.32822  0.19305  0.25947  1.0000
  H   H18       1.0  0.46938  0.12096  0.13957  1.0000
  S   S15       1.0  0.26255  0.22549  0.42505  1.0000
  H   H19       1.0  0.07454  0.04136  0.39395  1.0000
  C   C24       1.0  0.06430  0.05493  0.40498  1.0000
  H   H20       1.0  0.36509  0.18610  0.45578  1.0000
  C   C25       1.0  0.33578  0.14029  0.29028  1.0000
  H   H21       1.0  0.31906  0.14329  0.30146  1.0000
  C   C26       1.0  0.10965  0.15896  0.41582  1.0000
  C   C27       1.0  0.09856  0.18201  0.41888  1.0000
  C   C28       1.0  0.11131  0.20246  0.41182  1.0000
  C   C29       1.0  0.13524  0.20017  0.40160  1.0000
  C   C30       1.0  0.14633  0.17713  0.39858  1.0000
  C   C31       1.0  0.13359  0.15669  0.40566  1.0000
  H   H22       1.0  0.08015  0.18410  0.42660  1.0000
  C   C32       1.0  0.36794  0.20096  0.46598  1.0000
  H   H23       1.0  0.16464  0.17500  0.39063  1.0000
  H   H24       1.0  0.14236  0.13897  0.40319  1.0000
  C   C33       1.0  0.07220  0.11629  0.37410  1.0000
  C   C34       1.0  0.33550  0.13446  0.26661  1.0000
  H   H25       1.0  0.40368  0.16379  0.29299  1.0000
  C   C35       1.0  0.46305  0.02321  0.39360  1.0000
  H   H26       1.0  0.41714  0.13510  0.28421  1.0000
  H   H27       1.0  0.43398  0.00199  0.18867  1.0000
  C   C36       1.0  0.45250  0.01979  0.23981  1.0000
  C   C37       1.0  0.45771  0.05671  0.41931  1.0000
  C   C38       1.0  0.45326  0.03323  0.41486  1.0000
  C   C39       1.0  0.17283  0.21422  0.45438  1.0000
  H   H28       1.0  0.31859  0.13256  0.25934  1.0000
  H   H29       1.0  0.07454  0.05755  0.42048  1.0000
  H   H30       1.0  0.44198  0.02283  0.42788  1.0000
  H   H31       1.0  0.39528  0.13270  0.25016  1.0000
  C   C40       1.0  0.37866  0.13461  0.26167  1.0000
  C   C41       1.0  0.40147  0.14419  0.29439  1.0000
  Fe  Fe10      1.0  0.23522  0.22020  0.34352  1.0000
  C   C42       1.0  0.03998  0.08132  0.37735  1.0000
  C   C43       1.0  0.46700  0.03756  0.22916  1.0000
  S   S16       1.0  0.03883  0.14722  0.47267  1.0000
  C   C44       1.0  0.07613  0.09453  0.38820  1.0000
  H   H32       1.0  0.04711  0.04786  0.41281  1.0000
  H   H33       1.0  0.28539  0.21711  0.46899  1.0000
  H   H34       1.0  0.40169  0.13706  0.31361  1.0000
  H   H35       1.0  0.01915  0.10610  0.35385  1.0000
  H   H36       1.0  0.22623  0.18503  0.43598  1.0000
  H   H37       1.0  0.15520  0.21977  0.44821  1.0000
  H   H38       1.0  0.04808  0.13761  0.35117  1.0000
  Fe  Fe11      1.0  0.47503  0.03248  0.12074  1.0000
  S   S17       1.0  0.15047  0.22662  0.39321  1.0000
  H   H39       1.0  0.33583  0.21004  0.33142  1.0000
  S   S18       1.0  0.47034  0.07257  0.12653  1.0000
  C   C45       1.0  0.47182  0.07052  0.40235  1.0000
  H   H40       1.0  0.02724  0.06775  0.37851  1.0000
  C   C46       1.0  0.01591  0.21264  0.45239  1.0000
  C   C47       1.0  0.45744  0.03013  0.19022  1.0000
  H   H41       1.0  0.40650  0.19596  0.46024  1.0000
  S   S19       1.0  0.99197  0.11634  0.47039  1.0000
  C   C48       1.0  0.39124  0.20656  0.46842  1.0000
  H   H42       1.0  0.45149  0.01529  0.25918  1.0000
  H   H43       1.0  0.47333  0.07914  0.19377  1.0000
  H   H44       1.0  0.47682  0.04694  0.24064  1.0000
  S   S20       1.0  0.47735  0.10042  0.40664  1.0000
  H   H45       1.0  0.23562  0.19489  0.47589  1.0000
  H   H46       1.0  0.33044  0.20902  0.47625  1.0000
  H   H47       1.0  0.04740  0.18464  0.52771  1.0000
  C   C49       1.0  0.99496  0.99407  0.70094  1.0000
  C   C50       1.0  0.34847  0.21382  0.47780  1.0000
  S   S21       1.0  0.14724  0.20025  0.73697  1.0000
  S   S22       1.0  0.10822  0.21723  0.78079  1.0000
  Fe  Fe12      1.0  0.11248  0.18766  0.75559  1.0000
  S   S23       1.0  0.11059  0.14726  0.76555  1.0000
  H   H48       1.0  0.24238  0.20026  0.69236  1.0000
  S   S24       1.0  0.09003  0.20773  0.72762  1.0000
  Fe  Fe13      1.0  0.02180  0.05068  0.82625  1.0000
  H   H49       1.0  0.02408  0.15061  0.52941  1.0000
  S   S25       1.0  0.02395  0.09118  0.81892  1.0000
  Fe  Fe14      1.0  0.03143  0.00173  0.85564  1.0000
  H   H50       1.0  0.03991  0.21378  0.66660  1.0000
  Fe  Fe15      1.0  0.01905  0.00361  0.80387  1.0000
  C   C51       1.0  0.03307  0.08445  0.75352  1.0000
  N   N4        1.0  0.01136  0.18659  0.51772  1.0000
  C   C52       1.0  0.05838  0.11612  0.73869  1.0000
  S   S26       1.0  0.04855  0.01875  0.82080  1.0000
  S   S27       1.0  0.00784  0.03533  0.86303  1.0000
  H   H51       1.0  0.98716  0.08955  0.90771  1.0000
  C   C53       1.0  0.98638  0.15361  0.52488  1.0000
  Fe  Fe16      1.0  0.02693  0.11094  0.48728  1.0000
  H   H52       1.0  0.08804  0.06097  0.73433  1.0000
  C   C54       1.0  0.00362  0.22002  0.74409  1.0000
  C   C55       1.0  0.07333  0.07437  0.73829  1.0000
  H   H53       1.0  0.09466  0.10426  0.72641  1.0000
  Fe  Fe17      1.0  0.44094  0.13952  0.48477  1.0000
  C   C56       1.0  0.98290  0.00701  0.53991  1.0000
  C   C57       1.0  0.04802  0.04183  0.75282  1.0000
  C   C58       1.0  0.23294  0.22189  0.72236  1.0000
  C   C59       1.0  0.01764  0.98796  0.74433  1.0000
  H   H54       1.0  0.04113  0.21552  0.75039  1.0000
  H   H55       1.0  0.02179  0.12235  0.75371  1.0000
  H   H56       1.0  0.03133  0.03861  0.76453  1.0000
  S   S28       1.0  0.02478  0.09886  0.52716  1.0000
  S   S29       1.0  0.03124  0.98240  0.77173  1.0000
  H   H57       1.0  0.40038  0.21427  0.55049  1.0000
  H   H58       1.0  0.99082  0.01506  0.75676  1.0000
  C   C60       1.0  0.98647  0.00770  0.72028  1.0000
  C   C61       1.0  0.38797  0.16916  0.51797  1.0000
  C   C62       1.0  0.36283  0.17108  0.52295  1.0000
  C   C63       1.0  0.35119  0.18859  0.53759  1.0000
  C   C64       1.0  0.36460  0.20452  0.54736  1.0000
  C   C65       1.0  0.38980  0.20216  0.54292  1.0000
  C   C66       1.0  0.40144  0.18458  0.52836  1.0000
  H   H59       1.0  0.35225  0.15912  0.51516  1.0000
  H   H60       1.0  0.33185  0.18993  0.54105  1.0000
  H   H61       1.0  0.21955  0.21039  0.73113  1.0000
  H   H62       1.0  0.42078  0.18329  0.52480  1.0000
  C   C67       1.0  0.03916  0.01928  0.55436  1.0000
  C   C68       1.0  0.04639  0.02719  0.53042  1.0000
  C   C69       1.0  0.04153  0.05139  0.52165  1.0000
  C   C70       1.0  0.02988  0.06799  0.53696  1.0000
  C   C71       1.0  0.02260  0.06004  0.56087  1.0000
  C   C72       1.0  0.02700  0.03575  0.56948  1.0000
  H   H63       1.0  0.05585  0.01457  0.51863  1.0000
  H   H64       1.0  0.04737  0.05731  0.50325  1.0000
  H   H65       1.0  0.01368  0.07274  0.57287  1.0000
  H   H66       1.0  0.02155  0.02994  0.58802  1.0000
  C   C73       1.0  0.20273  0.20054  0.66341  1.0000
  C   C74       1.0  0.03619  0.10897  0.74875  1.0000
  H   H67       1.0  0.08184  0.22387  0.66836  1.0000
  S   S30       1.0  0.00378  0.98470  0.83829  1.0000
  C   C75       1.0  0.99779  0.00473  0.74188  1.0000
  H   H68       1.0  0.00277  0.20129  0.74131  1.0000
  C   C76       1.0  0.08702  0.13242  0.78250  1.0000
  C   C77       1.0  0.06490  0.14462  0.78933  1.0000
  C   C78       1.0  0.04601  0.13176  0.80100  1.0000
  C   C79       1.0  0.04894  0.10661  0.80587  1.0000
  C   C80       1.0  0.07117  0.09444  0.79936  1.0000
  C   C81       1.0  0.09010  0.10732  0.78784  1.0000
  H   H69       1.0  0.06226  0.16390  0.78535  1.0000
  H   H70       1.0  0.02892  0.14136  0.80599  1.0000
  H   H71       1.0  0.07375  0.07514  0.80308  1.0000
  H   H72       1.0  0.10717  0.09774  0.78270  1.0000
  S   S31       1.0  0.24445  0.20956  0.63577  1.0000
  S   S32       1.0  0.47336  0.14635  0.50325  1.0000
  H   H73       1.0  0.98840  0.09129  0.86327  1.0000
  N   N5        1.0  0.05156  0.06752  0.74833  1.0000
  H   H74       1.0  0.04676  0.03395  0.73552  1.0000
  C   C82       1.0  0.17849  0.20528  0.67178  1.0000
  C   C83       1.0  0.03524  0.19558  0.51553  1.0000
  H   H75       1.0  0.99427  0.22039  0.50491  1.0000
  C   C84       1.0  0.21342  0.21524  0.64443  1.0000
  H   H76       1.0  0.17052  0.19377  0.68640  1.0000
  H   H77       1.0  0.27237  0.22704  0.67254  1.0000
  H   H78       1.0  0.99801  0.99339  0.54402  1.0000
  S   S33       1.0  0.99315  0.03637  0.80728  1.0000
  H   H79       1.0  0.03413  0.21452  0.52021  1.0000
  H   H80       1.0  0.01593  0.07912  0.76193  1.0000
  C   C85       1.0  0.00873  0.16282  0.52465  1.0000
  H   H81       1.0  0.06142  0.13507  0.73586  1.0000
  H   H82       1.0  0.47902  0.20561  0.49466  1.0000
  S   S34       1.0  0.04551  0.98877  0.56488  1.0000
  H   H83       1.0  0.06314  0.03200  0.76213  1.0000
  S   S35       1.0  0.40130  0.14860  0.49716  1.0000
  S   S36       1.0  0.45460  0.10114  0.47815  1.0000
  S   S37       1.0  0.98515  0.99340  0.60520  1.0000
  C   C86       1.0  0.07711  0.09876  0.73344  1.0000
  H   H84       1.0  0.21314  0.18520  0.67154  1.0000
  S   S38       1.0  0.27808  0.22258  0.56870  1.0000
  H   H85       1.0  0.19583  0.20766  0.52263  1.0000
  H   H86       1.0  0.04328  0.19490  0.49663  1.0000
  H   H87       1.0  0.22574  0.21435  0.51121  1.0000
  Fe  Fe18      1.0  0.98103  0.01901  0.84391  1.0000
  C   C87       1.0  0.16451  0.22445  0.66082  1.0000
  C   C88       1.0  0.99207  0.20171  0.51111  1.0000
  Fe  Fe19      1.0  0.12436  0.22256  0.71125  1.0000
  C   C89       1.0  0.39483  0.22490  0.48255  1.0000
  H   H88       1.0  0.98455  0.13462  0.52983  1.0000
  N   N6        1.0  0.20100  0.21284  0.48445  1.0000
  H   H89       1.0  0.99713  0.22043  0.69170  1.0000
  S   S39       1.0  0.05127  0.98060  0.88543  1.0000
  C   C90       1.0  0.24558  0.21627  0.70063  1.0000
  H   H90       1.0  0.98952  0.02495  0.54087  1.0000
  C   C91       1.0  0.20638  0.21838  0.50838  1.0000
  C   C92       1.0  0.17872  0.21983  0.47685  1.0000
  S   S40       1.0  0.12122  0.40446  0.43145  1.0000
  H   H91       1.0  0.10589  0.38870  0.99582  1.0000
  H   H92       1.0  0.21035  0.46361  0.99345  1.0000
  C   C93       1.0  0.47276  0.43403  0.42715  1.0000
  S   S41       1.0  0.14837  0.45135  0.06161  1.0000
  C   C94       1.0  0.47745  0.45161  0.40831  1.0000
  C   C95       1.0  0.23971  0.27102  0.22252  1.0000
  H   H93       1.0  0.22248  0.42722  0.27778  1.0000
  S   S42       1.0  0.15097  0.43518  0.99214  1.0000
  Fe  Fe20      1.0  0.24325  0.39435  0.15623  1.0000
  S   S43       1.0  0.27271  0.41259  0.17043  1.0000
  S   S44       1.0  0.23807  0.40081  0.11575  1.0000
  Fe  Fe21      1.0  0.23439  0.36371  0.20479  1.0000
  S   S45       1.0  0.26268  0.38003  0.22174  1.0000
  S   S46       1.0  0.21680  0.33190  0.22493  1.0000
  Fe  Fe22      1.0  0.24756  0.41513  0.20407  1.0000
  S   S47       1.0  0.23896  0.44586  0.22805  1.0000
  Fe  Fe23      1.0  0.28495  0.37571  0.18681  1.0000
  S   S48       1.0  0.32360  0.36052  0.18959  1.0000
  S   S49       1.0  0.21725  0.39905  0.18913  1.0000
  S   S50       1.0  0.25757  0.35721  0.17060  1.0000
  H   H94       1.0  0.11791  0.35515  0.40895  1.0000
  S   S51       1.0  0.21932  0.30986  0.33850  1.0000
  C   C96       1.0  0.28115  0.28345  0.29697  1.0000
  H   H95       1.0  0.15842  0.35348  0.38733  1.0000
  N   N7        1.0  0.25723  0.27139  0.20379  1.0000
  H   H96       1.0  0.09929  0.44071  0.07358  1.0000
  S   S52       1.0  0.01112  0.39592  0.41696  1.0000
  C   C97       1.0  0.15864  0.31609  0.38099  1.0000
  S   S53       1.0  0.42372  0.44091  0.09745  1.0000
  C   C98       1.0  0.25290  0.28618  0.18129  1.0000
  H   H97       1.0  0.15640  0.44209  0.11171  1.0000
  S   S54       1.0  0.34405  0.24803  0.18125  1.0000
  H   H98       1.0  0.29964  0.23202  0.22834  1.0000
  H   H99       1.0  0.26875  0.42393  0.03103  1.0000
  C   C99       1.0  0.23876  0.25774  0.45546  1.0000
  H   H100      1.0  0.04716  0.36349  0.44060  1.0000
  H   H101      1.0  0.22263  0.28152  0.22075  1.0000
  Fe  Fe24      1.0  0.45924  0.43973  0.11433  1.0000
  H   H102      1.0  0.22779  0.26404  0.44087  1.0000
  C   C100      1.0  0.41401  0.42819  0.01894  1.0000
  C   C101      1.0  0.39665  0.44213  0.03239  1.0000
  C   C102      1.0  0.40008  0.44614  0.05625  1.0000
  C   C103      1.0  0.42117  0.43686  0.06676  1.0000
  C   C104      1.0  0.43895  0.42366  0.05305  1.0000
  C   C105      1.0  0.43523  0.41911  0.02936  1.0000
  H   H103      1.0  0.38022  0.44921  0.02470  1.0000
  H   H104      1.0  0.35948  0.41284  0.06223  1.0000
  H   H105      1.0  0.44876  0.40826  0.01914  1.0000
  C   C106      1.0  0.33022  0.32953  0.18613  1.0000
  C   C107      1.0  0.31698  0.31756  0.17179  1.0000
  C   C108      1.0  0.32208  0.29276  0.16982  1.0000
  C   C109      1.0  0.34014  0.27958  0.18247  1.0000
  C   C110      1.0  0.35371  0.29163  0.19647  1.0000
  C   C111      1.0  0.34885  0.31656  0.19817  1.0000
  H   H106      1.0  0.30311  0.32748  0.16182  1.0000
  H   H107      1.0  0.31211  0.28374  0.15826  1.0000
  H   H108      1.0  0.36791  0.28178  0.20601  1.0000
  H   H109      1.0  0.35934  0.32572  0.20913  1.0000
  C   C112      1.0  0.21577  0.32723  0.25678  1.0000
  C   C113      1.0  0.20823  0.30549  0.26819  1.0000
  C   C114      1.0  0.20940  0.29994  0.29312  1.0000
  C   C115      1.0  0.21717  0.31656  0.30715  1.0000
  C   C116      1.0  0.22359  0.33887  0.29598  1.0000
  C   C117      1.0  0.22318  0.34409  0.27083  1.0000
  H   H110      1.0  0.20131  0.29286  0.25774  1.0000
  H   H111      1.0  0.20384  0.28298  0.30152  1.0000
  H   H112      1.0  0.22937  0.35196  0.30673  1.0000
  H   H113      1.0  0.22855  0.36114  0.26238  1.0000
  H   H114      1.0  0.23936  0.30164  0.18448  1.0000
  C   C118      1.0  0.35447  0.41928  0.17465  1.0000
  C   C119      1.0  0.27831  0.25718  0.20556  1.0000
  C   C120      1.0  0.39237  0.42049  0.15195  1.0000
  C   C121      1.0  0.21293  0.41505  0.10110  1.0000
  C   C122      1.0  0.19195  0.42408  0.11394  1.0000
  C   C123      1.0  0.17249  0.43517  0.10153  1.0000
  C   C124      1.0  0.17374  0.43755  0.07616  1.0000
  C   C125      1.0  0.19469  0.42850  0.06328  1.0000
  C   C126      1.0  0.21411  0.41727  0.07570  1.0000
  H   H115      1.0  0.19072  0.42253  0.13344  1.0000
  C   C127      1.0  0.24881  0.46435  0.99188  1.0000
  H   H116      1.0  0.19594  0.43009  0.04379  1.0000
  H   H117      1.0  0.23013  0.41020  0.06557  1.0000
  Fe  Fe25      1.0  0.13889  0.43949  0.43162  1.0000
  N   N8        1.0  0.37207  0.40906  0.15926  1.0000
  H   H118      1.0  0.27427  0.42307  0.06220  1.0000
  C   C128      1.0  0.09029  0.40318  0.42819  1.0000
  C   C129      1.0  0.07668  0.42195  0.41613  1.0000
  C   C130      1.0  0.05243  0.41956  0.41279  1.0000
  C   C131      1.0  0.04156  0.39851  0.42163  1.0000
  C   C132      1.0  0.05516  0.37988  0.43389  1.0000
  C   C133      1.0  0.07937  0.38220  0.43711  1.0000
  H   H119      1.0  0.08496  0.43809  0.40890  1.0000
  H   H120      1.0  0.04213  0.43405  0.40317  1.0000
  H   H121      1.0  0.04421  0.23565  0.45472  1.0000
  H   H122      1.0  0.29487  0.30455  0.21792  1.0000
  C   C134      1.0  0.22694  0.46337  0.98192  1.0000
  N   N9        1.0  0.10334  0.41358  0.04890  1.0000
  C   C135      1.0  0.09679  0.40865  0.02705  1.0000
  C   C136      1.0  0.12344  0.40181  0.05803  1.0000
  C   C137      1.0  0.11091  0.39207  0.01341  1.0000
  C   C138      1.0  0.13816  0.38540  0.04473  1.0000
  C   C139      1.0  0.13181  0.38052  0.02227  1.0000
  C   C140      1.0  0.08817  0.43074  0.06313  1.0000
  H   H123      1.0  0.08079  0.41783  0.01978  1.0000
  H   H124      1.0  0.12864  0.40569  0.07538  1.0000
  C   C141      1.0  0.24066  0.45425  0.29222  1.0000
  H   H125      1.0  0.15457  0.37687  0.05170  1.0000
  H   H126      1.0  0.45845  0.32049  0.18960  1.0000
  H   H127      1.0  0.17643  0.31523  0.37141  1.0000
  H   H128      1.0  0.33856  0.40999  0.18078  1.0000
  C   C142      1.0  0.20589  0.43642  0.31250  1.0000
  N   N10       1.0  0.30591  0.41974  0.03798  1.0000
  C   C143      1.0  0.32236  0.42055  0.05440  1.0000
  C   C144      1.0  0.31281  0.41086  0.01619  1.0000
  C   C145      1.0  0.34636  0.41194  0.04934  1.0000
  C   C146      1.0  0.33660  0.40186  0.01068  1.0000
  C   C147      1.0  0.35347  0.40253  0.02732  1.0000
  C   C148      1.0  0.28104  0.42949  0.04355  1.0000
  H   H129      1.0  0.31696  0.42806  0.07144  1.0000
  H   H130      1.0  0.30003  0.41115  0.00273  1.0000
  H   H131      1.0  0.41123  0.45212  0.15348  1.0000
  H   H132      1.0  0.43776  0.47521  0.02791  1.0000
  H   H133      1.0  0.30084  0.32925  0.23430  1.0000
  S   S55       1.0  0.46041  0.23339  0.20444  1.0000
  C   C149      1.0  0.28278  0.24313  0.22700  1.0000
  Fe  Fe26      1.0  0.11565  0.45141  0.97917  1.0000
  H   H134      1.0  0.27059  0.32089  0.23399  1.0000
  S   S56       1.0  0.12605  0.47627  0.41603  1.0000
  N   N11       1.0  0.29349  0.29721  0.25605  1.0000
  C   C150      1.0  0.31337  0.28109  0.25632  1.0000
  Fe  Fe27      1.0  0.99135  0.36665  0.43920  1.0000
  C   C151      1.0  0.31749  0.26556  0.27693  1.0000
  C   C152      1.0  0.30123  0.26682  0.29737  1.0000
  H   H135      1.0  0.26232  0.31181  0.27610  1.0000
  H   H136      1.0  0.32620  0.28019  0.24058  1.0000
  C   C153      1.0  0.00940  0.25542  0.45789  1.0000
  H   H137      1.0  0.33331  0.25279  0.27716  1.0000
  H   H138      1.0  0.40651  0.41233  0.13998  1.0000
  C   C154      1.0  0.28975  0.31377  0.23455  1.0000
  S   S57       1.0  0.10718  0.47405  0.01050  1.0000
  H   H139      1.0  0.07944  0.30344  0.41708  1.0000
  C   C155      1.0  0.36948  0.38526  0.15147  1.0000
  H   H140      1.0  0.14321  0.36807  0.01160  1.0000
  Fe  Fe28      1.0  0.21912  0.27112  0.35463  1.0000
  S   S58       1.0  0.20571  0.25994  0.39296  1.0000
  H   H141      1.0  0.30429  0.25516  0.31360  1.0000
  H   H142      1.0  0.25392  0.45534  0.27681  1.0000
  Fe  Fe29      1.0  0.14425  0.46061  0.02141  1.0000
  C   C156      1.0  0.02502  0.23465  0.45505  1.0000
  H   H143      1.0  0.26957  0.29399  0.17312  1.0000
  H   H144      1.0  0.26844  0.28477  0.31281  1.0000
  H   H145      1.0  0.09047  0.32169  0.43771  1.0000
  H   H146      1.0  0.38179  0.38140  0.13529  1.0000
  S   S59       1.0  0.17761  0.44348  0.41808  1.0000
  H   H147      1.0  0.45520  0.41625  0.06097  1.0000
  S   S60       1.0  0.14349  0.45152  0.46792  1.0000
  H   H148      1.0  0.07821  0.44452  0.05133  1.0000
  H   H149      1.0  0.22971  0.25690  0.25913  1.0000
  H   H150      1.0  0.15351  0.27889  0.37781  1.0000
  H   H151      1.0  0.24633  0.27512  0.16823  1.0000
  H   H152      1.0  0.35083  0.38403  0.14676  1.0000
  C   C157      1.0  0.47373  0.29518  0.21663  1.0000
  Fe  Fe30      1.0  0.18100  0.45880  0.45321  1.0000
  C   C158      1.0  0.27767  0.29869  0.27610  1.0000
  H   H153      1.0  0.07517  0.42110  0.07581  1.0000
  S   S61       1.0  0.02116  0.28260  0.46182  1.0000
  C   C159      1.0  0.22300  0.43811  0.29276  1.0000
  H   H154      1.0  0.29181  0.25654  0.19035  1.0000
  N   N12       1.0  0.11299  0.31833  0.40531  1.0000
  C   C160      1.0  0.12557  0.33835  0.40209  1.0000
  C   C161      1.0  0.12291  0.29710  0.39695  1.0000
  C   C162      1.0  0.14854  0.33754  0.38987  1.0000
  C   C163      1.0  0.14579  0.29572  0.38456  1.0000
  S   S62       1.0  0.25422  0.24877  0.35721  1.0000
  C   C164      1.0  0.08902  0.31973  0.41833  1.0000
  S   S63       1.0  0.20050  0.24331  0.33913  1.0000
  H   H155      1.0  0.11323  0.28103  0.39973  1.0000
  C   C165      1.0  0.39520  0.44301  0.15962  1.0000
  H   H156      1.0  0.27734  0.46133  0.19272  1.0000
  H   H157      1.0  0.22548  0.47726  0.34538  1.0000
  H   H158      1.0  0.05892  0.45695  0.45019  1.0000
  H   H159      1.0  0.07769  0.33547  0.41072  1.0000
  C   C166      1.0  0.98463  0.25410  0.45812  1.0000
  S   S64       1.0  0.46412  0.42268  0.15188  1.0000
  H   H160      1.0  0.19193  0.42418  0.31304  1.0000
  S   S65       1.0  0.40938  0.42094  0.98960  1.0000
  C   C167      1.0  0.26530  0.24338  0.24648  1.0000
  H   H161      1.0  0.04364  0.41579  0.46867  1.0000
  Fe  Fe31      1.0  0.99447  0.31531  0.46127  1.0000
  H   H162      1.0  0.38624  0.45642  0.06668  1.0000
  H   H163      1.0  0.08971  0.36768  0.44663  1.0000
  N   N13       1.0  0.24096  0.46866  0.31059  1.0000
  Fe  Fe32      1.0  0.47888  0.45716  0.15857  1.0000
  H   H164      1.0  0.34206  0.39477  0.99344  1.0000
  H   H165      1.0  0.24891  0.46551  0.01106  1.0000
  H   H166      1.0  0.37326  0.37116  0.16632  1.0000
  C   C168      1.0  0.46040  0.44082  0.44871  1.0000
  H   H167      1.0  0.28011  0.44947  0.04179  1.0000
  Fe  Fe33      1.0  0.23907  0.23469  0.39397  1.0000
  C   C169      1.0  0.25724  0.23953  0.45220  1.0000
  S   S66       1.0  0.00665  0.34921  0.47257  1.0000
  N   N14       1.0  0.45305  0.46445  0.45140  1.0000
  C   C170      1.0  0.47268  0.31653  0.20160  1.0000
  C   C171      1.0  0.20687  0.45057  0.33155  1.0000
  C   C172      1.0  0.24355  0.25716  0.24419  1.0000
  C   C173      1.0  0.25368  0.47256  0.22287  1.0000
  H   H168      1.0  0.19366  0.44953  0.34704  1.0000
  H   H169      1.0  0.46035  0.28242  0.21638  1.0000
  S   S67       1.0  0.39186  0.23753  0.22919  1.0000
  C   C174      1.0  0.43963  0.47096  0.47396  1.0000
  S   S68       1.0  0.46419  0.47591  0.19175  1.0000
  C   C175      1.0  0.35671  0.44180  0.18270  1.0000
  C   C176      1.0  0.27130  0.23144  0.47134  1.0000
  H   H170      1.0  0.37211  0.39613  0.02295  1.0000
  S   S69       1.0  0.29734  0.46643  0.99006  1.0000
  H   H171      1.0  0.27634  0.47648  0.31547  1.0000
  S   S70       1.0  0.47077  0.47522  0.12222  1.0000
  S   S71       1.0  0.98153  0.33228  0.42619  1.0000
  C   C177      1.0  0.22480  0.46648  0.33041  1.0000
  H   H172      1.0  0.26827  0.23275  0.26332  1.0000
  C   C178      1.0  0.27208  0.47550  0.20446  1.0000
  H   H173      1.0  0.45674  0.42712  0.46330  1.0000
  H   H174      1.0  0.98361  0.39683  0.37722  1.0000
  H   H175      1.0  0.41589  0.47608  0.99257  1.0000
  Fe  Fe34      1.0  0.18942  0.23003  0.37760  1.0000
  C   C179      1.0  0.06848  0.45413  0.46687  1.0000
  H   H176      1.0  0.37930  0.47117  0.18118  1.0000
  H   H177      1.0  0.08450  0.44115  0.46394  1.0000
  H   H178      1.0  0.98977  0.35974  0.35602  1.0000
  H   H179      1.0  0.07493  0.47168  0.46994  1.0000
  H   H180      1.0  0.34264  0.44994  0.19477  1.0000
  C   C180      1.0  0.37724  0.45371  0.17508  1.0000
  S   S72       1.0  0.36393  0.47624  0.98094  1.0000
  H   H181      1.0  0.47885  0.41531  0.42511  1.0000
  C   C181      1.0  0.47034  0.47569  0.41140  1.0000
  C   C182      1.0  0.27041  0.46427  0.97708  1.0000
  H   H182      1.0  0.22800  0.24637  0.74986  1.0000
  Fe  Fe35      1.0  0.03162  0.44066  0.84142  1.0000
  S   S73       1.0  0.06831  0.43445  0.85640  1.0000
  S   S74       1.0  0.05383  0.26279  0.75855  1.0000
  S   S75       1.0  0.17459  0.24498  0.77179  1.0000
  S   S76       1.0  0.11976  0.25461  0.73275  1.0000
  H   H183      1.0  0.04330  0.42722  0.94360  1.0000
  H   H184      1.0  0.99680  0.41611  0.76488  1.0000
  H   H185      1.0  0.10131  0.41810  0.81241  1.0000
  S   S77       1.0  0.38587  0.43043  0.51173  1.0000
  Fe  Fe36      1.0  0.25438  0.41061  0.74624  1.0000
  S   S78       1.0  0.28999  0.39316  0.75703  1.0000
  S   S79       1.0  0.24870  0.44575  0.72323  1.0000
  Fe  Fe37      1.0  0.22630  0.36892  0.76992  1.0000
  S   S80       1.0  0.25956  0.34882  0.78325  1.0000
  S   S81       1.0  0.18869  0.35611  0.77370  1.0000
  Fe  Fe38      1.0  0.26971  0.38459  0.79328  1.0000
  S   S82       1.0  0.27805  0.39058  0.83173  1.0000
  Fe  Fe39      1.0  0.27661  0.35919  0.74595  1.0000
  S   S83       1.0  0.29620  0.32953  0.72455  1.0000
  S   S84       1.0  0.23466  0.40390  0.78263  1.0000
  S   S85       1.0  0.24280  0.37752  0.73246  1.0000
  H   H186      1.0  0.31908  0.25342  0.49172  1.0000
  S   S86       1.0  0.34953  0.43112  0.95296  1.0000
  H   H187      1.0  0.20382  0.33368  0.71851  1.0000
  Fe  Fe40      1.0  0.14091  0.23171  0.75957  1.0000
  H   H188      1.0  0.18002  0.29840  0.72601  1.0000
  Fe  Fe41      1.0  0.35893  0.45338  0.91820  1.0000
  S   S87       1.0  0.35625  0.44318  0.87966  1.0000
  H   H189      1.0  0.18366  0.38087  0.86322  1.0000
  C   C183      1.0  0.12477  0.39431  0.85353  1.0000
  H   H190      1.0  0.24973  0.28018  0.75088  1.0000
  Fe  Fe42      1.0  0.28242  0.28243  0.59876  1.0000
  S   S88       1.0  0.27917  0.31845  0.61507  1.0000
  S   S89       1.0  0.24728  0.26880  0.59310  1.0000
  C   C184      1.0  0.04926  0.45607  0.50810  1.0000
  H   H191      1.0  0.17717  0.25671  0.72001  1.0000
  C   C185      1.0  0.30090  0.40398  0.84476  1.0000
  C   C186      1.0  0.32072  0.41306  0.83098  1.0000
  C   C187      1.0  0.33775  0.42436  0.84210  1.0000
  C   C188      1.0  0.33517  0.42696  0.86707  1.0000
  C   C189      1.0  0.31547  0.41768  0.88086  1.0000
  C   C190      1.0  0.29852  0.40625  0.86977  1.0000
  H   H192      1.0  0.32298  0.41132  0.81179  1.0000
  H   H193      1.0  0.35297  0.43131  0.83124  1.0000
  H   H194      1.0  0.31319  0.41943  0.90005  1.0000
  H   H195      1.0  0.28336  0.39921  0.88068  1.0000
  C   C191      1.0  0.29226  0.32729  0.69376  1.0000
  C   C192      1.0  0.30066  0.30594  0.68329  1.0000
  C   C193      1.0  0.29671  0.30289  0.65927  1.0000
  C   C194      1.0  0.28500  0.32155  0.64521  1.0000
  C   C195      1.0  0.27729  0.34321  0.65543  1.0000
  C   C196      1.0  0.28069  0.34600  0.67965  1.0000
  H   H196      1.0  0.31034  0.29169  0.69384  1.0000
  H   H197      1.0  0.30318  0.28631  0.65148  1.0000
  H   H198      1.0  0.26843  0.35785  0.64465  1.0000
  H   H199      1.0  0.27453  0.36272  0.68731  1.0000
  C   C197      1.0  0.41664  0.42304  0.51559  1.0000
  C   C198      1.0  0.24819  0.46207  0.94229  1.0000
  C   C199      1.0  0.45297  0.39635  0.50814  1.0000
  H   H200      1.0  0.03658  0.42805  0.74805  1.0000
  C   C200      1.0  0.45333  0.42891  0.53341  1.0000
  C   C201      1.0  0.42911  0.43601  0.52976  1.0000
  H   H201      1.0  0.99575  0.23839  0.66305  1.0000
  H   H202      1.0  0.28679  0.46267  0.94082  1.0000
  H   H203      1.0  0.01346  0.27675  0.70093  1.0000
  H   H204      1.0  0.41995  0.45113  0.53844  1.0000
  H   H205      1.0  0.22006  0.28184  0.48015  1.0000
  C   C202      1.0  0.42867  0.40319  0.50481  1.0000
  C   C203      1.0  0.26993  0.47474  0.49548  1.0000
  H   H206      1.0  0.27885  0.45554  0.76012  1.0000
  C   C204      1.0  0.98995  0.41382  0.70615  1.0000
  C   C205      1.0  0.23444  0.26780  0.47772  1.0000
  S   S90       1.0  0.29862  0.24670  0.61370  1.0000
  H   H207      1.0  0.18603  0.37815  0.81894  1.0000
  C   C206      1.0  0.19938  0.23436  0.63338  1.0000
  Fe  Fe43      1.0  0.00908  0.46658  0.79683  1.0000
  H   H208      1.0  0.46184  0.38084  0.50003  1.0000
  C   C207      1.0  0.17754  0.27587  0.77386  1.0000
  C   C208      1.0  0.15839  0.29339  0.77064  1.0000
  C   C209      1.0  0.16195  0.31793  0.77090  1.0000
  C   C210      1.0  0.18471  0.32514  0.77404  1.0000
  C   C211      1.0  0.20376  0.30760  0.77746  1.0000
  C   C212      1.0  0.20005  0.28309  0.77779  1.0000
  H   H209      1.0  0.14087  0.28806  0.76791  1.0000
  H   H210      1.0  0.14706  0.33138  0.76843  1.0000
  H   H211      1.0  0.22121  0.31289  0.78043  1.0000
  H   H212      1.0  0.21467  0.26968  0.78142  1.0000
  C   C213      1.0  0.47128  0.33265  0.54906  1.0000
  C   C214      1.0  0.02660  0.25218  0.75287  1.0000
  C   C215      1.0  0.00589  0.26821  0.75172  1.0000
  H   H213      1.0  0.41911  0.39303  0.49388  1.0000
  H   H214      1.0  0.00677  0.28692  0.75459  1.0000
  C   C216      1.0  0.22658  0.46249  0.95707  1.0000
  C   C217      1.0  0.07229  0.43495  0.88739  1.0000
  C   C218      1.0  0.05354  0.43135  0.90532  1.0000
  C   C219      1.0  0.05781  0.43046  0.92984  1.0000
  C   C220      1.0  0.08070  0.43370  0.93665  1.0000
  C   C221      1.0  0.09934  0.43777  0.91869  1.0000
  C   C222      1.0  0.09519  0.43817  0.89420  1.0000
  H   H215      1.0  0.03587  0.42867  0.90032  1.0000
  H   H216      1.0  0.47457  0.24371  0.51460  1.0000
  C   C223      1.0  0.26026  0.27813  0.73324  1.0000
  C   C224      1.0  0.16752  0.38423  0.85370  1.0000
  H   H217      1.0  0.24788  0.46120  0.92311  1.0000
  C   C225      1.0  0.45938  0.36757  0.57083  1.0000
  Fe  Fe44      1.0  0.31139  0.23990  0.57509  1.0000
  S   S91       1.0  0.29761  0.27714  0.56069  1.0000
  C   C226      1.0  0.24844  0.25963  0.49688  1.0000
  H   H218      1.0  0.46372  0.38110  0.58198  1.0000
  H   H219      1.0  0.98431  0.34398  0.77399  1.0000
  H   H220      1.0  0.10759  0.39888  0.86332  1.0000
  H   H221      1.0  0.19233  0.24397  0.69411  1.0000
  H   H222      1.0  0.23027  0.31967  0.53634  1.0000
  C   C227      1.0  0.43223  0.35244  0.54606  1.0000
  C   C228      1.0  0.22307  0.32113  0.68618  1.0000
  S   S92       1.0  0.08563  0.43187  0.96763  1.0000
  C   C229      1.0  0.25569  0.33551  0.55522  1.0000
  H   H223      1.0  0.41507  0.35442  0.53834  1.0000
  H   H224      1.0  0.98602  0.32820  0.82723  1.0000
  H   H225      1.0  0.44027  0.46030  0.97544  1.0000
  N   N15       1.0  0.28035  0.46274  0.83459  1.0000
  H   H226      1.0  0.27963  0.27698  0.73646  1.0000
  H   H227      1.0  0.25663  0.32090  0.56940  1.0000
  Fe  Fe45      1.0  0.98106  0.46479  0.84565  1.0000
  H   H228      1.0  0.98046  0.23199  0.79666  1.0000
  H   H229      1.0  0.14930  0.38611  0.79739  1.0000
  C   C230      1.0  0.00116  0.41690  0.74556  1.0000
  C   C231      1.0  0.26918  0.35513  0.55556  1.0000
  C   C232      1.0  0.24090  0.33483  0.53665  1.0000
  H   H230      1.0  0.32159  0.23098  0.51717  1.0000
  C   C233      1.0  0.00001  0.29334  0.81627  1.0000
  H   H231      1.0  0.45495  0.32191  0.50526  1.0000
  C   C234      1.0  0.27290  0.46256  0.85863  1.0000
  H   H232      1.0  0.00850  0.25780  0.80502  1.0000
  N   N16       1.0  0.25339  0.37287  0.51879  1.0000
  C   C235      1.0  0.25084  0.46021  0.49527  1.0000
  C   C236      1.0  0.26772  0.37386  0.53714  1.0000
  H   H233      1.0  0.05799  0.47218  0.50965  1.0000
  N   N17       1.0  0.25484  0.25684  0.72206  1.0000
  H   H234      1.0  0.28060  0.35574  0.57012  1.0000
  H   H235      1.0  0.37798  0.25061  0.50625  1.0000
  C   C237      1.0  0.17496  0.23881  0.64143  1.0000
  C   C238      1.0  0.04311  0.23001  0.67447  1.0000
  H   H236      1.0  0.16563  0.26421  0.69094  1.0000
  C   C239      1.0  0.03462  0.44695  0.52784  1.0000
  C   C240      1.0  0.02382  0.42352  0.73613  1.0000
  C   C241      1.0  0.43696  0.36920  0.56165  1.0000
  H   H237      1.0  0.25674  0.45424  0.86583  1.0000
  H   H238      1.0  0.11707  0.44019  0.92368  1.0000
  H   H239      1.0  0.08941  0.26039  0.68715  1.0000
  Fe  Fe46      1.0  0.08750  0.23791  0.75170  1.0000
  Fe  Fe47      1.0  0.33153  0.46584  0.96529  1.0000
  S   S93       1.0  0.00221  0.46750  0.59977  1.0000
  C   C242      1.0  0.02942  0.42533  0.71123  1.0000
  H   H240      1.0  0.21530  0.26856  0.66358  1.0000
  C   C243      1.0  0.05179  0.27098  0.69521  1.0000
  H   H241      1.0  0.98601  0.25134  0.69089  1.0000
  H   H242      1.0  0.25633  0.29472  0.72126  1.0000
  H   H243      1.0  0.27909  0.46524  0.67042  1.0000
  S   S94       1.0  0.19924  0.46378  0.94387  1.0000
  H   H244      1.0  0.25298  0.44057  0.82790  1.0000
  Fe  Fe48      1.0  0.36962  0.46886  0.51407  1.0000
  C   C244      1.0  0.98410  0.26018  0.74653  1.0000
  S   S95       1.0  0.99652  0.42690  0.85663  1.0000
  C   C245      1.0  0.98297  0.23602  0.74274  1.0000
  H   H245      1.0  0.16421  0.25356  0.63272  1.0000
  H   H246      1.0  0.31602  0.46064  0.72137  1.0000
  C   C246      1.0  0.98587  0.47499  0.69384  1.0000
  H   H247      1.0  0.01711  0.39909  0.50300  1.0000
  S   S96       1.0  0.39442  0.46218  0.93036  1.0000
  H   H248      1.0  0.10977  0.44115  0.88047  1.0000
  H   H249      1.0  0.42531  0.31810  0.52007  1.0000
  S   S97       1.0  0.24138  0.27163  0.52495  1.0000
  C   C247      1.0  0.99963  0.23847  0.68214  1.0000
  S   S98       1.0  0.02748  0.42991  0.80446  1.0000
  N   N18       1.0  0.12624  0.39270  0.82917  1.0000
  C   C248      1.0  0.31176  0.45892  0.70264  1.0000
  C   C249      1.0  0.01248  0.42026  0.69611  1.0000
  S   S99       1.0  0.98586  0.38260  0.80391  1.0000
  Fe  Fe49      1.0  0.26380  0.26016  0.55643  1.0000
  C   C250      1.0  0.33140  0.24410  0.50471  1.0000
  H   H250      1.0  0.01189  0.41889  0.54124  1.0000
  C   C251      1.0  0.23782  0.24238  0.73288  1.0000
  H   H251      1.0  0.25608  0.46722  0.80722  1.0000
  H   H252      1.0  0.14403  0.39153  0.88548  1.0000
  C   C252      1.0  0.26259  0.23127  0.68955  1.0000
  Fe  Fe50      1.0  0.99084  0.41875  0.81866  1.0000
  H   H253      1.0  0.10621  0.38965  0.79901  1.0000
  H   H254      1.0  0.01629  0.42243  0.67667  1.0000
  C   C253      1.0  0.10459  0.39829  0.81623  1.0000
  C   C254      1.0  0.30106  0.47273  0.82568  1.0000
  C   C255      1.0  0.98171  0.31076  0.82265  1.0000
  H   H255      1.0  0.05499  0.28659  0.70415  1.0000
  C   C256      1.0  0.07110  0.25615  0.68592  1.0000
  C   C257      1.0  0.14534  0.39012  0.86617  1.0000
  C   C258      1.0  0.02833  0.26513  0.69358  1.0000
  C   C259      1.0  0.98384  0.47416  0.73762  1.0000
  C   C260      1.0  0.99408  0.27119  0.80997  1.0000
  H   H256      1.0  0.23890  0.30405  0.65476  1.0000
  H   H257      1.0  0.12088  0.47695  0.50872  1.0000
  C   C261      1.0  0.44467  0.31756  0.52289  1.0000
  C   C262      1.0  0.14796  0.38719  0.81676  1.0000
  H   H258      1.0  0.20721  0.24557  0.61850  1.0000
  H   H259      1.0  0.23309  0.33688  0.68241  1.0000
  H   H260      1.0  0.45068  0.29882  0.52955  1.0000
  H   H261      1.0  0.30720  0.47244  0.80675  1.0000
  H   H262      1.0  0.29885  0.44485  0.70389  1.0000
  C   C263      1.0  0.27167  0.47248  0.75160  1.0000
  Fe  Fe51      1.0  0.38274  0.44329  0.96640  1.0000
  H   H263      1.0  0.45076  0.46577  0.48933  1.0000
  H   H264      1.0  0.27812  0.38915  0.53765  1.0000
  N   N19       1.0  0.44929  0.33441  0.54006  1.0000
  C   C264      1.0  0.26706  0.25155  0.70061  1.0000
  H   H265      1.0  0.27779  0.44122  0.80576  1.0000
  C   C265      1.0  0.16888  0.38273  0.82885  1.0000
  C   C266      1.0  0.02538  0.22807  0.74913  1.0000
  S   S100      1.0  0.13417  0.23116  0.67139  1.0000
  H   H266      1.0  0.32837  0.45276  0.69176  1.0000
  C   C267      1.0  0.26601  0.45260  0.81806  1.0000
  C   C268      1.0  0.27013  0.46292  0.95227  1.0000
  H   H267      1.0  0.08854  0.39180  0.82728  1.0000
  N   N20       1.0  0.05249  0.44486  0.48721  1.0000
  H   H268      1.0  0.04659  0.43128  0.70364  1.0000
  C   C269      1.0  0.02319  0.42623  0.52604  1.0000
  N   N21       1.0  0.19685  0.28112  0.69577  1.0000
  C   C270      1.0  0.21291  0.28270  0.67581  1.0000
  C   C271      1.0  0.19332  0.29929  0.71073  1.0000
  C   C272      1.0  0.22631  0.30271  0.67073  1.0000
  C   C273      1.0  0.20656  0.31940  0.70639  1.0000
  C   C274      1.0  0.18230  0.26053  0.70042  1.0000
  H   H269      1.0  0.33686  0.25759  0.51603  1.0000
  H   H270      1.0  0.22827  0.35313  0.50418  1.0000
  H   H271      1.0  0.28206  0.47155  0.50960  1.0000
  H   H272      1.0  0.01870  0.29701  0.81597  1.0000
  H   H273      1.0  0.24827  0.44594  0.50943  1.0000
  C   C275      1.0  0.46536  0.40900  0.52269  1.0000
  H   H274      1.0  0.42372  0.38397  0.56569  1.0000
  H   H275      1.0  0.28055  0.26288  0.69201  1.0000
  C   C276      1.0  0.26687  0.24138  0.49366  1.0000
  C   C277      1.0  0.02628  0.41504  0.50459  1.0000
  N   N22       1.0  0.35215  0.23159  0.49186  1.0000
  N   N23       1.0  0.02425  0.24474  0.68349  1.0000
  C   C278      1.0  0.23476  0.46453  0.47724  1.0000
  H   H276      1.0  0.46270  0.43871  0.54484  1.0000
  H   H277      1.0  0.03217  0.45594  0.54439  1.0000
  N   N24       1.0  0.98442  0.41259  0.73056  1.0000
  C   C279      1.0  0.37496  0.23722  0.49434  1.0000
  C   C280      1.0  0.25575  0.47261  0.73378  1.0000
  Fe  Fe52      1.0  0.16626  0.46669  0.96999  1.0000
  Fe  Fe53      1.0  0.26398  0.23272  0.60601  1.0000
  S   S101      1.0  0.35085  0.22882  0.56349  1.0000
  H   H278      1.0  0.20200  0.23785  0.51060  1.0000
  C   C281      1.0  0.25131  0.39292  0.50002  1.0000
  H   H279      1.0  0.10462  0.46788  0.55107  1.0000
  C   C282      1.0  0.23991  0.35379  0.51850  1.0000
  C   C283      1.0  0.06680  0.23558  0.67538  1.0000
  H   H280      1.0  0.27738  0.23465  0.50849  1.0000
  H   H281      1.0  0.17127  0.47438  0.50975  1.0000
  H   H282      1.0  0.26716  0.40369  0.49823  1.0000
  C   C284      1.0  0.04118  0.42462  0.48525  1.0000
  C   C285      1.0  0.47666  0.34918  0.56456  1.0000
  S   S102      1.0  0.21018  0.44692  0.47835  1.0000
  H   H283      1.0  0.23490  0.40497  0.50433  1.0000
  H   H284      1.0  0.25002  0.38631  0.48210  1.0000
  C   C286      1.0  0.28658  0.47217  0.87447  1.0000
  H   H285      1.0  0.28126  0.47111  0.89364  1.0000
  H   H286      1.0  0.41293  0.22875  0.48526  1.0000
  H   H287      1.0  0.16538  0.22980  0.48819  1.0000
  H   H288      1.0  0.42285  0.46156  0.47706  1.0000
  H   H289      1.0  0.45183  0.59735  0.03722  1.0000
  C   C287      1.0  0.27915  0.68746  0.23134  1.0000
  S   S103      1.0  0.10554  0.51363  0.47125  1.0000
  S   S104      1.0  0.17615  0.49633  0.36627  1.0000
  H   H290      1.0  0.18814  0.51893  0.31902  1.0000
  Fe  Fe54      1.0  0.13309  0.48851  0.45169  1.0000
  Fe  Fe55      1.0  0.16520  0.48157  0.40498  1.0000
  S   S105      1.0  0.17103  0.49711  0.43945  1.0000
  Fe  Fe56      1.0  0.26337  0.58454  0.28700  1.0000
  S   S106      1.0  0.30016  0.57298  0.27008  1.0000
  S   S107      1.0  0.25475  0.56919  0.32588  1.0000
  Fe  Fe57      1.0  0.25249  0.61908  0.24268  1.0000
  S   S108      1.0  0.28805  0.60939  0.22300  1.0000
  S   S109      1.0  0.22608  0.64742  0.22581  1.0000
  Fe  Fe58      1.0  0.28145  0.57140  0.23665  1.0000
  S   S110      1.0  0.29065  0.54268  0.21069  1.0000
  Fe  Fe59      1.0  0.30324  0.61221  0.25815  1.0000
  S   S111      1.0  0.33860  0.62926  0.25746  1.0000
  S   S112      1.0  0.24443  0.58070  0.25397  1.0000
  S   S113      1.0  0.26796  0.62412  0.27747  1.0000
  C   C288      1.0  0.19351  0.54713  0.99300  1.0000
  C   C289      1.0  0.34843  0.70909  0.26357  1.0000
  C   C290      1.0  0.47156  0.48898  0.23635  1.0000
  H   H291      1.0  0.21867  0.54700  0.30253  1.0000
  C   C291      1.0  0.44621  0.64881  0.00133  1.0000
  H   H292      1.0  0.35902  0.61455  0.30173  1.0000
  H   H293      1.0  0.39917  0.50990  0.39396  1.0000
  H   H294      1.0  0.45273  0.49539  0.23745  1.0000
  S   S114      1.0  0.00213  0.57912  0.99579  1.0000
  H   H295      1.0  0.22841  0.53707  0.00593  1.0000
  H   H296      1.0  0.46477  0.65892  0.04096  1.0000
  H   H297      1.0  0.18830  0.60295  0.21952  1.0000
  C   C292      1.0  0.23794  0.48338  0.45932  1.0000
  C   C293      1.0  0.24687  0.49119  0.23787  1.0000
  H   H298      1.0  0.29115  0.67051  0.23257  1.0000
  C   C294      1.0  0.41563  0.53714  0.44113  1.0000
  C   C295      1.0  0.43572  0.54775  0.42931  1.0000
  C   C296      1.0  0.44294  0.54434  0.40498  1.0000
  C   C297      1.0  0.42985  0.53065  0.39210  1.0000
  C   C298      1.0  0.40946  0.52046  0.40377  1.0000
  C   C299      1.0  0.40250  0.52349  0.42823  1.0000
  H   H299      1.0  0.44596  0.55842  0.43906  1.0000
  S   S115      1.0  0.11236  0.54161  0.97816  1.0000
  H   H300      1.0  0.38688  0.51539  0.43700  1.0000
  C   C300      1.0  0.46963  0.64016  0.03632  1.0000
  C   C301      1.0  0.06530  0.53735  0.99688  1.0000
  C   C302      1.0  0.04102  0.54606  0.00082  1.0000
  C   C303      1.0  0.03277  0.56885  0.99060  1.0000
  C   C304      1.0  0.42413  0.61876  0.98718  1.0000
  C   C305      1.0  0.38786  0.59281  0.31777  1.0000
  H   H301      1.0  0.07144  0.51979  0.00487  1.0000
  H   H302      1.0  0.02859  0.53507  0.01178  1.0000
  C   C306      1.0  0.08162  0.55160  0.98310  1.0000
  H   H303      1.0  0.20805  0.70449  0.15628  1.0000
  C   C307      1.0  0.34130  0.66038  0.25889  1.0000
  C   C308      1.0  0.32350  0.67503  0.27097  1.0000
  C   C309      1.0  0.32714  0.69921  0.27342  1.0000
  H   H304      1.0  0.32248  0.70198  0.21797  1.0000
  C   C310      1.0  0.36596  0.69460  0.25093  1.0000
  C   C311      1.0  0.36250  0.67030  0.24886  1.0000
  H   H305      1.0  0.30727  0.66756  0.27913  1.0000
  H   H306      1.0  0.22574  0.48680  0.44528  1.0000
  H   H307      1.0  0.38248  0.70190  0.24338  1.0000
  H   H308      1.0  0.37646  0.65907  0.23963  1.0000
  C   C312      1.0  0.23194  0.66045  0.19596  1.0000
  C   C313      1.0  0.25133  0.65158  0.18079  1.0000
  C   C314      1.0  0.25473  0.66128  0.15673  1.0000
  C   C315      1.0  0.23927  0.68048  0.14777  1.0000
  C   C316      1.0  0.22028  0.68989  0.16309  1.0000
  C   C317      1.0  0.21642  0.67963  0.18699  1.0000
  H   H309      1.0  0.26337  0.63681  0.18730  1.0000
  H   H310      1.0  0.26940  0.65388  0.14494  1.0000
  H   H311      1.0  0.18664  0.55674  0.00849  1.0000
  H   H312      1.0  0.20129  0.68658  0.19852  1.0000
  C   C318      1.0  0.27696  0.51544  0.21633  1.0000
  C   C319      1.0  0.25867  0.51243  0.23483  1.0000
  H   H313      1.0  0.25353  0.50074  0.32099  1.0000
  C   C320      1.0  0.28358  0.49698  0.20111  1.0000
  H   H314      1.0  0.25330  0.52666  0.24649  1.0000
  H   H315      1.0  0.46963  0.62825  0.05341  1.0000
  H   H316      1.0  0.45841  0.55267  0.39613  1.0000
  H   H317      1.0  0.25186  0.60302  0.15878  1.0000
  C   C321      1.0  0.43100  0.60278  0.00652  1.0000
  S   S116      1.0  0.43807  0.52648  0.36134  1.0000
  S   S117      1.0  0.40807  0.54067  0.47213  1.0000
  C   C322      1.0  0.19708  0.51780  0.35580  1.0000
  C   C323      1.0  0.21221  0.52618  0.37106  1.0000
  C   C324      1.0  0.22959  0.54203  0.36162  1.0000
  C   C325      1.0  0.23209  0.54971  0.33686  1.0000
  C   C326      1.0  0.21698  0.54129  0.32159  1.0000
  C   C327      1.0  0.19964  0.52541  0.33102  1.0000
  H   H318      1.0  0.21067  0.52032  0.39010  1.0000
  H   H319      1.0  0.24121  0.54835  0.37359  1.0000
  C   C328      1.0  0.30943  0.70834  0.20514  1.0000
  N   N25       1.0  0.23515  0.57813  0.18506  1.0000
  C   C329      1.0  0.23263  0.55430  0.19163  1.0000
  C   C330      1.0  0.19763  0.56477  0.21827  1.0000
  C   C331      1.0  0.21377  0.54724  0.20818  1.0000
  S   S118      1.0  0.24316  0.69095  0.11697  1.0000
  H   H320      1.0  0.41276  0.56815  0.33707  1.0000
  C   C332      1.0  0.25583  0.58519  0.16879  1.0000
  H   H321      1.0  0.24550  0.54061  0.18434  1.0000
  H   H322      1.0  0.22130  0.61427  0.18971  1.0000
  H   H323      1.0  0.21203  0.52830  0.21346  1.0000
  C   C333      1.0  0.43179  0.64192  0.98452  1.0000
  H   H324      1.0  0.26272  0.49422  0.29071  1.0000
  H   H325      1.0  0.27146  0.58610  0.17941  1.0000
  H   H326      1.0  0.26094  0.57191  0.15528  1.0000
  C   C334      1.0  0.25934  0.48580  0.30941  1.0000
  N   N26       1.0  0.34603  0.58671  0.32701  1.0000
  N   N27       1.0  0.45295  0.63302  0.02016  1.0000
  C   C335      1.0  0.35190  0.56786  0.34343  1.0000
  C   C336      1.0  0.31667  0.72261  0.18427  1.0000
  C   C337      1.0  0.37598  0.56088  0.34722  1.0000
  C   C338      1.0  0.39403  0.57343  0.33425  1.0000
  C   C339      1.0  0.32067  0.59420  0.32388  1.0000
  H   H327      1.0  0.28036  0.69727  0.24746  1.0000
  H   H328      1.0  0.33793  0.55813  0.35371  1.0000
  H   H329      1.0  0.29758  0.49933  0.18662  1.0000
  H   H330      1.0  0.38076  0.54586  0.36016  1.0000
  C   C340      1.0  0.25679  0.49813  0.45975  1.0000
  C   C341      1.0  0.27620  0.72520  0.17245  1.0000
  C   C342      1.0  0.21691  0.53613  0.99155  1.0000
  S   S119      1.0  0.16171  0.49121  0.99982  1.0000
  H   H331      1.0  0.31001  0.57834  0.32444  1.0000
  C   C343      1.0  0.18556  0.55035  0.47019  1.0000
  H   H332      1.0  0.46732  0.55643  0.22931  1.0000
  H   H333      1.0  0.14683  0.55131  0.47156  1.0000
  H   H334      1.0  0.18683  0.56586  0.45710  1.0000
  H   H335      1.0  0.22389  0.54411  0.47256  1.0000
  H   H336      1.0  0.45304  0.50056  0.43555  1.0000
  H   H337      1.0  0.25095  0.70727  0.19729  1.0000
  H   H338      1.0  0.31848  0.60468  0.30618  1.0000
  N   N28       1.0  0.28617  0.70254  0.20939  1.0000
  H   H339      1.0  0.23227  0.48928  0.25179  1.0000
  C   C344      1.0  0.30490  0.72658  0.98197  1.0000
  H   H340      1.0  0.25897  0.51293  0.44603  1.0000
  H   H341      1.0  0.31355  0.71023  0.28337  1.0000
  H   H342      1.0  0.98087  0.60993  0.03312  1.0000
  C   C345      1.0  0.45060  0.48606  0.01723  1.0000
  H   H343      1.0  0.31296  0.60557  0.33838  1.0000
  C   C346      1.0  0.44566  0.61021  0.02286  1.0000
  H   H344      1.0  0.40175  0.60277  0.30765  1.0000
  H   H345      1.0  0.46786  0.49372  0.04835  1.0000
  H   H346      1.0  0.47426  0.48959  0.39703  1.0000
  H   H347      1.0  0.18323  0.55958  0.23152  1.0000
  H   H348      1.0  0.29119  0.71510  0.98995  1.0000
  H   H349      1.0  0.45265  0.66661  0.99871  1.0000
  H   H350      1.0  0.26045  0.68231  0.23162  1.0000
  C   C347      1.0  0.26953  0.71115  0.19361  1.0000
  C   C348      1.0  0.21929  0.59540  0.19474  1.0000
  H   H351      1.0  0.42572  0.58452  0.00836  1.0000
  H   H352      1.0  0.47758  0.50127  0.27066  1.0000
  C   C349      1.0  0.36363  0.59933  0.31445  1.0000
  H   H353      1.0  0.43429  0.49060  0.47365  1.0000
  C   C350      1.0  0.20038  0.58903  0.21151  1.0000
  Fe  Fe60      1.0  0.12532  0.50250  0.98659  1.0000
  N   N29       1.0  0.45026  0.48949  0.99270  1.0000
  C   C351      1.0  0.46702  0.50239  0.97917  1.0000
  Fe  Fe61      1.0  0.47751  0.52645  0.34761  1.0000
  C   C352      1.0  0.46753  0.49647  0.02888  1.0000
  H   H354      1.0  0.33505  0.72744  0.18105  1.0000
  C   C353      1.0  0.45823  0.48182  0.43325  1.0000
  H   H355      1.0  0.47884  0.70126  0.24293  1.0000
  C   C354      1.0  0.43266  0.47827  0.98066  1.0000
  C   C355      1.0  0.04899  0.58292  0.97645  1.0000
  Fe  Fe62      1.0  0.98582  0.65734  0.94119  1.0000
  Fe  Fe63      1.0  0.02546  0.49838  0.59262  1.0000
  H   H356      1.0  0.00907  0.56114  0.94702  1.0000
  H   H357      1.0  0.03540  0.49650  0.71194  1.0000
  S   S120      1.0  0.06430  0.48843  0.57973  1.0000
  C   C356      1.0  0.38114  0.58186  0.51710  1.0000
  H   H358      1.0  0.33897  0.59601  0.57344  1.0000
  Fe  Fe64      1.0  0.27459  0.60224  0.67820  1.0000
  S   S121      1.0  0.24578  0.58255  0.70026  1.0000
  S   S122      1.0  0.27824  0.59645  0.63805  1.0000
  Fe  Fe65      1.0  0.28420  0.62927  0.72165  1.0000
  S   S123      1.0  0.25673  0.61057  0.74630  1.0000
  S   S124      1.0  0.30483  0.65768  0.73510  1.0000
  Fe  Fe66      1.0  0.27164  0.57727  0.72894  1.0000
  S   S125      1.0  0.28198  0.54312  0.75198  1.0000
  Fe  Fe67      1.0  0.23379  0.61799  0.71531  1.0000
  S   S126      1.0  0.19457  0.63114  0.72191  1.0000
  S   S127      1.0  0.30126  0.59525  0.70623  1.0000
  S   S128      1.0  0.26050  0.63827  0.69117  1.0000
  Fe  Fe68      1.0  0.35279  0.51155  0.54379  1.0000
  S   S129      1.0  0.01652  0.47852  0.83239  1.0000
  S   S130      1.0  0.35232  0.52288  0.58211  1.0000
  H   H359      1.0  0.31927  0.48852  0.87780  1.0000
  Fe  Fe69      1.0  0.98586  0.60859  0.97022  1.0000
  Fe  Fe70      1.0  0.32818  0.50467  0.49892  1.0000
  H   H360      1.0  0.41346  0.61298  0.97392  1.0000
  N   N30       1.0  0.04138  0.72371  0.83690  1.0000
  S   S131      1.0  0.34502  0.53609  0.51080  1.0000
  H   H361      1.0  0.30512  0.54179  0.69163  1.0000
  S   S132      1.0  0.38750  0.53150  0.94666  1.0000
  S   S133      1.0  0.28653  0.68736  0.84201  1.0000
  Fe  Fe71      1.0  0.37937  0.51936  0.49314  1.0000
  C   C357      1.0  0.41789  0.53835  0.94149  1.0000
  C   C358      1.0  0.43431  0.52663  0.92515  1.0000
  C   C359      1.0  0.45803  0.53347  0.92089  1.0000
  C   C360      1.0  0.99020  0.71419  0.96850  1.0000
  C   C361      1.0  0.44928  0.56316  0.94976  1.0000
  C   C362      1.0  0.42548  0.55673  0.95362  1.0000
  H   H362      1.0  0.42861  0.51269  0.91541  1.0000
  C   C363      1.0  0.46573  0.55162  0.93333  1.0000
  H   H363      1.0  0.00442  0.56595  0.91543  1.0000
  C   C364      1.0  0.29630  0.66927  0.76340  1.0000
  C   C365      1.0  0.30905  0.68733  0.77076  1.0000
  C   C366      1.0  0.30484  0.69460  0.79436  1.0000
  C   C367      1.0  0.28803  0.68359  0.81086  1.0000
  C   C368      1.0  0.27454  0.66639  0.80316  1.0000
  C   C369      1.0  0.27846  0.65945  0.77951  1.0000
  H   H364      1.0  0.32284  0.69514  0.75843  1.0000
  H   H365      1.0  0.31553  0.70774  0.80016  1.0000
  H   H366      1.0  0.26153  0.65774  0.81579  1.0000
  H   H367      1.0  0.26833  0.64576  0.77417  1.0000
  C   C370      1.0  0.27061  0.51628  0.74581  1.0000
  Fe  Fe72      1.0  0.98387  0.53564  0.60617  1.0000
  C   C371      1.0  0.25407  0.51637  0.72862  1.0000
  H   H368      1.0  0.00601  0.60920  0.65791  1.0000
  H   H369      1.0  0.24716  0.53314  0.71969  1.0000
  C   C372      1.0  0.29871  0.57546  0.62303  1.0000
  C   C373      1.0  0.31854  0.56364  0.63385  1.0000
  C   C374      1.0  0.33451  0.54737  0.62117  1.0000
  C   C375      1.0  0.33089  0.54266  0.59757  1.0000
  C   C376      1.0  0.31101  0.55441  0.58676  1.0000
  C   C377      1.0  0.29509  0.57078  0.59940  1.0000
  H   H370      1.0  0.32179  0.56730  0.65185  1.0000
  H   H371      1.0  0.34991  0.53850  0.62965  1.0000
  H   H372      1.0  0.30801  0.55102  0.56859  1.0000
  H   H373      1.0  0.27984  0.57984  0.59082  1.0000
  C   C378      1.0  0.27570  0.50372  0.66351  1.0000
  H   H374      1.0  0.27561  0.54238  0.66107  1.0000
  H   H375      1.0  0.98568  0.53356  0.73338  1.0000
  H   H376      1.0  0.47054  0.52449  0.90804  1.0000
  H   H377      1.0  0.22726  0.68428  0.63467  1.0000
  S   S134      1.0  0.00276  0.62042  0.93371  1.0000
  C   C379      1.0  0.16996  0.71144  0.71018  1.0000
  C   C380      1.0  0.15405  0.69507  0.72110  1.0000
  C   C381      1.0  0.16197  0.67058  0.72525  1.0000
  C   C382      1.0  0.18596  0.66237  0.71904  1.0000
  C   C383      1.0  0.20207  0.67893  0.70899  1.0000
  C   C384      1.0  0.19401  0.70329  0.70424  1.0000
  H   H378      1.0  0.13544  0.70113  0.72564  1.0000
  H   H379      1.0  0.14937  0.65791  0.73304  1.0000
  H   H380      1.0  0.22058  0.67289  0.70419  1.0000
  C   C385      1.0  0.07336  0.57441  0.97294  1.0000
  H   H381      1.0  0.42200  0.56302  0.54754  1.0000
  C   C386      1.0  0.31177  0.72725  0.95731  1.0000
  H   H382      1.0  0.17468  0.59930  0.65732  1.0000
  C   C387      1.0  0.07514  0.49533  0.54938  1.0000
  H   H383      1.0  0.06484  0.53388  0.49977  1.0000
  C   C388      1.0  0.99558  0.55306  0.68288  1.0000
  H   H384      1.0  0.17438  0.51225  0.92953  1.0000
  C   C389      1.0  0.10505  0.48730  0.51580  1.0000
  C   C390      1.0  0.09401  0.50604  0.50127  1.0000
  H   H385      1.0  0.40294  0.53854  0.55526  1.0000
  C   C391      1.0  0.21020  0.52226  0.95341  1.0000
  H   H386      1.0  0.08586  0.58558  0.96230  1.0000
  C   C392      1.0  0.06388  0.51381  0.53473  1.0000
  C   C393      1.0  0.07344  0.51930  0.51086  1.0000
  C   C394      1.0  0.05744  0.71809  0.87561  1.0000
  C   C395      1.0  0.24678  0.49461  0.72253  1.0000
  H   H387      1.0  0.04812  0.52423  0.54195  1.0000
  S   S135      1.0  0.33378  0.48090  0.53313  1.0000
  H   H388      1.0  0.14453  0.51549  0.50058  1.0000
  H   H389      1.0  0.16659  0.61322  0.68523  1.0000
  H   H390      1.0  0.01508  0.56633  0.64985  1.0000
  H   H391      1.0  0.26269  0.50377  0.65035  1.0000
  H   H392      1.0  0.24355  0.51507  0.97025  1.0000
  N   N31       1.0  0.18710  0.53255  0.95527  1.0000
  H   H393      1.0  0.00830  0.70314  0.76993  1.0000
  H   H394      1.0  0.41283  0.56599  0.96611  1.0000
  C   C396      1.0  0.30787  0.48208  0.86556  1.0000
  C   C397      1.0  0.00508  0.71624  0.75486  1.0000
  C   C398      1.0  0.18043  0.48753  0.51856  1.0000
  C   C399      1.0  0.28297  0.52537  0.66950  1.0000
  S   S136      1.0  0.99955  0.52191  0.57085  1.0000
  Fe  Fe73      1.0  0.37384  0.49482  0.94456  1.0000
  H   H395      1.0  0.32926  0.61509  0.53307  1.0000
  N   N32       1.0  0.32715  0.62984  0.80575  1.0000
  C   C400      1.0  0.30979  0.62056  0.82187  1.0000
  C   C401      1.0  0.33102  0.62228  0.78304  1.0000
  C   C402      1.0  0.29549  0.60350  0.81525  1.0000
  C   C403      1.0  0.31707  0.60525  0.77584  1.0000
  C   C404      1.0  0.29924  0.59578  0.79208  1.0000
  C   C405      1.0  0.34241  0.64717  0.81319  1.0000
  H   H396      1.0  0.30646  0.62687  0.83974  1.0000
  H   H397      1.0  0.34440  0.62999  0.77004  1.0000
  H   H398      1.0  0.28138  0.59660  0.82787  1.0000
  H   H399      1.0  0.31972  0.59988  0.75759  1.0000
  H   H400      1.0  0.28816  0.58273  0.78655  1.0000
  H   H401      1.0  0.33266  0.65805  0.82727  1.0000
  H   H402      1.0  0.35876  0.63759  0.82044  1.0000
  H   H403      1.0  0.34778  0.66015  0.79776  1.0000
  N   N33       1.0  0.19408  0.62915  0.66154  1.0000
  C   C406      1.0  0.21669  0.62586  0.65021  1.0000
  C   C407      1.0  0.18285  0.65180  0.66271  1.0000
  C   C408      1.0  0.22889  0.64559  0.64023  1.0000
  C   C409      1.0  0.19454  0.67195  0.65295  1.0000
  C   C410      1.0  0.21778  0.66879  0.64180  1.0000
  N   N34       1.0  0.18238  0.50963  0.50249  1.0000
  H   H404      1.0  0.05584  0.71104  0.89442  1.0000
  H   H405      1.0  0.16508  0.65450  0.67203  1.0000
  H   H406      1.0  0.24707  0.64284  0.63181  1.0000
  S   S137      1.0  0.29481  0.51417  0.47883  1.0000
  H   H407      1.0  0.04289  0.60056  0.96860  1.0000
  S   S138      1.0  0.01990  0.48821  0.76194  1.0000
  C   C411      1.0  0.29964  0.52506  0.68654  1.0000
  H   H408      1.0  0.98312  0.52307  0.84280  1.0000
  H   H409      1.0  0.99940  0.53442  0.67911  1.0000
  H   H410      1.0  0.45481  0.57716  0.95937  1.0000
  C   C412      1.0  0.03955  0.71494  0.86066  1.0000
  C   C413      1.0  0.05784  0.49574  0.91391  1.0000
  C   C414      1.0  0.36070  0.59787  0.51450  1.0000
  H   H411      1.0  0.42736  0.65425  0.96908  1.0000
  C   C415      1.0  0.00510  0.55221  0.93111  1.0000
  N   N35       1.0  0.38586  0.57084  0.53926  1.0000
  S   S139      1.0  0.38899  0.49750  0.52713  1.0000
  C   C416      1.0  0.98566  0.60092  0.69185  1.0000
  C   C417      1.0  0.20436  0.51782  0.49520  1.0000
  C   C418      1.0  0.00451  0.71438  0.94663  1.0000
  C   C419      1.0  0.09581  0.48218  0.53983  1.0000
  Fe  Fe74      1.0  0.98626  0.48600  0.63224  1.0000
  S   S140      1.0  0.13160  0.48068  0.95475  1.0000
  H   H412      1.0  0.22561  0.60791  0.64920  1.0000
  C   C420      1.0  0.18170  0.60813  0.67181  1.0000
  H   H413      1.0  0.00183  0.51844  0.90151  1.0000
  S   S141      1.0  0.01214  0.51464  0.62737  1.0000
  H   H414      1.0  0.18585  0.68991  0.65474  1.0000
  C   C421      1.0  0.98399  0.71630  0.74305  1.0000
  C   C422      1.0  0.06226  0.51192  0.93011  1.0000
  C   C423      1.0  0.00624  0.48347  0.73599  1.0000
  H   H415      1.0  0.07917  0.51020  0.93837  1.0000
  H   H416      1.0  0.19416  0.59510  0.68183  1.0000
  C   C424      1.0  0.27917  0.49430  0.75750  1.0000
  C   C425      1.0  0.34535  0.60296  0.53483  1.0000
  H   H417      1.0  0.41327  0.54597  0.52444  1.0000
  H   H418      1.0  0.07137  0.48149  0.90932  1.0000
  H   H419      1.0  0.39294  0.57799  0.50119  1.0000
  N   N36       1.0  0.02321  0.53249  0.92555  1.0000
  H   H420      1.0  0.20643  0.71583  0.69578  1.0000
  C   C426      1.0  0.01875  0.51669  0.90964  1.0000
  H   H421      1.0  0.15221  0.53321  0.94262  1.0000
  S   S142      1.0  0.36217  0.48990  0.47895  1.0000
  C   C427      1.0  0.37129  0.57626  0.55936  1.0000
  H   H422      1.0  0.23441  0.49479  0.70878  1.0000
  H   H423      1.0  0.37517  0.56771  0.57697  1.0000
  H   H424      1.0  0.21682  0.51230  0.93808  1.0000
  N   N37       1.0  0.98148  0.55896  0.70314  1.0000
  C   C428      1.0  0.17152  0.53053  0.93607  1.0000
  C   C429      1.0  0.00802  0.48479  0.69222  1.0000
  C   C430      1.0  0.35077  0.59228  0.55746  1.0000
  C   C431      1.0  0.40713  0.55382  0.54175  1.0000
  H   H425      1.0  0.29207  0.49418  0.77068  1.0000
  S   S143      1.0  0.33908  0.48778  0.93008  1.0000
  H   H426      1.0  0.17535  0.54417  0.92081  1.0000
  H   H427      1.0  0.16998  0.49154  0.53579  1.0000
  H   H428      1.0  0.35669  0.60598  0.49677  1.0000
  S   S144      1.0  0.00679  0.68982  0.92861  1.0000
  C   C432      1.0  0.99967  0.59508  0.67093  1.0000
  C   C433      1.0  0.04470  0.53041  0.93559  1.0000
  C   C434      1.0  0.03597  0.49805  0.90359  1.0000
  C   C435      1.0  0.16193  0.52183  0.49463  1.0000
  C   C436      1.0  0.00474  0.57101  0.66640  1.0000
  H   H429      1.0  0.04839  0.54308  0.94791  1.0000
  C   C437      1.0  0.28517  0.48200  0.67480  1.0000
  H   H430      1.0  0.02979  0.70526  0.80937  1.0000
  H   H431      1.0  0.02422  0.70541  0.86831  1.0000
  H   H432      1.0  0.98098  0.61960  0.69521  1.0000
  C   C438      1.0  0.22542  0.52380  0.97153  1.0000
  C   C439      1.0  0.01807  0.48924  0.71325  1.0000
  N   N38       1.0  0.30140  0.48188  0.69162  1.0000
  H   H433      1.0  0.22063  0.50837  0.50159  1.0000
  H   H434      1.0  0.98712  0.54535  0.93538  1.0000
  H   H435      1.0  0.46740  0.50422  0.95972  1.0000
  H   H436      1.0  0.98758  0.56578  0.84842  1.0000
  Fe  Fe75      1.0  0.28583  0.72374  0.85717  1.0000
  C   C440      1.0  0.47147  0.72187  0.95873  1.0000
  C   C441      1.0  0.27281  0.49391  0.47783  1.0000
  C   C442      1.0  0.17884  0.54536  0.97445  1.0000
  H   H437      1.0  0.01782  0.48818  0.67483  1.0000
  H   H438      1.0  0.45808  0.72164  0.94605  1.0000
  C   C443      1.0  0.30884  0.50302  0.69738  1.0000
  H   H439      1.0  0.32155  0.50300  0.71083  1.0000
  H   H440      1.0  0.03238  0.48549  0.89098  1.0000
  H   H441      1.0  0.30349  0.71619  0.94606  1.0000
  H   H442      1.0  0.42737  0.48954  0.96425  1.0000
  H   H443      1.0  0.00605  0.71466  0.83156  1.0000
  C   C444      1.0  0.02294  0.71973  0.82115  1.0000
  H   H444      1.0  0.98015  0.69891  0.97459  1.0000
  C   C445      1.0  0.16317  0.54227  0.47831  1.0000
  H   H445      1.0  0.33220  0.48925  0.83416  1.0000
  H   H446      1.0  0.25160  0.72700  0.81314  1.0000
  C   C446      1.0  0.31518  0.48244  0.84102  1.0000
  C   C447      1.0  0.20631  0.53817  0.47881  1.0000
  H   H447      1.0  0.19835  0.47865  0.52255  1.0000
  H   H448      1.0  0.16063  0.55385  0.97580  1.0000
  C   C448      1.0  0.34664  0.85686  0.22633  1.0000
  Fe  Fe76      1.0  0.38135  0.76138  0.24795  1.0000
  S   S145      1.0  0.39729  0.75295  0.21118  1.0000
  Fe  Fe77      1.0  0.40465  0.80980  0.24505  1.0000
  S   S146      1.0  0.42153  0.80448  0.20768  1.0000
  S   S147      1.0  0.40713  0.84740  0.25735  1.0000
  Fe  Fe78      1.0  0.38666  0.79149  0.19999  1.0000
  S   S148      1.0  0.37238  0.80192  0.16360  1.0000
  Fe  Fe79      1.0  0.43076  0.76646  0.22211  1.0000
  S   S149      1.0  0.99867  0.89239  0.01833  1.0000
  S   S150      1.0  0.36868  0.79965  0.23600  1.0000
  S   S151      1.0  0.41600  0.77205  0.26028  1.0000
  H   H449      1.0  0.44250  0.95040  0.02180  1.0000
  Fe  Fe80      1.0  0.47891  0.80667  0.98379  1.0000
  S   S152      1.0  0.46564  0.96245  0.32462  1.0000
  C   C449      1.0  0.43956  0.77431  0.15156  1.0000
  C   C450      1.0  0.09501  0.75949  0.05381  1.0000
  C   C451      1.0  0.24035  0.74465  0.98539  1.0000
  H   H450      1.0  0.45505  0.85289  0.22175  1.0000
  H   H451      1.0  0.38617  0.84807  0.17980  1.0000
  S   S153      1.0  0.21498  0.75714  0.12882  1.0000
  Fe  Fe81      1.0  0.25111  0.76975  0.06728  1.0000
  S   S154      1.0  0.23263  0.79936  0.08852  1.0000
  S   S155      1.0  0.27210  0.78039  0.03175  1.0000
  Fe  Fe82      1.0  0.24753  0.77811  0.12086  1.0000
  S   S156      1.0  0.26235  0.79013  0.15378  1.0000
  Fe  Fe83      1.0  0.20188  0.77575  0.09420  1.0000
  S   S157      1.0  0.16352  0.79308  0.09164  1.0000
  S   S158      1.0  0.26866  0.75070  0.09911  1.0000
  C   C452      1.0  0.30730  0.84676  0.21870  1.0000
  H   H452      1.0  0.03617  0.77422  0.07085  1.0000
  S   S159      1.0  0.03383  0.82531  0.01603  1.0000
  H   H453      1.0  0.23998  0.74482  0.02384  1.0000
  H   H454      1.0  0.44947  0.78269  0.16441  1.0000
  H   H455      1.0  0.42000  0.77677  0.15707  1.0000
  Fe  Fe84      1.0  0.06775  0.82999  0.99181  1.0000
  S   S160      1.0  0.10579  0.81300  0.99776  1.0000
  Fe  Fe85      1.0  0.01999  0.86183  0.99977  1.0000
  H   H456      1.0  0.44437  0.90704  0.01510  1.0000
  C   C453      1.0  0.37899  0.86038  0.19373  1.0000
  C   C454      1.0  0.17360  0.84092  0.02689  1.0000
  H   H457      1.0  0.39114  0.85723  0.20854  1.0000
  Fe  Fe86      1.0  0.01990  0.81128  0.98409  1.0000
  H   H458      1.0  0.28383  0.79488  0.98159  1.0000
  N   N39       1.0  0.35426  0.85571  0.20245  1.0000
  C   C455      1.0  0.14704  0.79731  0.06577  1.0000
  C   C456      1.0  0.12553  0.81241  0.06635  1.0000
  C   C457      1.0  0.11234  0.81706  0.04590  1.0000
  C   C458      1.0  0.12052  0.80653  0.02465  1.0000
  C   C459      1.0  0.14161  0.79081  0.02430  1.0000
  C   C460      1.0  0.15483  0.78624  0.04471  1.0000
  H   H459      1.0  0.11928  0.82094  0.08263  1.0000
  H   H460      1.0  0.09612  0.82912  0.04648  1.0000
  H   H461      1.0  0.14799  0.78238  0.00802  1.0000
  H   H462      1.0  0.17121  0.77439  0.04408  1.0000
  C   C461      1.0  0.45904  0.90203  0.07306  1.0000
  C   C462      1.0  0.26251  0.77096  0.00535  1.0000
  C   C463      1.0  0.24677  0.75291  0.00659  1.0000
  S   S161      1.0  0.44283  0.81478  0.00362  1.0000
  N   N40       1.0  0.33092  0.75746  0.98574  1.0000
  S   S162      1.0  0.47341  0.95907  0.18042  1.0000
  C   C464      1.0  0.34231  0.79640  0.16076  1.0000
  C   C465      1.0  0.33350  0.79899  0.13789  1.0000
  C   C466      1.0  0.30918  0.79626  0.13537  1.0000
  C   C467      1.0  0.29339  0.79161  0.15581  1.0000
  C   C468      1.0  0.30228  0.78880  0.17865  1.0000
  C   C469      1.0  0.32673  0.79074  0.18110  1.0000
  H   H463      1.0  0.34542  0.80337  0.12205  1.0000
  H   H464      1.0  0.30248  0.79851  0.11769  1.0000
  H   H465      1.0  0.29019  0.78507  0.19454  1.0000
  H   H466      1.0  0.33330  0.78861  0.19882  1.0000
  C   C470      1.0  0.42626  0.85803  0.27710  1.0000
  C   C471      1.0  0.44298  0.84270  0.28952  1.0000
  C   C472      1.0  0.45798  0.85208  0.30461  1.0000
  C   C473      1.0  0.45663  0.87690  0.30744  1.0000
  C   C474      1.0  0.44002  0.89225  0.29490  1.0000
  C   C475      1.0  0.42494  0.88285  0.27991  1.0000
  H   H467      1.0  0.44427  0.82359  0.28761  1.0000
  H   H468      1.0  0.46188  0.81420  0.06278  1.0000
  H   H469      1.0  0.43861  0.91134  0.29694  1.0000
  H   H470      1.0  0.41208  0.89493  0.27046  1.0000
  H   H471      1.0  0.31740  0.85232  0.25392  1.0000
  C   C476      1.0  0.45396  0.89478  0.05085  1.0000
  C   C477      1.0  0.06906  0.75699  0.99499  1.0000
  C   C478      1.0  0.45846  0.92660  0.07674  1.0000
  C   C479      1.0  0.45229  0.94419  0.05837  1.0000
  C   C480      1.0  0.44734  0.93694  0.03610  1.0000
  C   C481      1.0  0.44843  0.91236  0.03224  1.0000
  C   C482      1.0  0.20951  0.81372  0.02530  1.0000
  S   S163      1.0  0.99938  0.77818  0.99324  1.0000
  H   H472      1.0  0.41423  0.81014  0.12749  1.0000
  H   H473      1.0  0.07627  0.76900  0.08739  1.0000
  H   H474      1.0  0.35894  0.86074  0.23906  1.0000
  C   C483      1.0  0.05055  0.76571  0.03521  1.0000
  C   C484      1.0  0.32313  0.85215  0.23485  1.0000
  H   H475      1.0  0.37956  0.87929  0.18587  1.0000
  H   H476      1.0  0.30294  0.84201  0.18157  1.0000
  C   C485      1.0  0.31502  0.84641  0.19429  1.0000
  H   H477      1.0  0.32549  0.78170  0.01318  1.0000
  H   H478      1.0  0.47068  0.83997  0.31421  1.0000
  H   H479      1.0  0.34471  0.85010  0.16747  1.0000
  C   C486      1.0  0.98877  0.73391  0.98251  1.0000
  C   C487      1.0  0.09275  0.75656  0.02958  1.0000
  C   C488      1.0  0.05219  0.76909  0.05945  1.0000
  C   C489      1.0  0.33870  0.85098  0.18642  1.0000
  C   C490      1.0  0.45724  0.80602  0.08082  1.0000
  C   C491      1.0  0.19356  0.82971  0.03780  1.0000
  C   C492      1.0  0.43055  0.80355  0.11728  1.0000
  H   H480      1.0  0.46490  0.94312  0.23049  1.0000
  S   S164      1.0  0.35271  0.73920  0.26837  1.0000
  H   H481      1.0  0.03304  0.76810  0.02816  1.0000
  N   N41       1.0  0.18492  0.81921  0.99195  1.0000
  H   H482      1.0  0.47244  0.77030  0.25170  1.0000
  C   C493      1.0  0.47026  0.85395  0.23212  1.0000
  H   H483      1.0  0.05100  0.76347  0.98919  1.0000
  C   C494      1.0  0.27162  0.78089  0.98270  1.0000
  H   H484      1.0  0.30525  0.74183  0.15141  1.0000
  S   S165      1.0  0.21974  0.74707  0.07152  1.0000
  H   H485      1.0  0.19639  0.83300  0.05612  1.0000
  C   C495      1.0  0.43632  0.81435  0.09408  1.0000
  H   H486      1.0  0.16080  0.85294  0.03669  1.0000
  C   C496      1.0  0.20497  0.80875  0.00219  1.0000
  H   H487      1.0  0.34782  0.78950  0.98947  1.0000
  C   C497      1.0  0.47472  0.87589  0.24011  1.0000
  H   H488      1.0  0.28914  0.84268  0.22508  1.0000
  C   C498      1.0  0.46609  0.77705  0.11424  1.0000
  H   H489      1.0  0.35445  0.76441  0.01130  1.0000
  H   H490      1.0  0.15361  0.84374  0.99567  1.0000
  N   N42       1.0  0.44528  0.78496  0.12694  1.0000
  H   H491      1.0  0.44472  0.75462  0.15318  1.0000
  H   H492      1.0  0.22509  0.80495  0.03362  1.0000
  C   C499      1.0  0.07461  0.76608  0.06873  1.0000
  H   H493      1.0  0.42482  0.82925  0.08637  1.0000
  S   S166      1.0  0.45042  0.97528  0.06257  1.0000
  H   H494      1.0  0.30880  0.74175  0.01508  1.0000
  Fe  Fe87      1.0  0.47790  0.97272  0.35949  1.0000
  C   C500      1.0  0.31486  0.74178  0.99606  1.0000
  S   S167      1.0  0.46620  0.74848  0.20788  1.0000
  H   H495      1.0  0.10878  0.75218  0.01788  1.0000
  C   C501      1.0  0.47766  0.95661  0.22898  1.0000
  Fe  Fe88      1.0  0.45672  0.84981  0.01027  1.0000
  S   S168      1.0  0.45386  0.86368  0.04740  1.0000
  H   H496      1.0  0.21739  0.79618  0.99267  1.0000
  Fe  Fe89      1.0  0.23558  0.73059  0.10563  1.0000
  H   H497      1.0  0.11257  0.75736  0.06080  1.0000
  S   S169      1.0  0.47633  0.88763  0.32656  1.0000
  C   C502      1.0  0.34022  0.77403  0.00065  1.0000
  C   C503      1.0  0.47228  0.78731  0.09093  1.0000
  H   H498      1.0  0.08231  0.76765  0.98356  1.0000
  H   H499      1.0  0.46299  0.89183  0.23544  1.0000
  H   H500      1.0  0.26296  0.73193  0.15990  1.0000
  N   N43       1.0  0.07076  0.75998  0.02051  1.0000
  H   H501      1.0  0.46216  0.93190  0.09402  1.0000
  H   H502      1.0  0.07252  0.73772  0.99166  1.0000
  H   H503      1.0  0.46330  0.88859  0.08757  1.0000
  C   C504      1.0  0.16962  0.83557  0.00372  1.0000
  S   S170      1.0  0.05548  0.86820  0.97867  1.0000
  C   C505      1.0  0.29996  0.73080  0.16771  1.0000
  H   H504      1.0  0.47871  0.95688  0.26753  1.0000
  H   H505      1.0  0.47805  0.76273  0.12215  1.0000
  H   H506      1.0  0.22835  0.73046  0.98652  1.0000
  S   S171      1.0  0.44354  0.86895  0.97645  1.0000
  N   N44       1.0  0.41821  0.88125  0.91760  1.0000
  Fe  Fe90      1.0  0.07795  0.75663  0.75043  1.0000
  S   S172      1.0  0.09079  0.77140  0.71292  1.0000
  H   H507      1.0  0.99338  0.94865  0.77632  1.0000
  Fe  Fe91      1.0  0.11825  0.77695  0.77404  1.0000
  S   S173      1.0  0.13339  0.79379  0.73867  1.0000
  S   S174      1.0  0.13398  0.77467  0.81032  1.0000
  Fe  Fe92      1.0  0.09500  0.80510  0.73070  1.0000
  S   S175      1.0  0.08618  0.84434  0.71643  1.0000
  Fe  Fe93      1.0  0.12789  0.75884  0.72420  1.0000
  S   S176      1.0  0.08016  0.79088  0.76771  1.0000
  C   C506      1.0  0.08700  0.83774  0.63493  1.0000
  H   H508      1.0  0.38849  0.90671  0.92444  1.0000
  S   S177      1.0  0.00301  0.94030  0.58590  1.0000
  H   H509      1.0  0.08447  0.87113  0.87798  1.0000
  S   S178      1.0  0.00359  0.84734  0.96993  1.0000
  S   S179      1.0  0.02667  0.95808  0.63258  1.0000
  H   H510      1.0  0.39440  0.88425  0.94910  1.0000
  Fe  Fe94      1.0  0.00625  0.92733  0.62511  1.0000
  S   S180      1.0  0.01543  0.88787  0.63765  1.0000
  H   H511      1.0  0.47626  0.87124  0.89585  1.0000
  S   S181      1.0  0.16019  0.74185  0.70257  1.0000
  C   C507      1.0  0.44703  0.85206  0.88706  1.0000
  S   S182      1.0  0.39419  0.83171  0.95681  1.0000
  H   H512      1.0  0.11034  0.82292  0.66220  1.0000
  H   H513      1.0  0.06402  0.85785  0.61022  1.0000
  Fe  Fe95      1.0  0.26333  0.77503  0.85096  1.0000
  C   C508      1.0  0.07779  0.85889  0.62239  1.0000
  S   S183      1.0  0.24146  0.79683  0.82290  1.0000
  Fe  Fe96      1.0  0.31075  0.76471  0.87563  1.0000
  H   H514      1.0  0.16041  0.81287  0.96681  1.0000
  S   S184      1.0  0.34917  0.77235  0.88199  1.0000
  C   C509      1.0  0.10384  0.83901  0.65151  1.0000
  H   H515      1.0  0.05832  0.90009  0.60538  1.0000
  H   H516      1.0  0.01850  0.92465  0.96175  1.0000
  S   S185      1.0  0.29986  0.75759  0.83900  1.0000
  S   S186      1.0  0.27545  0.78564  0.88573  1.0000
  S   S187      1.0  0.03890  0.86946  0.91128  1.0000
  H   H517      1.0  0.41437  0.83606  0.88249  1.0000
  C   C510      1.0  0.26550  0.77232  0.96143  1.0000
  H   H518      1.0  0.06124  0.87002  0.85872  1.0000
  H   H519      1.0  0.00389  0.96577  0.97264  1.0000
  C   C511      1.0  0.38205  0.81463  0.93623  1.0000
  C   C512      1.0  0.39638  0.79852  0.92224  1.0000
  C   C513      1.0  0.38598  0.78589  0.90573  1.0000
  C   C514      1.0  0.36112  0.78897  0.90309  1.0000
  C   C515      1.0  0.34677  0.80505  0.91714  1.0000
  C   C516      1.0  0.35721  0.81782  0.93353  1.0000
  H   H520      1.0  0.41549  0.79583  0.92404  1.0000
  H   H521      1.0  0.39727  0.77352  0.89496  1.0000
  H   H522      1.0  0.32766  0.80776  0.91528  1.0000
  H   H523      1.0  0.34591  0.83031  0.94416  1.0000
  C   C517      1.0  0.07972  0.87557  0.85909  1.0000
  H   H524      1.0  0.33458  0.74320  0.92798  1.0000
  C   C518      1.0  0.16400  0.78080  0.81322  1.0000
  C   C519      1.0  0.17405  0.77391  0.83518  1.0000
  C   C520      1.0  0.19785  0.77831  0.83820  1.0000
  C   C521      1.0  0.21177  0.79005  0.81940  1.0000
  C   C522      1.0  0.20172  0.79693  0.79741  1.0000
  C   C523      1.0  0.17804  0.79215  0.79424  1.0000
  H   H525      1.0  0.45835  0.84044  0.87544  1.0000
  H   H526      1.0  0.20519  0.77322  0.85533  1.0000
  H   H527      1.0  0.21229  0.80610  0.78279  1.0000
  H   H528      1.0  0.17055  0.79758  0.77724  1.0000
  C   C524      1.0  0.06420  0.85628  0.69668  1.0000
  C   C525      1.0  0.06170  0.88127  0.69051  1.0000
  C   C526      1.0  0.04615  0.89138  0.67313  1.0000
  C   C527      1.0  0.03295  0.87653  0.66171  1.0000
  C   C528      1.0  0.03481  0.85165  0.66848  1.0000
  C   C529      1.0  0.05031  0.84155  0.68590  1.0000
  H   H529      1.0  0.07234  0.89281  0.69880  1.0000
  H   H530      1.0  0.04485  0.91056  0.66819  1.0000
  H   H531      1.0  0.02461  0.84001  0.65980  1.0000
  H   H532      1.0  0.05199  0.82231  0.69052  1.0000
  C   C530      1.0  0.45708  0.86932  0.89845  1.0000
  H   H533      1.0  0.41316  0.90864  0.94239  1.0000
  H   H534      1.0  0.08847  0.90905  0.59844  1.0000
  C   C531      1.0  0.44232  0.88385  0.91377  1.0000
  C   C532      1.0  0.04528  0.95037  0.89409  1.0000
  C   C533      1.0  0.03283  0.93753  0.87978  1.0000
  C   C534      1.0  0.03035  0.91293  0.88569  1.0000
  C   C535      1.0  0.04012  0.90088  0.90611  1.0000
  C   C536      1.0  0.05219  0.91372  0.92078  1.0000
  C   C537      1.0  0.05483  0.93837  0.91473  1.0000
  H   H535      1.0  0.02591  0.94621  0.86359  1.0000
  H   H536      1.0  0.02115  0.90309  0.87416  1.0000
  H   H537      1.0  0.06020  0.90454  0.93632  1.0000
  H   H538      1.0  0.06473  0.94805  0.92579  1.0000
  C   C538      1.0  0.02205  0.73288  0.74713  1.0000
  H   H539      1.0  0.06091  0.94318  0.80834  1.0000
  C   C539      1.0  0.02636  0.97454  0.72491  1.0000
  C   C540      1.0  0.01779  0.74965  0.72752  1.0000
  Fe  Fe97      1.0  0.26387  0.74964  0.90123  1.0000
  N   N45       1.0  0.08041  0.90131  0.85163  1.0000
  C   C541      1.0  0.06972  0.91087  0.83143  1.0000
  H   H540      1.0  0.06065  0.89954  0.82118  1.0000
  C   C542      1.0  0.06991  0.93544  0.82402  1.0000
  C   C543      1.0  0.01509  0.97760  0.70325  1.0000
  C   C544      1.0  0.09270  0.94012  0.85750  1.0000
  C   C545      1.0  0.98442  0.91737  0.95056  1.0000
  C   C546      1.0  0.47558  0.74374  0.96742  1.0000
  H   H541      1.0  0.01846  0.73635  0.80932  1.0000
  S   S188      1.0  0.24231  0.74209  0.93688  1.0000
  C   C547      1.0  0.09201  0.91554  0.86451  1.0000
  C   C548      1.0  0.08140  0.95012  0.83726  1.0000
  H   H542      1.0  0.10015  0.90811  0.88073  1.0000
  H   H543      1.0  0.09130  0.73292  0.87746  1.0000
  C   C549      1.0  0.00129  0.91033  0.71862  1.0000
  H   H544      1.0  0.18710  0.82696  0.95400  1.0000
  H   H545      1.0  0.99080  0.89950  0.94550  1.0000
  C   C550      1.0  0.33863  0.75740  0.96180  1.0000
  H   H546      1.0  0.08046  0.82060  0.63251  1.0000
  H   H547      1.0  0.07068  0.91719  0.62566  1.0000
  N   N46       1.0  0.08516  0.88069  0.62628  1.0000
  C   C551      1.0  0.10206  0.88203  0.64212  1.0000
  C   C552      1.0  0.11151  0.86125  0.65510  1.0000
  C   C553      1.0  0.07527  0.90281  0.61323  1.0000
  H   H548      1.0  0.10775  0.89930  0.64538  1.0000
  C   C554      1.0  0.32898  0.74254  0.94715  1.0000
  H   H549      1.0  0.38913  0.86226  0.90961  1.0000
  Fe  Fe98      1.0  0.43248  0.83309  0.96792  1.0000
  H   H550      1.0  0.02573  0.76970  0.94674  1.0000
  H   H551      1.0  0.20483  0.74636  0.73065  1.0000
  S   S189      1.0  0.24912  0.74083  0.86751  1.0000
  H   H552      1.0  0.20896  0.72852  0.81850  1.0000
  C   C555      1.0  0.40818  0.86459  0.90624  1.0000
  C   C556      1.0  0.99667  0.74975  0.71577  1.0000
  H   H553      1.0  0.24352  0.74626  0.74888  1.0000
  Fe  Fe99      1.0  0.03937  0.85214  0.94947  1.0000
  C   C557      1.0  0.00159  0.75400  0.97481  1.0000
  H   H554      1.0  0.18866  0.79529  0.96394  1.0000
  C   C558      1.0  0.42241  0.84966  0.89093  1.0000
  S   S190      1.0  0.05412  0.81437  0.96047  1.0000
  C   C559      1.0  0.01592  0.75425  0.95294  1.0000
  C   C560      1.0  0.20832  0.73179  0.79912  1.0000
  H   H555      1.0  0.08108  0.96932  0.83224  1.0000
  C   C561      1.0  0.99179  0.95457  0.96581  1.0000
  C   C562      1.0  0.20580  0.74203  0.74989  1.0000
  H   H556      1.0  0.27293  0.77970  0.94403  1.0000
  H   H557      1.0  0.26657  0.72904  0.78342  1.0000
  H   H558      1.0  0.16817  0.73695  0.75662  1.0000
  H   H559      1.0  0.00840  0.91321  0.75523  1.0000
  H   H560      1.0  0.12398  0.86242  0.66857  1.0000
  H   H561      1.0  0.99349  0.76278  0.70061  1.0000
  C   C563      1.0  0.24995  0.75403  0.96279  1.0000
  C   C564      1.0  0.01733  0.73451  0.93891  1.0000
  S   S191      1.0  0.46815  0.82315  0.94754  1.0000
  S   S192      1.0  0.11469  0.74149  0.76000  1.0000
  H   H562      1.0  0.03072  0.76256  0.72146  1.0000
  C   C565      1.0  0.40285  0.89603  0.93415  1.0000
  H   H563      1.0  0.10095  0.95160  0.86833  1.0000
  H   H564      1.0  0.09240  0.86484  0.84699  1.0000
  C   C566      1.0  0.18513  0.73673  0.76450  1.0000
  H   H565      1.0  0.45044  0.89693  0.92283  1.0000
  H   H566      1.0  0.46543  0.76024  0.96142  1.0000
  S   S193      1.0  0.29936  0.72906  0.89277  1.0000
  C   C567      1.0  0.22753  0.74194  0.76030  1.0000
  C   C568      1.0  0.00005  0.93156  0.95953  1.0000
  H   H567      1.0  0.16336  0.76518  0.84999  1.0000
  C   C569      1.0  0.99752  0.92042  0.74076  1.0000
  C   C570      1.0  0.18006  0.81335  0.96797  1.0000
  Fe  Fe100     1.0  0.01994  0.97291  0.59453  1.0000
  H   H568      1.0  0.06263  0.74194  0.80842  1.0000
  H   H569      1.0  0.01482  0.89543  0.71606  1.0000
  H   H570      1.0  0.35208  0.76912  0.95382  1.0000
  H   H571      1.0  0.99052  0.91219  0.68241  1.0000
  H   H572      1.0  0.04173  0.96153  0.72668  1.0000
  N   N47       1.0  0.22862  0.73659  0.78459  1.0000
  C   C571      1.0  0.97971  0.73309  0.72345  1.0000
  H   H573      1.0  0.02172  0.96694  0.68851  1.0000
  C   C572      1.0  0.18632  0.73158  0.78927  1.0000
  Fe  Fe101     1.0  0.98997  0.97597  0.64252  1.0000
  C   C573      1.0  0.25149  0.73721  0.79508  1.0000
  C   C574      1.0  0.98757  0.91964  0.69979  1.0000
  H   H574      1.0  0.25482  0.75611  0.79706  1.0000
  H   H575      1.0  0.02825  0.73495  0.92194  1.0000
  C   C575      1.0  0.07729  0.73027  0.86610  1.0000
  H   H576      1.0  0.98335  0.96677  0.51807  1.0000
  C   C576      1.0  0.06095  0.73535  0.82736  1.0000
  S   S194      1.0  0.04810  0.73236  0.76275  1.0000
  C   C577      1.0  0.07912  0.73894  0.84181  1.0000
  H   H577      1.0  0.09455  0.74832  0.83415  1.0000
  N   N48       1.0  0.98054  0.93926  0.74404  1.0000
  H   H578      1.0  0.17012  0.72823  0.80084  1.0000
  H   H579      1.0  0.80687  0.02323  0.04518  1.0000
  S   S195      1.0  0.88751  0.05077  0.42562  1.0000
  Fe  Fe102     1.0  0.77963  0.06467  0.23008  1.0000
  S   S196      1.0  0.81059  0.08196  0.20890  1.0000
  S   S197      1.0  0.78527  0.03025  0.25412  1.0000
  Fe  Fe103     1.0  0.74324  0.10620  0.21607  1.0000
  S   S198      1.0  0.77113  0.12628  0.19353  1.0000
  S   S199      1.0  0.70424  0.11945  0.22373  1.0000
  Fe  Fe104     1.0  0.78493  0.09036  0.17993  1.0000
  S   S200      1.0  0.79305  0.08919  0.13914  1.0000
  Fe  Fe105     1.0  0.79391  0.11595  0.22454  1.0000
  S   S201      1.0  0.81349  0.14482  0.23843  1.0000
  S   S202      1.0  0.75487  0.07101  0.20038  1.0000
  S   S203      1.0  0.76508  0.09792  0.24776  1.0000
  N   N49       1.0  0.52631  0.18015  0.34484  1.0000
  Fe  Fe106     1.0  0.85234  0.99986  0.03914  1.0000
  H   H580      1.0  0.77508  0.00372  0.41814  1.0000
  S   S204      1.0  0.84191  0.00255  0.07948  1.0000
  C   C578      1.0  0.76216  0.19874  0.26962  1.0000
  H   H581      1.0  0.50020  0.06218  0.20401  1.0000
  S   S205      1.0  0.81221  0.21668  0.39408  1.0000
  H   H582      1.0  0.49791  0.14879  0.40394  1.0000
  S   S206      1.0  0.84785  0.02711  0.00727  1.0000
  N   N50       1.0  0.74615  0.19573  0.28945  1.0000
  C   C579      1.0  0.50797  0.14623  0.36606  1.0000
  Fe  Fe107     1.0  0.51737  0.99725  0.10404  1.0000
  C   C580      1.0  0.53832  0.01999  0.46722  1.0000
  H   H583      1.0  0.65647  0.13635  0.15697  1.0000
  C   C581      1.0  0.78866  0.02899  0.03941  1.0000
  C   C582      1.0  0.75309  0.01068  0.03017  1.0000
  C   C583      1.0  0.55854  0.00637  0.45770  1.0000
  N   N51       1.0  0.52349  0.07701  0.07000  1.0000
  H   H584      1.0  0.94728  0.03817  0.47139  1.0000
  H   H585      1.0  0.73501  0.17224  0.12880  1.0000
  C   C584      1.0  0.48332  0.22000  0.24606  1.0000
  C   C585      1.0  0.80881  0.15195  0.26880  1.0000
  C   C586      1.0  0.81749  0.17296  0.27527  1.0000
  C   C587      1.0  0.81382  0.17934  0.29920  1.0000
  C   C588      1.0  0.80193  0.16442  0.31698  1.0000
  C   C589      1.0  0.79330  0.14340  0.31054  1.0000
  C   C590      1.0  0.79652  0.13729  0.28654  1.0000
  H   H586      1.0  0.82710  0.18437  0.26170  1.0000
  H   H587      1.0  0.82083  0.19542  0.30399  1.0000
  H   H588      1.0  0.78417  0.13169  0.32421  1.0000
  H   H589      1.0  0.78985  0.12103  0.28190  1.0000
  C   C591      1.0  0.69402  0.15016  0.21951  1.0000
  C   C592      1.0  0.70731  0.16656  0.20467  1.0000
  C   C593      1.0  0.69707  0.19006  0.19889  1.0000
  C   C594      1.0  0.67377  0.19744  0.20837  1.0000
  C   C595      1.0  0.66094  0.18131  0.22401  1.0000
  C   C596      1.0  0.67097  0.15771  0.22940  1.0000
  H   H590      1.0  0.72501  0.16089  0.19678  1.0000
  C   C597      1.0  0.53082  0.06489  0.09081  1.0000
  H   H591      1.0  0.64287  0.18667  0.23114  1.0000
  H   H592      1.0  0.66053  0.14508  0.24078  1.0000
  C   C598      1.0  0.80692  0.06489  0.12299  1.0000
  C   C599      1.0  0.81238  0.06875  0.09789  1.0000
  C   C600      1.0  0.82322  0.05003  0.08431  1.0000
  C   C601      1.0  0.82855  0.02705  0.09566  1.0000
  C   C602      1.0  0.82297  0.02315  0.12074  1.0000
  C   C603      1.0  0.81228  0.04193  0.13435  1.0000
  H   H593      1.0  0.80845  0.08646  0.08893  1.0000
  H   H594      1.0  0.82771  0.05351  0.06514  1.0000
  H   H595      1.0  0.82698  0.00548  0.12972  1.0000
  H   H596      1.0  0.80811  0.03863  0.15358  1.0000
  H   H597      1.0  0.50128  0.21238  0.27873  1.0000
  C   C604      1.0  0.77382  0.00312  0.21907  1.0000
  C   C605      1.0  0.77803  0.00370  0.24323  1.0000
  H   H598      1.0  0.52006  0.14870  0.32840  1.0000
  H   H599      1.0  0.52184  0.00638  0.22363  1.0000
  Fe  Fe108     1.0  0.88292  0.01025  0.99069  1.0000
  H   H600      1.0  0.77361  0.01945  0.20711  1.0000
  H   H601      1.0  0.49092  0.05851  0.17493  1.0000
  C   C606      1.0  0.91842  0.05484  0.42593  1.0000
  C   C607      1.0  0.93631  0.03697  0.41940  1.0000
  C   C608      1.0  0.76633  0.98929  0.41188  1.0000
  C   C609      1.0  0.85150  0.07890  0.37529  1.0000
  C   C610      1.0  0.94966  0.08103  0.43151  1.0000
  C   C611      1.0  0.92523  0.07688  0.43193  1.0000
  H   H602      1.0  0.93132  0.02004  0.41446  1.0000
  H   H603      1.0  0.95463  0.09811  0.43608  1.0000
  C   C612      1.0  0.56918  0.05311  0.07016  1.0000
  C   C613      1.0  0.58185  0.00921  0.01091  1.0000
  C   C614      1.0  0.55822  0.01642  0.01949  1.0000
  C   C615      1.0  0.54978  0.01008  0.04354  1.0000
  C   C616      1.0  0.56517  0.99712  0.05932  1.0000
  S   S207      1.0  0.50588  0.12267  0.45777  1.0000
  C   C617      1.0  0.59692  0.99546  0.02645  1.0000
  H   H604      1.0  0.54649  0.02708  0.00753  1.0000
  H   H605      1.0  0.53172  0.01609  0.05007  1.0000
  H   H606      1.0  0.85517  0.07264  0.39363  1.0000
  C   C618      1.0  0.72799  0.00588  0.43086  1.0000
  S   S208      1.0  0.51280  0.98545  0.34291  1.0000
  C   C619      1.0  0.83703  0.98413  0.24502  1.0000
  H   H607      1.0  0.75916  0.13260  0.13177  1.0000
  H   H608      1.0  0.55760  0.18850  0.32225  1.0000
  H   H609      1.0  0.53189  0.18511  0.30622  1.0000
  H   H610      1.0  0.53239  0.08602  0.03244  1.0000
  H   H611      1.0  0.77560  0.21154  0.26896  1.0000
  H   H612      1.0  0.84217  0.11558  0.38398  1.0000
  H   H613      1.0  0.49248  0.07102  0.36783  1.0000
  C   C620      1.0  0.49923  0.04318  0.46298  1.0000
  N   N52       1.0  0.69354  0.13862  0.16017  1.0000
  C   C621      1.0  0.70333  0.15829  0.14812  1.0000
  C   C622      1.0  0.70670  0.11680  0.16186  1.0000
  C   C623      1.0  0.72709  0.15651  0.13784  1.0000
  C   C624      1.0  0.73035  0.11430  0.15144  1.0000
  C   C625      1.0  0.74063  0.13432  0.13949  1.0000
  C   C626      1.0  0.66845  0.14066  0.17036  1.0000
  H   H614      1.0  0.69908  0.10127  0.17173  1.0000
  H   H615      1.0  0.91153  0.09085  0.43688  1.0000
  H   H616      1.0  0.74085  0.09703  0.15285  1.0000
  H   H617      1.0  0.73844  0.01180  0.44485  1.0000
  H   H618      1.0  0.66593  0.12826  0.18699  1.0000
  H   H619      1.0  0.66293  0.15911  0.17575  1.0000
  C   C627      1.0  0.72974  0.17898  0.29058  1.0000
  H   H620      1.0  0.79104  0.03622  0.02018  1.0000
  S   S209      1.0  0.89240  0.98047  0.41560  1.0000
  C   C628      1.0  0.51436  0.18025  0.38728  1.0000
  C   C629      1.0  0.51838  0.15778  0.34484  1.0000
  S   S210      1.0  0.55651  0.99206  0.09041  1.0000
  H   H621      1.0  0.78053  0.04347  0.05060  1.0000
  H   H622      1.0  0.57312  0.06485  0.03229  1.0000
  H   H623      1.0  0.72911  0.21609  0.31754  1.0000
  S   S211      1.0  0.48946  0.02020  0.08446  1.0000
  H   H624      1.0  0.85117  0.00873  0.19731  1.0000
  S   S212      1.0  0.50889  0.99474  0.27366  1.0000
  H   H625      1.0  0.74874  0.02645  0.01805  1.0000
  Fe  Fe109     1.0  0.83213  0.98594  0.45590  1.0000
  N   N53       1.0  0.74224  0.98750  0.41738  1.0000
  H   H626      1.0  0.49729  0.06082  0.45210  1.0000
  H   H627      1.0  0.54176  0.00489  0.40105  1.0000
  C   C630      1.0  0.50957  0.99243  0.22516  1.0000
  N   N54       1.0  0.52015  0.02843  0.45313  1.0000
  H   H628      1.0  0.82132  0.00404  0.19000  1.0000
  N   N55       1.0  0.85416  0.06333  0.35761  1.0000
  C   C631      1.0  0.50313  0.21907  0.25993  1.0000
  Fe  Fe110     1.0  0.87380  0.01362  0.43055  1.0000
  S   S213      1.0  0.86633  0.99647  0.46791  1.0000
  H   H629      1.0  0.78174  0.98277  0.27727  1.0000
  H   H630      1.0  0.82477  0.02100  0.21465  1.0000
  H   H631      1.0  0.61523  0.99003  0.02010  1.0000
  H   H632      1.0  0.69293  0.17563  0.14692  1.0000
  H   H633      1.0  0.90205  0.19782  0.40980  1.0000
  H   H634      1.0  0.50154  0.12853  0.36610  1.0000
  C   C632      1.0  0.74739  0.20946  0.31027  1.0000
  H   H635      1.0  0.49654  0.10113  0.05342  1.0000
  H   H636      1.0  0.71155  0.99873  0.44057  1.0000
  S   S214      1.0  0.50513  0.01183  0.13961  1.0000
  S   S215      1.0  0.83754  0.00673  0.41990  1.0000
  C   C633      1.0  0.58867  0.98968  0.05064  1.0000
  S   S216      1.0  0.51221  0.18944  0.45493  1.0000
  S   S217      1.0  0.88931  0.98606  0.02434  1.0000
  S   S218      1.0  0.79921  0.17022  0.34772  1.0000
  C   C634      1.0  0.53840  0.07711  0.04915  1.0000
  C   C635      1.0  0.77843  0.98239  0.25856  1.0000
  C   C636      1.0  0.76195  0.18479  0.25019  1.0000
  H   H637      1.0  0.48486  0.02962  0.36026  1.0000
  H   H638      1.0  0.50842  0.99242  0.18688  1.0000
  N   N56       1.0  0.77344  0.00888  0.04214  1.0000
  Fe  Fe111     1.0  0.48852  0.15897  0.46598  1.0000
  H   H639      1.0  0.83841  0.00129  0.25205  1.0000
  C   C637      1.0  0.50115  0.98254  0.24798  1.0000
  S   S219      1.0  0.59243  0.01871  0.98118  1.0000
  C   C638      1.0  0.96073  0.04131  0.41848  1.0000
  H   H640      1.0  0.58663  0.04294  0.07003  1.0000
  H   H641      1.0  0.94904  0.99792  0.45570  1.0000
  H   H642      1.0  0.85017  0.05874  0.32078  1.0000
  S   S220      1.0  0.97901  0.18370  0.45148  1.0000
  H   H643      1.0  0.83700  0.10173  0.31051  1.0000
  C   C639      1.0  0.96753  0.06334  0.42454  1.0000
  H   H644      1.0  0.48574  0.07541  0.07170  1.0000
  C   C640      1.0  0.55999  0.00128  0.43365  1.0000
  C   C641      1.0  0.54110  0.00936  0.41959  1.0000
  C   C642      1.0  0.83915  0.11148  0.34652  1.0000
  H   H645      1.0  0.70708  0.20248  0.18677  1.0000
  C   C643      1.0  0.74543  0.16755  0.25127  1.0000
  H   H646      1.0  0.50661  0.02931  0.41866  1.0000
  H   H647      1.0  0.57556  0.99073  0.42604  1.0000
  C   C644      1.0  0.56153  0.06535  0.04896  1.0000
  H   H648      1.0  0.74554  0.15616  0.23664  1.0000
  H   H649      1.0  0.87194  0.03524  0.37984  1.0000
  H   H650      1.0  0.51878  0.06420  0.10716  1.0000
  H   H651      1.0  0.71721  0.17646  0.30641  1.0000
  Fe  Fe112     1.0  0.79839  0.20796  0.35970  1.0000
  C   C645      1.0  0.77104  0.98113  0.21003  1.0000
  H   H652      1.0  0.55916  0.04236  0.10748  1.0000
  C   C646      1.0  0.86190  0.03787  0.36341  1.0000
  C   C647      1.0  0.50593  0.15760  0.38737  1.0000
  H   H653      1.0  0.87419  0.03067  0.34854  1.0000
  H   H654      1.0  0.83362  0.13033  0.34217  1.0000
  C   C648      1.0  0.52122  0.02305  0.42968  1.0000
  H   H655      1.0  0.71609  0.15135  0.27230  1.0000
  H   H656      1.0  0.76845  0.98066  0.19115  1.0000
  C   C649      1.0  0.84122  0.09540  0.32873  1.0000
  Fe  Fe113     1.0  0.83101  0.99784  0.99141  1.0000
  C   C650      1.0  0.50828  0.21638  0.46945  1.0000
  C   C651      1.0  0.84409  0.10321  0.36999  1.0000
  H   H657      1.0  0.51297  0.18915  0.40384  1.0000
  H   H658      1.0  0.75639  0.19789  0.32463  1.0000
  H   H659      1.0  0.48265  0.03388  0.46257  1.0000
  H   H660      1.0  0.53296  0.21158  0.32120  1.0000
  C   C652      1.0  0.55373  0.05277  0.09120  1.0000
  H   H661      1.0  0.84607  0.02710  0.36647  1.0000
  C   C653      1.0  0.84870  0.07119  0.33466  1.0000
  C   C654      1.0  0.83272  0.00528  0.20499  1.0000
  H   H662      1.0  0.72258  0.02164  0.41840  1.0000
  H   H663      1.0  0.53140  0.20880  0.36592  1.0000
  H   H664      1.0  0.58643  0.07654  0.47014  1.0000
  C   C655      1.0  0.53774  0.19181  0.32264  1.0000
  H   H665      1.0  0.85861  0.20962  0.41697  1.0000
  C   C656      1.0  0.50186  0.98465  0.20431  1.0000
  C   C657      1.0  0.52469  0.19128  0.36576  1.0000
  C   C658      1.0  0.89588  0.21240  0.42089  1.0000
  C   C659      1.0  0.73802  0.99190  0.03274  1.0000
  H   H666      1.0  0.77514  0.18669  0.23479  1.0000
  C   C660      1.0  0.48421  0.06152  0.19386  1.0000
  C   C661      1.0  0.72904  0.16471  0.27146  1.0000
  C   C662      1.0  0.48163  0.06050  0.38111  1.0000
  H   H667      1.0  0.49527  0.10013  0.08566  1.0000
  H   H668      1.0  0.51543  0.98617  0.01943  1.0000
  C   C663      1.0  0.49913  0.08903  0.07005  1.0000
  H   H669      1.0  0.57289  0.99959  0.46896  1.0000
  Fe  Fe114     1.0  0.48091  0.98175  0.14522  1.0000
  H   H670      1.0  0.55690  0.16553  0.47471  1.0000
  H   H671      1.0  0.72218  0.99313  0.02279  1.0000
  S   S221      1.0  0.63508  0.98015  0.46973  1.0000
  H   H672      1.0  0.79504  0.98763  0.06705  1.0000
  C   C664      1.0  0.77909  0.98888  0.05722  1.0000
  N   N57       1.0  0.83333  0.98316  0.22130  1.0000
  H   H673      1.0  0.60071  0.97971  0.06276  1.0000
  H   H674      1.0  0.97442  0.02755  0.41297  1.0000
  C   C665      1.0  0.87131  0.21907  0.42514  1.0000
  C   C666      1.0  0.95656  0.99991  0.47250  1.0000
  S   S222      1.0  0.66028  0.22595  0.19853  1.0000
  S   S223      1.0  0.54912  0.22703  0.26806  1.0000
  S   S224      1.0  0.76162  0.22546  0.36892  1.0000
  C   C667      1.0  0.52511  0.22717  0.24971  1.0000
  S   S225      1.0  0.62019  0.22642  0.26052  1.0000
  C   C668      1.0  0.91243  0.22508  0.43047  1.0000
  H   H675      1.0  0.93156  0.22023  0.42695  1.0000
  H   H676      1.0  0.75768  0.22552  0.30547  1.0000
  H   H677      1.0  0.53619  0.04118  0.53973  1.0000
  C   C669      1.0  0.96703  0.97984  0.48556  1.0000
  Fe  Fe115     1.0  0.78948  0.10340  0.76338  1.0000
  S   S226      1.0  0.75441  0.11885  0.78032  1.0000
  S   S227      1.0  0.82527  0.12006  0.76087  1.0000
  Fe  Fe116     1.0  0.76564  0.06211  0.74503  1.0000
  S   S228      1.0  0.72858  0.07504  0.76022  1.0000
  S   S229      1.0  0.77384  0.03157  0.72079  1.0000
  Fe  Fe117     1.0  0.73923  0.11193  0.74613  1.0000
  S   S230      1.0  0.71456  0.14179  0.72917  1.0000
  Fe  Fe118     1.0  0.74702  0.08057  0.79308  1.0000
  S   S231      1.0  0.73197  0.07349  0.83224  1.0000
  S   S232      1.0  0.77469  0.09871  0.72840  1.0000
  S   S233      1.0  0.78365  0.06541  0.77873  1.0000
  H   H678      1.0  0.72288  0.22002  0.70113  1.0000
  H   H679      1.0  0.52009  0.13429  0.53913  1.0000
  H   H680      1.0  0.97131  0.08516  0.82814  1.0000
  N   N58       1.0  0.55535  0.11830  0.52986  1.0000
  Fe  Fe119     1.0  0.62084  0.99379  0.96250  1.0000
  C   C670      1.0  0.93144  0.07730  0.87685  1.0000
  H   H681      1.0  0.74346  0.21454  0.48648  1.0000
  S   S234      1.0  0.66253  0.98378  0.51889  1.0000
  H   H682      1.0  0.96365  0.04211  0.51025  1.0000
  S   S235      1.0  0.65807  0.00220  0.94671  1.0000
  C   C671      1.0  0.53606  0.13472  0.52659  1.0000
  C   C672      1.0  0.55135  0.07779  0.48972  1.0000
  C   C673      1.0  0.96472  0.02456  0.50338  1.0000
  S   S236      1.0  0.50804  0.08133  0.51797  1.0000
  H   H683      1.0  0.70425  0.98181  0.91214  1.0000
  H   H684      1.0  0.56749  0.08475  0.54819  1.0000
  C   C674      1.0  0.79389  0.18473  0.67060  1.0000
  S   S237      1.0  0.74516  0.18171  0.62149  1.0000
  C   C675      1.0  0.65341  0.06463  0.80449  1.0000
  H   H685      1.0  0.84603  0.00380  0.55465  1.0000
  C   C676      1.0  0.57541  0.11872  0.51392  1.0000
  C   C677      1.0  0.74962  0.00560  0.96737  1.0000
  H   H686      1.0  0.63733  0.04640  0.83697  1.0000
  H   H687      1.0  0.50080  0.04687  0.48194  1.0000
  C   C678      1.0  0.81589  0.15924  0.69972  1.0000
  H   H688      1.0  0.53673  0.09449  0.55548  1.0000
  H   H689      1.0  0.75298  0.02012  0.67542  1.0000
  H   H690      1.0  0.91384  0.07191  0.91279  1.0000
  C   C679      1.0  0.71318  0.05070  0.84400  1.0000
  C   C680      1.0  0.70533  0.03470  0.82933  1.0000
  C   C681      1.0  0.68947  0.01757  0.83926  1.0000
  C   C682      1.0  0.68141  0.01618  0.86392  1.0000
  C   C683      1.0  0.68959  0.03193  0.87866  1.0000
  C   C684      1.0  0.70538  0.04911  0.86871  1.0000
  H   H691      1.0  0.71125  0.03567  0.81031  1.0000
  H   H692      1.0  0.68333  0.00535  0.82775  1.0000
  H   H693      1.0  0.68355  0.03105  0.89765  1.0000
  H   H694      1.0  0.71142  0.06140  0.88020  1.0000
  C   C685      1.0  0.72184  0.15200  0.69867  1.0000
  C   C686      1.0  0.71134  0.17423  0.68929  1.0000
  C   C687      1.0  0.71827  0.18365  0.66565  1.0000
  C   C688      1.0  0.73516  0.17047  0.65098  1.0000
  C   C689      1.0  0.74492  0.14784  0.66007  1.0000
  C   C690      1.0  0.73852  0.13876  0.68389  1.0000
  H   H695      1.0  0.69799  0.18431  0.70044  1.0000
  H   H696      1.0  0.71022  0.20086  0.65865  1.0000
  H   H697      1.0  0.75768  0.13735  0.64869  1.0000
  H   H698      1.0  0.74624  0.12134  0.69063  1.0000
  C   C691      1.0  0.77754  0.99561  0.90997  1.0000
  C   C692      1.0  0.97190  0.08722  0.87405  1.0000
  C   C693      1.0  0.76504  0.00229  0.72912  1.0000
  C   C694      1.0  0.74913  0.99729  0.74936  1.0000
  H   H699      1.0  0.84133  0.17649  0.71684  1.0000
  H   H700      1.0  0.74280  0.01132  0.76100  1.0000
  C   C695      1.0  0.58526  0.04924  0.49996  1.0000
  C   C696      1.0  0.75166  0.20269  0.72087  1.0000
  C   C697      1.0  0.96946  0.19309  0.51117  1.0000
  C   C698      1.0  0.53721  0.06827  0.50965  1.0000
  C   C699      1.0  0.97597  0.98257  0.50759  1.0000
  C   C700      1.0  0.95024  0.08103  0.91322  1.0000
  S   S238      1.0  0.94216  0.01892  0.85901  1.0000
  H   H701      1.0  0.91124  0.99535  0.53919  1.0000
  H   H702      1.0  0.74907  0.02419  0.95999  1.0000
  H   H703      1.0  0.76247  0.02346  0.85607  1.0000
  C   C701      1.0  0.93547  0.01800  0.89064  1.0000
  C   C702      1.0  0.95337  0.01935  0.90616  1.0000
  C   C703      1.0  0.94720  0.02142  0.93089  1.0000
  C   C704      1.0  0.92316  0.02151  0.94046  1.0000
  C   C705      1.0  0.90535  0.01910  0.92516  1.0000
  C   C706      1.0  0.91148  0.01756  0.90031  1.0000
  H   H704      1.0  0.59193  0.13544  0.48085  1.0000
  H   H705      1.0  0.96109  0.02331  0.94257  1.0000
  H   H706      1.0  0.88674  0.01935  0.93228  1.0000
  H   H707      1.0  0.89750  0.01652  0.88847  1.0000
  C   C707      1.0  0.83435  0.19899  0.77131  1.0000
  C   C708      1.0  0.85390  0.18376  0.76297  1.0000
  C   C709      1.0  0.85105  0.15935  0.76084  1.0000
  C   C710      1.0  0.82852  0.15014  0.76631  1.0000
  C   C711      1.0  0.80911  0.16527  0.77508  1.0000
  C   C712      1.0  0.81212  0.18950  0.77784  1.0000
  H   H708      1.0  0.67191  0.08580  0.77580  1.0000
  H   H709      1.0  0.86626  0.14768  0.75435  1.0000
  H   H710      1.0  0.79181  0.15827  0.77983  1.0000
  H   H711      1.0  0.79704  0.20102  0.78486  1.0000
  Fe  Fe120     1.0  0.62860  0.00045  0.50281  1.0000
  S   S239      1.0  0.61619  0.03996  0.49531  1.0000
  S   S240      1.0  0.79932  0.99151  0.48210  1.0000
  H   H712      1.0  0.97191  0.01945  0.89908  1.0000
  C   C713      1.0  0.66739  0.08334  0.79512  1.0000
  H   H713      1.0  0.79378  0.02240  0.88501  1.0000
  N   N59       1.0  0.97484  0.00474  0.51614  1.0000
  H   H714      1.0  0.71128  0.98905  0.71242  1.0000
  H   H715      1.0  0.91602  0.07289  0.86829  1.0000
  C   C714      1.0  0.54697  0.04869  0.52425  1.0000
  C   C715      1.0  0.77307  0.98392  0.71412  1.0000
  C   C716      1.0  0.80573  0.20426  0.67591  1.0000
  H   H716      1.0  0.72901  0.99743  0.86529  1.0000
  C   C717      1.0  0.77141  0.20603  0.73314  1.0000
  H   H717      1.0  0.59067  0.10559  0.51641  1.0000
  H   H718      1.0  0.79094  0.99517  0.92286  1.0000
  C   C718      1.0  0.55662  0.15233  0.49026  1.0000
  C   C719      1.0  0.73325  0.01899  0.67881  1.0000
  H   H719      1.0  0.85011  0.22458  0.68510  1.0000
  H   H720      1.0  0.95447  0.20493  0.50496  1.0000
  H   H721      1.0  0.78544  0.98766  0.69846  1.0000
  H   H722      1.0  0.78104  0.18704  0.65700  1.0000
  C   C720      1.0  0.82766  0.17904  0.70424  1.0000
  S   S241      1.0  0.86574  0.98347  0.97232  1.0000
  S   S242      1.0  0.97884  0.99698  0.67505  1.0000
  S   S243      1.0  0.91594  0.02605  0.97122  1.0000
  Fe  Fe121     1.0  0.48834  0.10941  0.49333  1.0000
  Fe  Fe122     1.0  0.64951  0.98392  0.91483  1.0000
  H   H723      1.0  0.64743  0.05259  0.79264  1.0000
  N   N60       1.0  0.67552  0.09811  0.81014  1.0000
  C   C721      1.0  0.66988  0.09492  0.83450  1.0000
  C   C722      1.0  0.65577  0.07653  0.84445  1.0000
  C   C723      1.0  0.64758  0.06126  0.82933  1.0000
  C   C724      1.0  0.68983  0.11793  0.80026  1.0000
  H   H724      1.0  0.67688  0.10621  0.84643  1.0000
  C   C725      1.0  0.55494  0.10096  0.55122  1.0000
  H   H725      1.0  0.70624  0.11753  0.81006  1.0000
  H   H726      1.0  0.69584  0.11678  0.78084  1.0000
  H   H727      1.0  0.67913  0.13543  0.80209  1.0000
  C   C726      1.0  0.53648  0.15207  0.50685  1.0000
  C   C727      1.0  0.49067  0.21969  0.48853  1.0000
  H   H728      1.0  0.57829  0.02435  0.53103  1.0000
  C   C728      1.0  0.72885  0.99311  0.96846  1.0000
  H   H729      1.0  0.94071  0.09827  0.82984  1.0000
  H   H730      1.0  0.78162  0.19056  0.74137  1.0000
  H   H731      1.0  0.75137  0.00101  0.50322  1.0000
  C   C729      1.0  0.75130  0.98648  0.49181  1.0000
  Fe  Fe123     1.0  0.73738  0.22072  0.60767  1.0000
  N   N61       1.0  0.95218  0.08243  0.86324  1.0000
  N   N62       1.0  0.82206  0.20130  0.69289  1.0000
  H   H732      1.0  0.78989  0.14682  0.67891  1.0000
  C   C730      1.0  0.77910  0.01091  0.88878  1.0000
  S   S244      1.0  0.95632  0.22523  0.73572  1.0000
  H   H733      1.0  0.53729  0.02365  0.48597  1.0000
  H   H734      1.0  0.96141  0.98086  0.96829  1.0000
  H   H735      1.0  0.94715  0.06595  0.83169  1.0000
  H   H736      1.0  0.87122  0.19074  0.75824  1.0000
  H   H737      1.0  0.82008  0.14170  0.70923  1.0000
  H   H738      1.0  0.94947  0.16173  0.51719  1.0000
  H   H739      1.0  0.83319  0.98468  0.52045  1.0000
  C   C731      1.0  0.73839  0.22272  0.71044  1.0000
  H   H740      1.0  0.65192  0.07357  0.86384  1.0000
  C   C732      1.0  0.74257  0.99685  0.87793  1.0000
  C   C733      1.0  0.97130  0.08638  0.89919  1.0000
  H   H741      1.0  0.97084  0.02041  0.71861  1.0000
  C   C734      1.0  0.57081  0.03905  0.51930  1.0000
  H   H742      1.0  0.72389  0.03205  0.66590  1.0000
  H   H743      1.0  0.74648  0.18466  0.71981  1.0000
  C   C735      1.0  0.57535  0.06853  0.48510  1.0000
  H   H744      1.0  0.71299  0.98435  0.49802  1.0000
  C   C736      1.0  0.76159  0.01147  0.87254  1.0000
  H   H745      1.0  0.74265  0.99487  0.63997  1.0000
  C   C737      1.0  0.79890  0.16215  0.68278  1.0000
  H   H746      1.0  0.67492  0.22111  0.48364  1.0000
  C   C738      1.0  0.93010  0.07667  0.90200  1.0000
  C   C739      1.0  0.95292  0.08304  0.83692  1.0000
  H   H747      1.0  0.80179  0.22175  0.66634  1.0000
  C   C740      1.0  0.75820  0.98130  0.91477  1.0000
  H   H748      1.0  0.71242  0.00207  0.96210  1.0000
  H   H749      1.0  0.54419  0.09292  0.47841  1.0000
  C   C741      1.0  0.95545  0.02245  0.48139  1.0000
  H   H750      1.0  0.87405  0.98061  0.58218  1.0000
  H   H751      1.0  0.72813  0.02454  0.69731  1.0000
  H   H752      1.0  0.90084  0.98470  0.49987  1.0000
  C   C742      1.0  0.57623  0.13553  0.49374  1.0000
  C   C743      1.0  0.85223  0.98527  0.55194  1.0000
  N   N63       1.0  0.72724  0.99449  0.67632  1.0000
  H   H753      1.0  0.56001  0.10944  0.56694  1.0000
  S   S245      1.0  0.66109  0.99466  0.87527  1.0000
  H   H754      1.0  0.52126  0.16522  0.50429  1.0000
  H   H755      1.0  0.94959  0.07977  0.93277  1.0000
  C   C744      1.0  0.71565  0.98158  0.69519  1.0000
  S   S246      1.0  0.79664  0.01060  0.97370  1.0000
  S   S247      1.0  0.61107  0.97886  0.92908  1.0000
  N   N64       1.0  0.74084  0.98232  0.89899  1.0000
  H   H756      1.0  0.84052  0.21928  0.71679  1.0000
  C   C745      1.0  0.83429  0.22189  0.69831  1.0000
  C   C746      1.0  0.73336  0.98468  0.65487  1.0000
  H   H757      1.0  0.96781  0.00447  0.55401  1.0000
  C   C747      1.0  0.96669  0.16884  0.51790  1.0000
  C   C748      1.0  0.77276  0.97789  0.47932  1.0000
  C   C749      1.0  0.91779  0.97801  0.53305  1.0000
  C   C750      1.0  0.77105  0.99420  0.97568  1.0000
  S   S248      1.0  0.53669  0.37411  0.41997  1.0000
  H   H758      1.0  0.97249  0.27004  0.46040  1.0000
  S   S249      1.0  0.78752  0.27243  0.38259  1.0000
  N   N65       1.0  0.50998  0.30558  0.23132  1.0000
  H   H759      1.0  0.68130  0.33781  0.24378  1.0000
  S   S250      1.0  0.81201  0.24058  0.33852  1.0000
  C   C751      1.0  0.64375  0.33572  0.25529  1.0000
  Fe  Fe124     1.0  0.82304  0.25127  0.37374  1.0000
  S   S251      1.0  0.86158  0.26056  0.37763  1.0000
  Fe  Fe125     1.0  0.77543  0.25856  0.34924  1.0000
  S   S252      1.0  0.75434  0.27700  0.31877  1.0000
  N   N66       1.0  0.63457  0.32272  0.29707  1.0000
  C   C752      1.0  0.94483  0.41229  0.40445  1.0000
  H   H760      1.0  0.61286  0.45934  0.42341  1.0000
  S   S253      1.0  0.95439  0.37498  0.45746  1.0000
  Fe  Fe126     1.0  0.94589  0.33844  0.44793  1.0000
  S   S254      1.0  0.90796  0.33432  0.43720  1.0000
  Fe  Fe127     1.0  0.53660  0.35904  0.45908  1.0000
  H   H761      1.0  0.53905  0.46658  0.23230  1.0000
  S   S255      1.0  0.49591  0.42579  0.09974  1.0000
  H   H762      1.0  0.96166  0.41561  0.41220  1.0000
  S   S256      1.0  0.51728  0.44507  0.14686  1.0000
  Fe  Fe128     1.0  0.50210  0.41150  0.13803  1.0000
  S   S257      1.0  0.51815  0.37272  0.14485  1.0000
  C   C753      1.0  0.60449  0.41940  0.45534  1.0000
  Fe  Fe129     1.0  0.60246  0.29147  0.23259  1.0000
  S   S258      1.0  0.58987  0.27759  0.27021  1.0000
  S   S259      1.0  0.59091  0.33103  0.22276  1.0000
  Fe  Fe130     1.0  0.63167  0.24378  0.22394  1.0000
  H   H763      1.0  0.62518  0.30635  0.33245  1.0000
  Fe  Fe131     1.0  0.58343  0.24411  0.25368  1.0000
  H   H764      1.0  0.53172  0.37799  0.09313  1.0000
  Fe  Fe132     1.0  0.62768  0.26129  0.27371  1.0000
  S   S260      1.0  0.64486  0.26158  0.30894  1.0000
  S   S261      1.0  0.59412  0.25874  0.21564  1.0000
  S   S262      1.0  0.64099  0.27800  0.23757  1.0000
  H   H765      1.0  0.91828  0.34280  0.38230  1.0000
  C   C754      1.0  0.60708  0.39513  0.46409  1.0000
  H   H766      1.0  0.59162  0.43172  0.14248  1.0000
  H   H767      1.0  0.54409  0.24202  0.21728  1.0000
  C   C755      1.0  0.96926  0.38494  0.37847  1.0000
  C   C756      1.0  0.76367  0.24024  0.46391  1.0000
  N   N67       1.0  0.86342  0.23777  0.43870  1.0000
  H   H768      1.0  0.54370  0.39522  0.06664  1.0000
  H   H769      1.0  0.55284  0.43142  0.08005  1.0000
  H   H770      1.0  0.52737  0.28476  0.25995  1.0000
  H   H771      1.0  0.53696  0.31454  0.25264  1.0000
  C   C757      1.0  0.53865  0.36166  0.16642  1.0000
  C   C758      1.0  0.54730  0.33724  0.16754  1.0000
  C   C759      1.0  0.56345  0.32759  0.18453  1.0000
  C   C760      1.0  0.57126  0.34237  0.20049  1.0000
  C   C761      1.0  0.56286  0.36687  0.19913  1.0000
  C   C762      1.0  0.54654  0.37646  0.18228  1.0000
  H   H772      1.0  0.54133  0.32562  0.15533  1.0000
  H   H773      1.0  0.56981  0.30873  0.18529  1.0000
  H   H774      1.0  0.56874  0.37846  0.21142  1.0000
  H   H775      1.0  0.54002  0.39529  0.18164  1.0000
  C   C763      1.0  0.87400  0.28148  0.39411  1.0000
  C   C764      1.0  0.89916  0.28079  0.39430  1.0000
  C   C765      1.0  0.90989  0.29636  0.40776  1.0000
  C   C766      1.0  0.89556  0.31318  0.42095  1.0000
  C   C767      1.0  0.87043  0.31400  0.42059  1.0000
  C   C768      1.0  0.85969  0.29821  0.40741  1.0000
  H   H776      1.0  0.91044  0.26794  0.38410  1.0000
  H   H777      1.0  0.92923  0.29550  0.40771  1.0000
  H   H778      1.0  0.85912  0.32706  0.43052  1.0000
  H   H779      1.0  0.84036  0.29919  0.40732  1.0000
  C   C769      1.0  0.67603  0.26315  0.31081  1.0000
  C   C770      1.0  0.68503  0.26028  0.33362  1.0000
  C   C771      1.0  0.70921  0.26356  0.33618  1.0000
  C   C772      1.0  0.72452  0.27031  0.31597  1.0000
  C   C773      1.0  0.71563  0.27284  0.29309  1.0000
  C   C774      1.0  0.69159  0.26894  0.29047  1.0000
  H   H780      1.0  0.53697  0.23239  0.44698  1.0000
  H   H781      1.0  0.71579  0.26164  0.35389  1.0000
  H   H782      1.0  0.72738  0.27798  0.27735  1.0000
  H   H783      1.0  0.68491  0.27116  0.27279  1.0000
  C   C775      1.0  0.53538  0.40563  0.41338  1.0000
  C   C776      1.0  0.53650  0.41533  0.38925  1.0000
  C   C777      1.0  0.53753  0.44022  0.38342  1.0000
  C   C778      1.0  0.53753  0.45555  0.40174  1.0000
  C   C779      1.0  0.53577  0.44593  0.42587  1.0000
  C   C780      1.0  0.53453  0.42110  0.43169  1.0000
  H   H784      1.0  0.53709  0.40349  0.37497  1.0000
  H   H785      1.0  0.53901  0.44746  0.36474  1.0000
  H   H786      1.0  0.53553  0.45771  0.44014  1.0000
  H   H787      1.0  0.53329  0.41396  0.45034  1.0000
  H   H788      1.0  0.78471  0.26815  0.44648  1.0000
  C   C781      1.0  0.49258  0.29000  0.23151  1.0000
  H   H789      1.0  0.54613  0.29134  0.23265  1.0000
  C   C782      1.0  0.52074  0.25647  0.47293  1.0000
  C   C783      1.0  0.50747  0.23681  0.21156  1.0000
  C   C784      1.0  0.50872  0.32684  0.21711  1.0000
  H   H790      1.0  0.58911  0.45448  0.40545  1.0000
  N   N68       1.0  0.94820  0.39013  0.39212  1.0000
  C   C785      1.0  0.92996  0.37536  0.39332  1.0000
  H   H791      1.0  0.59093  0.37091  0.41525  1.0000
  H   H792      1.0  0.95686  0.33239  0.35847  1.0000
  C   C786      1.0  0.48538  0.22908  0.22186  1.0000
  Fe  Fe133     1.0  0.50779  0.46046  0.10978  1.0000
  C   C787      1.0  0.77791  0.25947  0.46355  1.0000
  H   H793      1.0  0.49340  0.27323  0.24289  1.0000
  C   C788      1.0  0.97552  0.23204  0.45577  1.0000
  C   C789      1.0  0.59545  0.38438  0.42640  1.0000
  H   H794      1.0  0.60768  0.43299  0.46696  1.0000
  C   C790      1.0  0.52726  0.23588  0.22541  1.0000
  H   H795      1.0  0.48690  0.44665  0.39144  1.0000
  H   H796      1.0  0.82711  0.22894  0.44580  1.0000
  H   H797      1.0  0.63773  0.34099  0.23750  1.0000
  H   H798      1.0  0.72121  0.27822  0.46757  1.0000
  Fe  Fe134     1.0  0.77650  0.23728  0.40134  1.0000
  C   C791      1.0  0.50618  0.46949  0.21469  1.0000
  C   C792      1.0  0.83760  0.24496  0.44205  1.0000
  H   H799      1.0  0.48967  0.34921  0.19021  1.0000
  H   H800      1.0  0.87340  0.26614  0.45760  1.0000
  H   H801      1.0  0.58183  0.46152  0.43587  1.0000
  H   H802      1.0  0.56000  0.36783  0.07755  1.0000
  C   C793      1.0  0.59330  0.40878  0.41811  1.0000
  C   C794      1.0  0.65843  0.32142  0.30080  1.0000
  H   H803      1.0  0.52232  0.33932  0.21716  1.0000
  H   H804      1.0  0.67315  0.25582  0.34947  1.0000
  C   C795      1.0  0.62710  0.33005  0.27474  1.0000
  H   H805      1.0  0.60378  0.35872  0.45636  1.0000
  C   C796      1.0  0.53106  0.29874  0.24489  1.0000
  H   H806      1.0  0.70186  0.24462  0.45432  1.0000
  N   N69       1.0  0.59775  0.42593  0.43258  1.0000
  C   C797      1.0  0.61671  0.31695  0.31715  1.0000
  H   H807      1.0  0.60818  0.33120  0.27174  1.0000
  H   H808      1.0  0.60716  0.33370  0.32352  1.0000
  H   H809      1.0  0.60355  0.30546  0.31141  1.0000
  N   N70       1.0  0.56119  0.39711  0.09884  1.0000
  C   C798      1.0  0.57181  0.38482  0.11792  1.0000
  C   C799      1.0  0.56150  0.42155  0.09497  1.0000
  C   C800      1.0  0.58302  0.39702  0.13383  1.0000
  C   C801      1.0  0.57265  0.43432  0.11046  1.0000
  C   C802      1.0  0.58336  0.42196  0.13007  1.0000
  C   C803      1.0  0.54857  0.38393  0.08320  1.0000
  H   H810      1.0  0.57094  0.36552  0.12138  1.0000
  H   H811      1.0  0.58736  0.41389  0.40029  1.0000
  H   H812      1.0  0.59087  0.38721  0.14928  1.0000
  H   H813      1.0  0.91321  0.37933  0.40415  1.0000
  C   C804      1.0  0.93274  0.35455  0.38104  1.0000
  H   H814      1.0  0.66445  0.31532  0.31841  1.0000
  H   H815      1.0  0.51428  0.46081  0.19910  1.0000
  C   C805      1.0  0.66816  0.33396  0.25882  1.0000
  H   H816      1.0  0.57249  0.45378  0.10746  1.0000
  H   H817      1.0  0.50918  0.24389  0.19284  1.0000
  S   S263      1.0  0.55513  0.32315  0.47160  1.0000
  C   C806      1.0  0.87954  0.25056  0.44787  1.0000
  H   H818      1.0  0.69455  0.32510  0.28469  1.0000
  C   C807      1.0  0.67558  0.32692  0.28175  1.0000
  C   C808      1.0  0.52017  0.47277  0.23352  1.0000
  C   C809      1.0  0.60249  0.37756  0.44949  1.0000
  C   C810      1.0  0.59536  0.45151  0.42390  1.0000
  H   H819      1.0  0.93068  0.41111  0.41973  1.0000
  H   H820      1.0  0.83168  0.25541  0.42543  1.0000
  C   C811      1.0  0.95438  0.34877  0.36764  1.0000
  H   H821      1.0  0.83314  0.25621  0.45743  1.0000
  H   H822      1.0  0.91695  0.25494  0.45081  1.0000
  C   C812      1.0  0.69833  0.24928  0.47281  1.0000
  C   C813      1.0  0.52329  0.23482  0.46171  1.0000
  S   S264      1.0  0.75472  0.23090  0.43719  1.0000
  C   C814      1.0  0.90425  0.24433  0.44403  1.0000
  H   H823      1.0  0.95638  0.23097  0.45664  1.0000
  C   C815      1.0  0.97279  0.36407  0.36627  1.0000
  H   H824      1.0  0.53239  0.27056  0.46684  1.0000
  C   C816      1.0  0.49016  0.33260  0.20195  1.0000
  H   H825      1.0  0.93974  0.42781  0.39156  1.0000
  C   C817      1.0  0.48187  0.47782  0.21592  1.0000
  C   C818      1.0  0.69119  0.26072  0.52022  1.0000
  C   C819      1.0  0.67967  0.24182  0.51316  1.0000
  H   H826      1.0  0.96528  0.43541  0.57910  1.0000
  H   H827      1.0  0.95204  0.24594  0.78865  1.0000
  H   H828      1.0  0.70522  0.30998  0.51104  1.0000
  H   H829      1.0  0.73450  0.29673  0.50031  1.0000
  S   S265      1.0  0.55077  0.37879  0.48684  1.0000
  H   H830      1.0  0.93380  0.28057  0.81468  1.0000
  Fe  Fe135     1.0  0.89635  0.29558  0.75397  1.0000
  S   S266      1.0  0.91759  0.28669  0.71923  1.0000
  S   S267      1.0  0.89858  0.32953  0.77330  1.0000
  Fe  Fe136     1.0  0.86904  0.24947  0.75688  1.0000
  H   H831      1.0  0.95641  0.46259  0.71788  1.0000
  Fe  Fe137     1.0  0.92184  0.24945  0.73786  1.0000
  Fe  Fe138     1.0  0.52147  0.31847  0.49631  1.0000
  Fe  Fe139     1.0  0.88283  0.27541  0.70812  1.0000
  S   S268      1.0  0.87000  0.27902  0.67051  1.0000
  S   S269      1.0  0.90209  0.25850  0.77317  1.0000
  S   S270      1.0  0.86109  0.28750  0.74106  1.0000
  Fe  Fe140     1.0  0.74606  0.27020  0.62040  1.0000
  S   S271      1.0  0.88943  0.23725  0.72342  1.0000
  S   S272      1.0  0.76006  0.28788  0.65059  1.0000
  Fe  Fe141     1.0  0.70273  0.26371  0.59198  1.0000
  S   S273      1.0  0.49927  0.28661  0.50676  1.0000
  S   S274      1.0  0.66291  0.27168  0.58602  1.0000
  H   H832      1.0  0.82201  0.23859  0.69765  1.0000
  Fe  Fe142     1.0  0.75347  0.25889  0.56799  1.0000
  S   S275      1.0  0.77679  0.27033  0.53437  1.0000
  S   S276      1.0  0.71445  0.24795  0.62827  1.0000
  S   S277      1.0  0.73206  0.28896  0.58637  1.0000
  H   H833      1.0  0.61201  0.38990  0.48231  1.0000
  H   H834      1.0  0.95908  0.38686  0.74061  1.0000
  H   H835      1.0  0.79303  0.28338  0.48498  1.0000
  S   S278      1.0  0.53451  0.33597  0.52684  1.0000
  Fe  Fe143     1.0  0.96945  0.35558  0.49032  1.0000
  Fe  Fe144     1.0  0.51697  0.37022  0.50939  1.0000
  C   C820      1.0  0.50317  0.25978  0.49204  1.0000
  Fe  Fe145     1.0  0.56717  0.34261  0.50129  1.0000
  S   S279      1.0  0.60698  0.34106  0.50804  1.0000
  H   H836      1.0  0.94342  0.31970  0.82664  1.0000
  N   N71       1.0  0.70605  0.27345  0.50402  1.0000
  H   H837      1.0  0.95644  0.41155  0.75937  1.0000
  C   C821      1.0  0.77262  0.25777  0.50750  1.0000
  S   S280      1.0  0.49520  0.39956  0.52923  1.0000
  H   H838      1.0  0.75143  0.22990  0.52476  1.0000
  H   H839      1.0  0.73900  0.28283  0.70011  1.0000
  C   C822      1.0  0.95778  0.30599  0.82235  1.0000
  C   C823      1.0  0.64783  0.29122  0.56416  1.0000
  C   C824      1.0  0.62330  0.28921  0.56216  1.0000
  C   C825      1.0  0.61056  0.30422  0.54510  1.0000
  C   C826      1.0  0.62222  0.32153  0.52979  1.0000
  C   C827      1.0  0.64680  0.32352  0.53173  1.0000
  C   C828      1.0  0.65952  0.30853  0.54885  1.0000
  H   H840      1.0  0.61403  0.27597  0.57396  1.0000
  H   H841      1.0  0.59169  0.30246  0.54388  1.0000
  H   H842      1.0  0.65595  0.33696  0.52013  1.0000
  H   H843      1.0  0.67821  0.31066  0.55054  1.0000
  H   H844      1.0  0.68830  0.26500  0.53883  1.0000
  C   C829      1.0  0.96545  0.40643  0.55615  1.0000
  C   C830      1.0  0.76401  0.24892  0.72430  1.0000
  H   H845      1.0  0.76884  0.26694  0.72601  1.0000
  S   S281      1.0  0.95851  0.31951  0.48249  1.0000
  C   C831      1.0  0.83909  0.27856  0.66714  1.0000
  C   C832      1.0  0.82152  0.28912  0.68322  1.0000
  C   C833      1.0  0.79721  0.29110  0.67838  1.0000
  C   C834      1.0  0.79024  0.28220  0.65769  1.0000
  C   C835      1.0  0.80770  0.27059  0.64228  1.0000
  C   C836      1.0  0.83202  0.26894  0.64690  1.0000
  H   H846      1.0  0.82679  0.29678  0.69876  1.0000
  H   H847      1.0  0.78390  0.30037  0.69027  1.0000
  H   H848      1.0  0.80271  0.26388  0.62619  1.0000
  H   H849      1.0  0.84553  0.26080  0.63436  1.0000
  C   C837      1.0  0.96120  0.36945  0.79398  1.0000
  C   C838      1.0  0.93731  0.37707  0.80080  1.0000
  C   C839      1.0  0.91846  0.36489  0.79390  1.0000
  C   C840      1.0  0.92315  0.34503  0.78001  1.0000
  C   C841      1.0  0.94704  0.33788  0.77251  1.0000
  C   C842      1.0  0.96435  0.43077  0.56089  1.0000
  H   H850      1.0  0.93332  0.39195  0.81192  1.0000
  H   H851      1.0  0.90007  0.37067  0.79973  1.0000
  H   H852      1.0  0.95099  0.32274  0.76174  1.0000
  C   C843      1.0  0.95247  0.28385  0.81547  1.0000
  C   C844      1.0  0.75884  0.23823  0.50782  1.0000
  C   C845      1.0  0.95991  0.44257  0.51873  1.0000
  C   C846      1.0  0.96591  0.35000  0.77950  1.0000
  H   H853      1.0  0.48494  0.31861  0.54394  1.0000
  C   C847      1.0  0.96140  0.44897  0.54222  1.0000
  S   S282      1.0  0.83660  0.23007  0.77310  1.0000
  C   C848      1.0  0.96153  0.41821  0.51390  1.0000
  C   C849      1.0  0.96411  0.40001  0.53266  1.0000
  C   C850      1.0  0.71768  0.29339  0.51181  1.0000
  H   H854      1.0  0.72466  0.26301  0.68407  1.0000
  H   H855      1.0  0.71284  0.26902  0.71435  1.0000
  H   H856      1.0  0.94639  0.41635  0.72975  1.0000
  S   S283      1.0  0.96580  0.36911  0.52765  1.0000
  S   S284      1.0  0.72358  0.23447  0.57184  1.0000
  H   H857      1.0  0.49441  0.34826  0.57098  1.0000
  C   C851      1.0  0.78246  0.26815  0.48534  1.0000
  N   N72       1.0  0.81257  0.31254  0.59336  1.0000
  C   C852      1.0  0.79761  0.32399  0.61023  1.0000
  C   C853      1.0  0.83685  0.30978  0.59520  1.0000
  C   C854      1.0  0.80694  0.33341  0.62934  1.0000
  C   C855      1.0  0.84676  0.31887  0.61416  1.0000
  C   C856      1.0  0.83166  0.33073  0.63132  1.0000
  C   C857      1.0  0.80254  0.30167  0.57412  1.0000
  H   H858      1.0  0.77827  0.32522  0.60947  1.0000
  H   H859      1.0  0.84864  0.30010  0.58223  1.0000
  H   H860      1.0  0.79494  0.34182  0.64306  1.0000
  H   H861      1.0  0.86592  0.31602  0.61607  1.0000
  H   H862      1.0  0.83908  0.33708  0.64657  1.0000
  H   H863      1.0  0.81375  0.30422  0.55674  1.0000
  H   H864      1.0  0.80156  0.28208  0.57894  1.0000
  H   H865      1.0  0.78414  0.30978  0.57090  1.0000
  H   H866      1.0  0.96822  0.27265  0.74545  1.0000
  S   S285      1.0  0.50189  0.35239  0.48081  1.0000
  N   N73       1.0  0.74466  0.24545  0.71220  1.0000
  C   C858      1.0  0.48816  0.24131  0.49978  1.0000
  H   H867      1.0  0.72291  0.28914  0.53053  1.0000
  H   H868      1.0  0.96737  0.39248  0.57078  1.0000
  C   C859      1.0  0.75446  0.22946  0.48610  1.0000
  S   S286      1.0  0.76951  0.24223  0.60155  1.0000
  C   C860      1.0  0.72954  0.26608  0.70230  1.0000
  C   C861      1.0  0.96043  0.40651  0.74056  1.0000
  S   S287      1.0  0.97219  0.45546  0.80908  1.0000
  H   H869      1.0  0.95752  0.45652  0.50419  1.0000
  H   H870      1.0  0.79288  0.23207  0.74479  1.0000
  H   H871      1.0  0.96040  0.41352  0.49575  1.0000
  S   S288      1.0  0.97403  0.46688  0.66806  1.0000
  H   H872      1.0  0.66801  0.23177  0.52622  1.0000
  C   C862      1.0  0.70934  0.26826  0.48046  1.0000
  H   H873      1.0  0.97444  0.47004  0.75508  1.0000
  H   H874      1.0  0.95540  0.23349  0.81929  1.0000
  C   C863      1.0  0.96436  0.24338  0.80330  1.0000
  C   C864      1.0  0.68343  0.23598  0.48931  1.0000
  C   C865      1.0  0.97364  0.47002  0.71656  1.0000
  N   N74       1.0  0.97053  0.26674  0.80956  1.0000
  H   H875      1.0  0.97655  0.41090  0.69418  1.0000
  C   C866      1.0  0.77771  0.22927  0.73492  1.0000
  S   S289      1.0  0.53320  0.47994  0.08233  1.0000
  Fe  Fe146     1.0  0.51745  0.59854  0.99884  1.0000
  C   C867      1.0  0.92867  0.64030  0.05325  1.0000
  C   C868      1.0  0.49647  0.53688  0.20971  1.0000
  Fe  Fe147     1.0  0.61761  0.68800  0.25117  1.0000
  S   S290      1.0  0.59729  0.71024  0.22276  1.0000
  S   S291      1.0  0.61140  0.64805  0.25833  1.0000
  S   S292      1.0  0.53290  0.63384  0.98681  1.0000
  H   H876      1.0  0.49284  0.56718  0.25978  1.0000
  S   S293      1.0  0.65347  0.70058  0.23552  1.0000
  H   H877      1.0  0.72928  0.67445  0.04801  1.0000
  Fe  Fe148     1.0  0.51609  0.50856  0.30951  1.0000
  S   S294      1.0  0.54592  0.52181  0.32778  1.0000
  H   H878      1.0  0.77490  0.71116  0.01480  1.0000
  C   C869      1.0  0.48413  0.51038  0.01522  1.0000
  S   S295      1.0  0.50442  0.54143  0.36774  1.0000
  C   C870      1.0  0.72112  0.68692  0.03445  1.0000
  Fe  Fe149     1.0  0.52110  0.55536  0.33134  1.0000
  S   S296      1.0  0.52966  0.59474  0.32477  1.0000
  Fe  Fe150     1.0  0.52651  0.50653  0.36215  1.0000
  S   S297      1.0  0.61243  0.71578  0.27807  1.0000
  N   N75       1.0  0.53028  0.69973  0.27039  1.0000
  S   S298      1.0  0.50452  0.58619  0.03727  1.0000
  C   C871      1.0  0.51001  0.48444  0.25367  1.0000
  S   S299      1.0  0.78763  0.70976  0.06506  1.0000
  C   C872      1.0  0.96172  0.61500  0.03601  1.0000
  S   S300      1.0  0.75040  0.69514  0.12893  1.0000
  S   S301      1.0  0.89938  0.64606  0.97724  1.0000
  H   H879      1.0  0.91143  0.59278  0.99873  1.0000
  H   H880      1.0  0.51260  0.68454  0.98809  1.0000
  H   H881      1.0  0.54975  0.67020  0.22133  1.0000
  C   C873      1.0  0.90441  0.59623  0.01746  1.0000
  C   C874      1.0  0.71721  0.71831  0.06270  1.0000
  C   C875      1.0  0.48558  0.49232  0.25518  1.0000
  C   C876      1.0  0.88869  0.66505  0.00022  1.0000
  C   C877      1.0  0.86427  0.66585  0.00881  1.0000
  C   C878      1.0  0.85504  0.68048  0.02727  1.0000
  C   C879      1.0  0.87028  0.69424  0.03755  1.0000
  C   C880      1.0  0.89469  0.69341  0.02896  1.0000
  C   C881      1.0  0.90384  0.67907  0.01025  1.0000
  H   H882      1.0  0.85238  0.65510  0.00112  1.0000
  H   H883      1.0  0.83624  0.68086  0.03377  1.0000
  H   H884      1.0  0.90661  0.70406  0.03675  1.0000
  H   H885      1.0  0.92265  0.67873  0.00376  1.0000
  H   H886      1.0  0.55858  0.71022  0.28903  1.0000
  C   C882      1.0  0.94532  0.60279  0.02551  1.0000
  C   C883      1.0  0.48637  0.55075  0.22813  1.0000
  H   H887      1.0  0.49382  0.51563  0.09480  1.0000
  H   H888      1.0  0.52986  0.72492  0.29671  1.0000
  C   C884      1.0  0.70878  0.72580  0.12827  1.0000
  H   H889      1.0  0.92186  0.65519  0.06375  1.0000
  C   C885      1.0  0.58934  0.63333  0.27794  1.0000
  C   C886      1.0  0.57311  0.64569  0.29394  1.0000
  C   C887      1.0  0.55507  0.63357  0.30813  1.0000
  C   C888      1.0  0.55346  0.60877  0.30715  1.0000
  C   C889      1.0  0.57035  0.59618  0.29195  1.0000
  C   C890      1.0  0.58798  0.60845  0.27725  1.0000
  H   H890      1.0  0.57467  0.66449  0.29560  1.0000
  H   H891      1.0  0.54244  0.64336  0.32023  1.0000
  H   H892      1.0  0.56992  0.57700  0.29163  1.0000
  H   H893      1.0  0.60078  0.59859  0.26536  1.0000
  C   C891      1.0  0.48394  0.51339  0.99019  1.0000
  S   S302      1.0  0.49877  0.49076  0.34368  1.0000
  S   S303      1.0  0.49211  0.54288  0.31138  1.0000
  C   C892      1.0  0.72100  0.70564  0.13968  1.0000
  C   C893      1.0  0.70977  0.69376  0.16036  1.0000
  H   H894      1.0  0.67874  0.69358  0.18639  1.0000
  H   H895      1.0  0.71885  0.67783  0.16903  1.0000
  C   C894      1.0  0.70770  0.69487  0.99446  1.0000
  C   C895      1.0  0.71808  0.67893  0.01205  1.0000
  H   H896      1.0  0.49725  0.51864  0.02398  1.0000
  Fe  Fe151     1.0  0.63265  0.72501  0.20951  1.0000
  C   C896      1.0  0.95332  0.63402  0.04977  1.0000
  C   C897      1.0  0.50088  0.55661  0.24539  1.0000
  H   H897      1.0  0.55341  0.52789  0.22635  1.0000
  C   C898      1.0  0.52486  0.50941  0.06982  1.0000
  C   C899      1.0  0.53892  0.51947  0.04995  1.0000
  C   C900      1.0  0.53277  0.54290  0.03961  1.0000
  C   C901      1.0  0.51266  0.55656  0.04933  1.0000
  C   C902      1.0  0.76592  0.70398  0.97966  1.0000
  C   C903      1.0  0.50463  0.52301  0.07935  1.0000
  H   H898      1.0  0.55466  0.50914  0.04250  1.0000
  H   H899      1.0  0.54379  0.55049  0.02438  1.0000
  H   H900      1.0  0.77392  0.68562  0.98112  1.0000
  H   H901      1.0  0.72411  0.66065  0.00814  1.0000
  H   H902      1.0  0.54663  0.53816  0.27307  1.0000
  C   C904      1.0  0.54559  0.68733  0.25453  1.0000
  N   N76       1.0  0.71429  0.71023  0.03905  1.0000
  C   C905      1.0  0.68706  0.70268  0.17026  1.0000
  H   H903      1.0  0.49431  0.71410  0.27921  1.0000
  H   H904      1.0  0.49684  0.52411  0.97931  1.0000
  C   C906      1.0  0.49869  0.54654  0.06927  1.0000
  S   S304      1.0  0.52894  0.49027  0.27555  1.0000
  C   C907      1.0  0.50215  0.70090  0.98238  1.0000
  H   H905      1.0  0.95205  0.58816  0.01464  1.0000
  C   C908      1.0  0.53734  0.67970  0.23395  1.0000
  H   H906      1.0  0.74054  0.70984  0.18718  1.0000
  H   H907      1.0  0.90160  0.57889  0.02822  1.0000
  H   H908      1.0  0.56441  0.68346  0.25756  1.0000
  H   H909      1.0  0.52858  0.51741  0.19512  1.0000
  H   H910      1.0  0.89364  0.63279  0.04522  1.0000
  H   H911      1.0  0.72104  0.70415  0.22871  1.0000
  C   C909      1.0  0.70382  0.72589  0.02202  1.0000
  H   H912      1.0  0.86713  0.71723  0.98703  1.0000
  S   S305      1.0  0.85993  0.71222  0.06146  1.0000
  C   C910      1.0  0.91276  0.62757  0.04264  1.0000
  C   C911      1.0  0.53473  0.53493  0.22653  1.0000
  C   C912      1.0  0.52081  0.52895  0.20884  1.0000
  C   C913      1.0  0.53993  0.55482  0.26248  1.0000
  H   H913      1.0  0.50659  0.67929  0.21363  1.0000
  N   N77       1.0  0.92121  0.60940  0.02858  1.0000
  S   S306      1.0  0.54190  0.48631  0.39513  1.0000
  C   C914      1.0  0.67493  0.72291  0.15887  1.0000
  H   H914      1.0  0.53639  0.69353  0.30739  1.0000
  C   C915      1.0  0.70038  0.71846  0.99949  1.0000
  H   H915      1.0  0.48819  0.63878  0.02738  1.0000
  S   S307      1.0  0.97159  0.64593  0.97927  1.0000
  N   N78       1.0  0.52476  0.54877  0.24435  1.0000
  Fe  Fe152     1.0  0.82123  0.72524  0.07331  1.0000
  C   C916      1.0  0.74313  0.72235  0.20012  1.0000
  H   H916      1.0  0.88679  0.60690  0.01594  1.0000
  Fe  Fe153     1.0  0.77286  0.71882  0.10239  1.0000
  H   H917      1.0  0.70011  0.71747  0.07437  1.0000
  C   C917      1.0  0.76651  0.71841  0.99876  1.0000
  C   C918      1.0  0.50646  0.70424  0.26668  1.0000
  H   H918      1.0  0.55555  0.56403  0.25361  1.0000
  C   C919      1.0  0.51318  0.68464  0.22976  1.0000
  C   C920      1.0  0.53915  0.70737  0.29203  1.0000
  H   H919      1.0  0.53009  0.56699  0.27537  1.0000
  C   C921      1.0  0.73237  0.71884  0.22364  1.0000
  H   H920      1.0  0.96589  0.64392  0.05762  1.0000
  H   H921      1.0  0.73156  0.70703  0.07196  1.0000
  H   H922      1.0  0.48322  0.55703  0.07701  1.0000
  C   C922      1.0  0.50637  0.72276  0.99093  1.0000
  H   H923      1.0  0.52012  0.72308  0.00319  1.0000
  C   C923      1.0  0.49757  0.69686  0.24628  1.0000
  H   H924      1.0  0.48529  0.53151  0.19665  1.0000
  H   H925      1.0  0.70598  0.68916  0.97672  1.0000
  C   C924      1.0  0.53257  0.71112  0.92806  1.0000
  H   H926      1.0  0.92993  0.58655  0.58735  1.0000
  H   H927      1.0  0.95512  0.54621  0.73025  1.0000
  N   N79       1.0  0.91638  0.63318  0.82335  1.0000
  H   H928      1.0  0.94727  0.55386  0.65232  1.0000
  H   H929      1.0  0.80122  0.72505  0.79710  1.0000
  S   S308      1.0  0.95729  0.50774  0.61254  1.0000
  Fe  Fe154     1.0  0.90660  0.65945  0.70928  1.0000
  S   S309      1.0  0.92369  0.67203  0.74037  1.0000
  S   S310      1.0  0.91572  0.62019  0.70092  1.0000
  C   C925      1.0  0.69842  0.65595  0.82732  1.0000
  Fe  Fe155     1.0  0.88599  0.68586  0.75311  1.0000
  S   S311      1.0  0.87058  0.68378  0.79221  1.0000
  H   H930      1.0  0.84031  0.68969  0.83600  1.0000
  S   S312      1.0  0.86878  0.67136  0.72369  1.0000
  C   C926      1.0  0.97222  0.53985  0.72026  1.0000
  C   C927      1.0  0.95660  0.57336  0.54797  1.0000
  H   H931      1.0  0.92135  0.66845  0.80677  1.0000
  Fe  Fe156     1.0  0.51110  0.58734  0.94778  1.0000
  Fe  Fe157     1.0  0.87444  0.70730  0.70336  1.0000
  H   H932      1.0  0.93261  0.62250  0.85622  1.0000
  Fe  Fe158     1.0  0.55446  0.61388  0.95770  1.0000
  H   H933      1.0  0.89083  0.52373  0.60096  1.0000
  S   S313      1.0  0.59453  0.61955  0.95154  1.0000
  S   S314      1.0  0.88953  0.72231  0.73367  1.0000
  H   H934      1.0  0.96219  0.62451  0.62119  1.0000
  C   C928      1.0  0.91801  0.65891  0.82499  1.0000
  C   C929      1.0  0.75484  0.71306  0.95879  1.0000
  S   S315      1.0  0.52667  0.62140  0.93079  1.0000
  Fe  Fe159     1.0  0.73923  0.69288  0.84979  1.0000
  H   H935      1.0  0.96526  0.58730  0.72375  1.0000
  S   S316      1.0  0.75893  0.67342  0.81914  1.0000
  Fe  Fe160     1.0  0.68951  0.70286  0.87737  1.0000
  H   H936      1.0  0.51881  0.71205  0.91554  1.0000
  S   S317      1.0  0.65012  0.69495  0.87914  1.0000
  H   H937      1.0  0.53877  0.67252  0.92859  1.0000
  S   S318      1.0  0.75577  0.72039  0.86772  1.0000
  H   H938      1.0  0.89879  0.63891  0.79079  1.0000
  C   C930      1.0  0.90390  0.53404  0.58996  1.0000
  S   S319      1.0  0.72108  0.67614  0.88408  1.0000
  H   H939      1.0  0.66468  0.67592  0.82041  1.0000
  C   C931      1.0  0.70977  0.63742  0.84170  1.0000
  S   S320      1.0  0.96878  0.59657  0.88506  1.0000
  H   H940      1.0  0.90998  0.56550  0.82010  1.0000
  H   H941      1.0  0.92871  0.57925  0.85431  1.0000
  C   C932      1.0  0.60936  0.64118  0.93165  1.0000
  C   C933      1.0  0.59809  0.65453  0.91281  1.0000
  C   C934      1.0  0.61072  0.67120  0.89721  1.0000
  C   C935      1.0  0.63476  0.67464  0.90013  1.0000
  C   C936      1.0  0.64605  0.66131  0.91895  1.0000
  C   C937      1.0  0.63340  0.64466  0.93459  1.0000
  H   H942      1.0  0.57977  0.65175  0.91006  1.0000
  H   H943      1.0  0.60186  0.68134  0.88262  1.0000
  H   H944      1.0  0.66454  0.66373  0.92140  1.0000
  H   H945      1.0  0.64229  0.63437  0.94907  1.0000
  C   C938      1.0  0.90326  0.60143  0.80308  1.0000
  C   C939      1.0  0.96118  0.51685  0.87610  1.0000
  C   C940      1.0  0.95034  0.52737  0.89672  1.0000
  C   C941      1.0  0.95317  0.55152  0.90014  1.0000
  H   H946      1.0  0.70892  0.66657  0.81366  1.0000
  Fe  Fe161     1.0  0.96754  0.61418  0.92034  1.0000
  Fe  Fe162     1.0  0.93845  0.63862  0.96240  1.0000
  H   H947      1.0  0.93961  0.51676  0.91008  1.0000
  H   H948      1.0  0.94440  0.55946  0.91592  1.0000
  H   H949      1.0  0.83971  0.69081  0.92642  1.0000
  H   H950      1.0  0.89479  0.59575  0.78815  1.0000
  C   C942      1.0  0.83951  0.68078  0.79944  1.0000
  C   C943      1.0  0.82920  0.68484  0.82273  1.0000
  C   C944      1.0  0.80451  0.68279  0.82897  1.0000
  C   C945      1.0  0.79000  0.67627  0.81204  1.0000
  C   C946      1.0  0.80036  0.67203  0.78883  1.0000
  C   C947      1.0  0.82493  0.67452  0.78247  1.0000
  Fe  Fe163     1.0  0.73533  0.70587  0.90167  1.0000
  H   H951      1.0  0.79680  0.68591  0.84697  1.0000
  H   H952      1.0  0.78930  0.66696  0.77562  1.0000
  H   H953      1.0  0.83257  0.67124  0.76452  1.0000
  S   S321      1.0  0.91040  0.69400  0.68575  1.0000
  C   C948      1.0  0.92227  0.59220  0.84018  1.0000
  C   C949      1.0  0.95649  0.58787  0.63437  1.0000
  C   C950      1.0  0.95377  0.61296  0.63551  1.0000
  C   C951      1.0  0.94075  0.62326  0.65538  1.0000
  C   C952      1.0  0.93019  0.60854  0.67428  1.0000
  C   C953      1.0  0.93235  0.58348  0.67278  1.0000
  C   C954      1.0  0.94543  0.57318  0.65297  1.0000
  H   H954      1.0  0.87214  0.69033  0.95400  1.0000
  H   H955      1.0  0.93927  0.64254  0.65628  1.0000
  H   H956      1.0  0.92419  0.57193  0.68727  1.0000
  S   S322      1.0  0.70634  0.71689  0.84111  1.0000
  S   S323      1.0  0.54107  0.57785  0.97206  1.0000
  Fe  Fe164     1.0  0.97565  0.49164  0.57947  1.0000
  H   H957      1.0  0.94786  0.58573  0.53407  1.0000
  C   C955      1.0  0.91623  0.52476  0.56957  1.0000
  H   H958      1.0  0.96597  0.58403  0.55941  1.0000
  C   C956      1.0  0.93357  0.53793  0.55599  1.0000
  H   H959      1.0  0.89962  0.56375  0.61233  1.0000
  Fe  Fe165     1.0  0.92525  0.70735  0.71761  1.0000
  S   S324      1.0  0.95150  0.60015  0.95649  1.0000
  H   H960      1.0  0.72915  0.63365  0.83919  1.0000
  S   S325      1.0  0.95177  0.65217  0.92472  1.0000
  C   C957      1.0  0.90883  0.55643  0.59634  1.0000
  C   C958      1.0  0.92610  0.56921  0.58218  1.0000
  C   C959      1.0  0.96663  0.56551  0.88277  1.0000
  N   N80       1.0  0.67176  0.62948  0.86315  1.0000
  C   C960      1.0  0.66045  0.64741  0.84889  1.0000
  C   C961      1.0  0.69609  0.62433  0.85969  1.0000
  C   C962      1.0  0.67362  0.66106  0.83095  1.0000
  C   C963      1.0  0.97735  0.55505  0.86210  1.0000
  N   N81       1.0  0.93858  0.55967  0.56260  1.0000
  C   C964      1.0  0.65790  0.61532  0.88204  1.0000
  H   H961      1.0  0.64124  0.65192  0.85188  1.0000
  H   H962      1.0  0.70510  0.61020  0.87106  1.0000
  H   H963      1.0  0.58050  0.70687  0.97374  1.0000
  C   C965      1.0  0.81726  0.71854  0.94381  1.0000
  Fe  Fe166     1.0  0.50459  0.63958  0.96067  1.0000
  H   H964      1.0  0.63892  0.62297  0.88479  1.0000
  H   H965      1.0  0.65785  0.59656  0.87724  1.0000
  H   H966      1.0  0.66576  0.61518  0.89958  1.0000
  C   C966      1.0  0.83783  0.70276  0.94077  1.0000
  S   S326      1.0  0.75383  0.69398  0.93575  1.0000
  H   H967      1.0  0.56983  0.66967  0.95790  1.0000
  C   C967      1.0  0.92442  0.61675  0.84114  1.0000
  C   C968      1.0  0.91171  0.58452  0.82098  1.0000
  C   C969      1.0  0.85597  0.70246  0.95627  1.0000
  H   H968      1.0  0.97072  0.56118  0.53898  1.0000
  C   C970      1.0  0.90564  0.62585  0.80464  1.0000
  S   S327      1.0  0.49616  0.55859  0.92860  1.0000
  H   H969      1.0  0.91291  0.50717  0.56460  1.0000
  C   C971      1.0  0.56110  0.68706  0.95195  1.0000
  C   C972      1.0  0.85298  0.71761  0.97501  1.0000
  S   S328      1.0  0.95707  0.48643  0.87246  1.0000
  C   C973      1.0  0.97485  0.53081  0.85887  1.0000
  H   H970      1.0  0.93292  0.66209  0.83573  1.0000
  H   H971      1.0  0.90080  0.66698  0.83348  1.0000
  H   H972      1.0  0.94330  0.53037  0.54036  1.0000
  C   C974      1.0  0.54379  0.68864  0.93542  1.0000
  H   H973      1.0  0.80300  0.71892  0.93186  1.0000
  S   S329      1.0  0.48084  0.67387  0.95293  1.0000
  S   S330      1.0  0.95868  0.47977  0.54776  1.0000
  C   C975      1.0  0.97670  0.58251  0.70789  1.0000
  C   C976      1.0  0.56706  0.70794  0.96087  1.0000
  H   H974      1.0  0.97106  0.70339  0.74909  1.0000
  H   H975      1.0  0.96836  0.52428  0.71076  1.0000
  C   C977      1.0  0.48501  0.70048  0.96587  1.0000
  H   H976      1.0  0.83582  0.72716  0.77058  1.0000
  S   S331      1.0  0.97449  0.57571  0.60982  1.0000
  S   S332      1.0  0.48717  0.60630  0.97520  1.0000
  S   S333      1.0  0.70380  0.95271  0.98017  1.0000
  C   C978      1.0  0.54337  0.88718  0.39733  1.0000
  H   H977      1.0  0.69795  0.89449  0.29945  1.0000
  H   H978      1.0  0.96351  0.87697  0.06645  1.0000
  S   S334      1.0  0.84816  0.95070  0.44318  1.0000
  Fe  Fe167     1.0  0.50209  0.97255  0.30898  1.0000
  S   S335      1.0  0.49346  0.93497  0.36990  1.0000
  S   S336      1.0  0.84525  0.96712  0.36914  1.0000
  H   H979      1.0  0.56540  0.89298  0.00001  1.0000
  H   H980      1.0  0.72853  0.73138  0.25910  1.0000
  C   C979      1.0  0.75602  0.74206  0.99707  1.0000
  S   S337      1.0  0.52063  0.93572  0.31572  1.0000
  H   H981      1.0  0.56606  0.86318  0.34940  1.0000
  Fe  Fe168     1.0  0.78515  0.87699  0.28811  1.0000
  S   S338      1.0  0.75138  0.89754  0.27587  1.0000
  S   S339      1.0  0.79897  0.88243  0.32450  1.0000
  Fe  Fe169     1.0  0.79048  0.84681  0.24384  1.0000
  S   S340      1.0  0.75788  0.86615  0.22868  1.0000
  S   S341      1.0  0.80873  0.81474  0.22518  1.0000
  Fe  Fe170     1.0  0.77176  0.89942  0.23939  1.0000
  S   S342      1.0  0.77044  0.93233  0.21297  1.0000
  Fe  Fe171     1.0  0.74073  0.86199  0.26637  1.0000
  S   S343      1.0  0.70219  0.85210  0.26932  1.0000
  S   S344      1.0  0.80620  0.88065  0.25169  1.0000
  S   S345      1.0  0.77264  0.84096  0.28152  1.0000
  S   S346      1.0  0.88854  0.92182  0.00318  1.0000
  H   H982      1.0  0.48592  0.88188  0.42121  1.0000
  S   S347      1.0  0.62657  0.75569  0.23304  1.0000
  S   S348      1.0  0.67867  0.74256  0.27542  1.0000
  C   C980      1.0  0.50423  0.83484  0.25206  1.0000
  S   S349      1.0  0.55878  0.75997  0.26073  1.0000
  Fe  Fe172     1.0  0.52778  0.94755  0.35152  1.0000
  S   S350      1.0  0.56454  0.93983  0.36579  1.0000
  S   S351      1.0  0.80778  0.73053  0.11213  1.0000
  H   H983      1.0  0.73603  0.93684  0.39090  1.0000
  Fe  Fe173     1.0  0.79341  0.76743  0.09826  1.0000
  S   S352      1.0  0.79044  0.80222  0.11669  1.0000
  C   C981      1.0  0.83550  0.94110  0.25207  1.0000
  H   H984      1.0  0.49886  0.92364  0.03296  1.0000
  S   S353      1.0  0.75793  0.75589  0.09055  1.0000
  S   S354      1.0  0.80937  0.76336  0.06021  1.0000
  C   C982      1.0  0.56247  0.93126  0.00214  1.0000
  H   H985      1.0  0.52405  0.88811  0.01927  1.0000
  C   C983      1.0  0.53334  0.75780  0.24521  1.0000
  C   C984      1.0  0.51064  0.76638  0.25522  1.0000
  H   H986      1.0  0.84058  0.96401  0.27966  1.0000
  C   C985      1.0  0.51667  0.92593  0.02416  1.0000
  H   H987      1.0  0.78734  0.73714  0.16824  1.0000
  H   H988      1.0  0.50906  0.77438  0.27222  1.0000
  Fe  Fe174     1.0  0.64612  0.73079  0.25966  1.0000
  H   H989      1.0  0.52279  0.85805  0.27088  1.0000
  H   H990      1.0  0.76729  0.76380  0.16222  1.0000
  C   C986      1.0  0.49337  0.74428  0.98321  1.0000
  H   H991      1.0  0.96234  0.86781  0.99836  1.0000
  C   C987      1.0  0.69537  0.91431  0.24835  1.0000
  S   S355      1.0  0.83442  0.97111  0.02369  1.0000
  C   C988      1.0  0.54769  0.95108  0.00976  1.0000
  C   C989      1.0  0.95849  0.92427  0.01649  1.0000
  C   C990      1.0  0.93421  0.93121  0.01300  1.0000
  C   C991      1.0  0.91990  0.91512  0.00470  1.0000
  C   C992      1.0  0.83814  0.96314  0.26076  1.0000
  C   C993      1.0  0.95479  0.88565  0.00205  1.0000
  H   H992      1.0  0.96922  0.93657  0.02361  1.0000
  H   H993      1.0  0.92651  0.94874  0.01743  1.0000
  H   H994      1.0  0.55792  0.89488  0.34145  1.0000
  C   C994      1.0  0.77161  0.97019  0.98515  1.0000
  C   C995      1.0  0.69601  0.82158  0.27079  1.0000
  C   C996      1.0  0.71330  0.80293  0.27688  1.0000
  C   C997      1.0  0.70751  0.77888  0.27885  1.0000
  C   C998      1.0  0.68467  0.77317  0.27406  1.0000
  C   C999      1.0  0.66749  0.79182  0.26764  1.0000
  C   C1000     1.0  0.67310  0.81592  0.26618  1.0000
  H   H995      1.0  0.73089  0.80706  0.28083  1.0000
  H   H996      1.0  0.72072  0.76469  0.28448  1.0000
  H   H997      1.0  0.64974  0.78771  0.26423  1.0000
  H   H998      1.0  0.65955  0.83023  0.26163  1.0000
  C   C1001     1.0  0.80529  0.81199  0.19445  1.0000
  C   C1002     1.0  0.79427  0.83079  0.18003  1.0000
  C   C1003     1.0  0.79074  0.82773  0.15599  1.0000
  C   C1004     1.0  0.79771  0.80571  0.14622  1.0000
  C   C1005     1.0  0.80935  0.78709  0.16038  1.0000
  C   C1006     1.0  0.81325  0.79030  0.18437  1.0000
  H   H999      1.0  0.78867  0.84779  0.18731  1.0000
  H   H1000     1.0  0.78225  0.84244  0.14498  1.0000
  H   H1001     1.0  0.81544  0.77031  0.15282  1.0000
  H   H1002     1.0  0.82227  0.77584  0.19526  1.0000
  C   C1007     1.0  0.77225  0.95973  0.22517  1.0000
  H   H1003     1.0  0.77646  0.94396  0.26134  1.0000
  C   C1008     1.0  0.83200  0.94345  0.35730  1.0000
  C   C1009     1.0  0.82410  0.94722  0.33393  1.0000
  C   C1010     1.0  0.81387  0.92892  0.32359  1.0000
  C   C1011     1.0  0.81144  0.90649  0.33652  1.0000
  C   C1012     1.0  0.81900  0.90289  0.36002  1.0000
  C   C1013     1.0  0.82918  0.92120  0.37037  1.0000
  H   H1004     1.0  0.71226  0.96748  0.41440  1.0000
  H   H1005     1.0  0.80785  0.93214  0.30567  1.0000
  H   H1006     1.0  0.81723  0.88565  0.37022  1.0000
  H   H1007     1.0  0.83518  0.91790  0.38830  1.0000
  C   C1014     1.0  0.76822  0.74446  0.16888  1.0000
  H   H1008     1.0  0.76947  0.95353  0.07144  1.0000
  C   C1015     1.0  0.50993  0.96902  0.02901  1.0000
  C   C1016     1.0  0.49766  0.90036  0.26213  1.0000
  S   S356      1.0  0.91032  0.94018  0.47562  1.0000
  S   S357      1.0  0.49374  0.84007  0.99350  1.0000
  C   C1017     1.0  0.57612  0.94156  0.44579  1.0000
  C   C1018     1.0  0.55275  0.94228  0.43848  1.0000
  C   C1019     1.0  0.54888  0.94301  0.41390  1.0000
  C   C1020     1.0  0.56845  0.94214  0.39648  1.0000
  C   C1021     1.0  0.59180  0.94146  0.40376  1.0000
  C   C1022     1.0  0.59563  0.94150  0.42829  1.0000
  H   H1009     1.0  0.53756  0.94248  0.45193  1.0000
  H   H1010     1.0  0.53079  0.94364  0.40852  1.0000
  C   C1023     1.0  0.74403  0.97113  0.04746  1.0000
  H   H1011     1.0  0.61370  0.94086  0.43372  1.0000
  C   C1024     1.0  0.50802  0.85703  0.25995  1.0000
  C   C1025     1.0  0.82927  0.74757  0.99862  1.0000
  H   H1012     1.0  0.87753  0.88695  0.05173  1.0000
  H   H1013     1.0  0.51615  0.73667  0.19498  1.0000
  C   C1026     1.0  0.76136  0.75616  0.21027  1.0000
  H   H1014     1.0  0.69879  0.74449  0.02552  1.0000
  C   C1027     1.0  0.89622  0.88462  0.05565  1.0000
  H   H1015     1.0  0.90405  0.94150  0.06261  1.0000
  H   H1016     1.0  0.67408  0.75909  0.20206  1.0000
  C   C1028     1.0  0.68323  0.90642  0.29149  1.0000
  H   H1017     1.0  0.78906  0.95205  0.45530  1.0000
  C   C1029     1.0  0.89281  0.92610  0.06704  1.0000
  H   H1018     1.0  0.51836  0.86940  0.35047  1.0000
  S   S358      1.0  0.63295  0.95798  0.98066  1.0000
  C   C1030     1.0  0.71371  0.95044  0.23265  1.0000
  N   N82       1.0  0.54140  0.88067  0.37468  1.0000
  H   H1019     1.0  0.87787  0.92928  0.05505  1.0000
  C   C1031     1.0  0.52003  0.87420  0.36854  1.0000
  S   S359      1.0  0.49608  0.96510  0.11145  1.0000
  H   H1020     1.0  0.82782  0.96076  0.19385  1.0000
  C   C1032     1.0  0.55401  0.90846  0.00575  1.0000
  C   C1033     1.0  0.83108  0.96157  0.21255  1.0000
  C   C1034     1.0  0.49185  0.75327  0.22195  1.0000
  H   H1021     1.0  0.82927  0.92333  0.22095  1.0000
  H   H1022     1.0  0.69139  0.76389  0.22603  1.0000
  H   H1023     1.0  0.68941  0.89710  0.24524  1.0000
  H   H1024     1.0  0.77984  0.93983  0.38078  1.0000
  C   C1035     1.0  0.48992  0.76411  0.24363  1.0000
  H   H1025     1.0  0.58033  0.93353  0.99334  1.0000
  N   N83       1.0  0.52504  0.94826  0.02046  1.0000
  H   H1026     1.0  0.75070  0.93479  0.45073  1.0000
  C   C1036     1.0  0.94443  0.87874  0.06400  1.0000
  S   S360      1.0  0.70186  0.94832  0.46743  1.0000
  H   H1027     1.0  0.93920  0.91515  0.07348  1.0000
  N   N84       1.0  0.90693  0.90322  0.06317  1.0000
  H   H1028     1.0  0.75475  0.76490  0.24728  1.0000
  Fe  Fe175     1.0  0.59346  0.73855  0.24901  1.0000
  H   H1029     1.0  0.67617  0.74943  0.12835  1.0000
  C   C1037     1.0  0.70170  0.94314  0.27508  1.0000
  C   C1038     1.0  0.77255  0.95899  0.46477  1.0000
  C   C1039     1.0  0.76925  0.95327  0.39096  1.0000
  H   H1030     1.0  0.51600  0.81890  0.25673  1.0000
  C   C1040     1.0  0.90947  0.86268  0.05187  1.0000
  C   C1041     1.0  0.52352  0.88761  0.41445  1.0000
  Fe  Fe176     1.0  0.87120  0.95976  0.00634  1.0000
  H   H1031     1.0  0.55268  0.74087  0.21540  1.0000
  N   N85       1.0  0.69319  0.92189  0.27106  1.0000
  C   C1042     1.0  0.93062  0.90037  0.06773  1.0000
  H   H1032     1.0  0.60704  0.94072  0.39040  1.0000
  Fe  Fe177     1.0  0.48474  0.92578  0.33325  1.0000
  H   H1033     1.0  0.90108  0.84823  0.04523  1.0000
  C   C1043     1.0  0.93042  0.89247  0.99889  1.0000
  N   N86       1.0  0.69966  0.78543  0.19348  1.0000
  C   C1044     1.0  0.71477  0.79989  0.20189  1.0000
  C   C1045     1.0  0.70008  0.78301  0.16934  1.0000
  C   C1046     1.0  0.73145  0.81179  0.18596  1.0000
  C   C1047     1.0  0.71661  0.79447  0.15293  1.0000
  C   C1048     1.0  0.73235  0.80896  0.16132  1.0000
  C   C1049     1.0  0.68241  0.77313  0.21045  1.0000
  H   H1034     1.0  0.71389  0.80234  0.22102  1.0000
  H   H1035     1.0  0.68739  0.77235  0.16269  1.0000
  H   H1036     1.0  0.74349  0.82323  0.19264  1.0000
  H   H1037     1.0  0.71710  0.79233  0.13378  1.0000
  H   H1038     1.0  0.74501  0.81814  0.14862  1.0000
  H   H1039     1.0  0.94445  0.84320  0.05235  1.0000
  H   H1040     1.0  0.66786  0.78632  0.21704  1.0000
  H   H1041     1.0  0.71903  0.97450  0.25910  1.0000
  S   S361      1.0  0.75534  0.76035  0.02105  1.0000
  H   H1042     1.0  0.82589  0.96445  0.32378  1.0000
  C   C1050     1.0  0.50160  0.88114  0.40830  1.0000
  H   H1043     1.0  0.56023  0.89261  0.40216  1.0000
  H   H1044     1.0  0.80992  0.75174  0.00443  1.0000
  N   N87       1.0  0.75700  0.74111  0.19358  1.0000
  H   H1045     1.0  0.57837  0.88604  0.36393  1.0000
  H   H1046     1.0  0.75139  0.93910  0.99359  1.0000
  C   C1051     1.0  0.75115  0.75299  0.23405  1.0000
  C   C1052     1.0  0.53091  0.90573  0.01666  1.0000
  C   C1053     1.0  0.93376  0.85982  0.05595  1.0000
  H   H1047     1.0  0.88518  0.92611  0.08608  1.0000
  C   C1054     1.0  0.53526  0.74726  0.22339  1.0000
  H   H1048     1.0  0.79934  0.97342  0.39467  1.0000
  H   H1049     1.0  0.50711  0.89801  0.27890  1.0000
  C   C1055     1.0  0.83197  0.94027  0.22781  1.0000
  H   H1050     1.0  0.70083  0.94873  0.29319  1.0000
  C   C1056     1.0  0.49983  0.87428  0.38523  1.0000
  H   H1051     1.0  0.51106  0.96963  0.04868  1.0000
  C   C1057     1.0  0.96886  0.90137  0.01126  1.0000
  C   C1058     1.0  0.77548  0.96042  0.24956  1.0000
  N   N88       1.0  0.83233  0.73233  0.97845  1.0000
  H   H1052     1.0  0.70794  0.92215  0.21094  1.0000
  H   H1053     1.0  0.52507  0.89341  0.43217  1.0000
  H   H1054     1.0  0.67352  0.91720  0.30559  1.0000
  H   H1055     1.0  0.75908  0.73513  0.15611  1.0000
  H   H1056     1.0  0.50853  0.91062  0.24774  1.0000
  Fe  Fe178     1.0  0.77519  0.74807  0.05400  1.0000
  H   H1057     1.0  0.48870  0.78096  0.08075  1.0000
  H   H1058     1.0  0.77286  0.77067  0.20533  1.0000
  H   H1059     1.0  0.83759  0.76470  0.99328  1.0000
  C   C1059     1.0  0.56198  0.88108  0.35648  1.0000
  H   H1060     1.0  0.73281  0.95619  0.04898  1.0000
  Fe  Fe179     1.0  0.88324  0.96282  0.45299  1.0000
  H   H1061     1.0  0.67028  0.89472  0.28567  1.0000
  Fe  Fe180     1.0  0.85549  0.97192  0.40717  1.0000
  N   N89       1.0  0.49317  0.87713  0.25416  1.0000
  C   C1060     1.0  0.76463  0.96959  0.05991  1.0000
  C   C1061     1.0  0.71197  0.95780  0.25592  1.0000
  H   H1062     1.0  0.83775  0.73833  0.01462  1.0000
  H   H1063     1.0  0.83581  0.92475  0.26420  1.0000
  C   C1062     1.0  0.68566  0.73405  0.13753  1.0000
  C   C1063     1.0  0.75082  0.94921  0.46227  1.0000
  C   C1064     1.0  0.75085  0.95770  0.98625  1.0000
  C   C1065     1.0  0.74465  0.95166  0.39653  1.0000
  C   C1066     1.0  0.78019  0.97216  0.39870  1.0000
  H   H1064     1.0  0.91953  0.87985  0.99251  1.0000
  C   C1067     1.0  0.51456  0.74504  0.21177  1.0000
  C   C1068     1.0  0.70568  0.92844  0.22883  1.0000
  H   H1065     1.0  0.71688  0.73483  0.11211  1.0000
  H   H1066     1.0  0.55450  0.96869  0.00696  1.0000
  C   C1069     1.0  0.48554  0.96707  0.20614  1.0000
  C   C1070     1.0  0.73652  0.73421  0.24070  1.0000
  H   H1067     1.0  0.48175  0.81616  0.23222  1.0000
  H   H1068     1.0  0.49084  0.96786  0.02576  1.0000
  H   H1069     1.0  0.78802  0.96122  0.99156  1.0000
  C   C1071     1.0  0.73130  0.96912  0.40972  1.0000
  H   H1070     1.0  0.48276  0.86979  0.37995  1.0000
  S   S362      1.0  0.50139  0.77160  0.99199  1.0000
  S   S363      1.0  0.64668  0.73521  0.17082  1.0000
  H   H1071     1.0  0.48048  0.91120  0.26651  1.0000
  H   H1072     1.0  0.72243  0.73710  0.06072  1.0000
  C   C1072     1.0  0.72915  0.95856  0.47389  1.0000
  C   C1073     1.0  0.48546  0.96434  0.24991  1.0000
  H   H1073     1.0  0.72202  0.96139  0.21767  1.0000
  C   C1074     1.0  0.48511  0.83331  0.23818  1.0000
  C   C1075     1.0  0.72942  0.96907  0.97790  1.0000
  H   H1074     1.0  0.69288  0.73116  0.98572  1.0000
  H   H1075     1.0  0.97760  0.73362  0.99937  1.0000
  S   S364      1.0  0.66262  0.94674  0.92961  1.0000
  C   C1076     1.0  0.52671  0.75496  0.92886  1.0000
  H   H1076     1.0  0.91351  0.82191  0.70482  1.0000
  N   N90       1.0  0.70121  0.89392  0.54322  1.0000
  S   S365      1.0  0.64477  0.93166  0.50627  1.0000
  Fe  Fe181     1.0  0.63957  0.95530  0.53699  1.0000
  H   H1077     1.0  0.95062  0.92646  0.55083  1.0000
  S   S366      1.0  0.64132  0.93827  0.57576  1.0000
  H   H1078     1.0  0.94835  0.91499  0.94179  1.0000
  Fe  Fe182     1.0  0.72180  0.74363  0.86103  1.0000
  H   H1079     1.0  0.88885  0.93872  0.57490  1.0000
  Fe  Fe183     1.0  0.66657  0.96084  0.48767  1.0000
  Fe  Fe184     1.0  0.77993  0.85824  0.69819  1.0000
  S   S367      1.0  0.75061  0.84347  0.68095  1.0000
  S   S368      1.0  0.81793  0.84044  0.69919  1.0000
  Fe  Fe185     1.0  0.74543  0.89851  0.71937  1.0000
  S   S369      1.0  0.71368  0.88590  0.70402  1.0000
  S   S370      1.0  0.73707  0.92761  0.74512  1.0000
  Fe  Fe186     1.0  0.72909  0.84862  0.71653  1.0000
  S   S371      1.0  0.70694  0.82021  0.73738  1.0000
  Fe  Fe187     1.0  0.73832  0.88234  0.67014  1.0000
  S   S372      1.0  0.73296  0.89884  0.63163  1.0000
  S   S373      1.0  0.75898  0.86168  0.73399  1.0000
  S   S374      1.0  0.76954  0.89684  0.68514  1.0000
  S   S375      1.0  0.60696  0.90784  0.95119  1.0000
  C   C1077     1.0  0.96671  0.94822  0.72581  1.0000
  S   S376      1.0  0.72620  0.78173  0.84477  1.0000
  C   C1078     1.0  0.70416  0.90983  0.52094  1.0000
  H   H1080     1.0  0.87994  0.84595  0.68501  1.0000
  S   S377      1.0  0.49958  0.88656  0.93618  1.0000
  H   H1081     1.0  0.69440  0.90366  0.50658  1.0000
  C   C1079     1.0  0.76507  0.96078  0.71911  1.0000
  S   S378      1.0  0.58014  0.94021  0.47687  1.0000
  C   C1080     1.0  0.67861  0.88880  0.55241  1.0000
  H   H1082     1.0  0.73619  0.74397  0.94086  1.0000
  N   N91       1.0  0.85323  0.95109  0.52887  1.0000
  H   H1083     1.0  0.92459  0.75001  0.66705  1.0000
  S   S379      1.0  0.95339  0.73404  0.70820  1.0000
  H   H1084     1.0  0.70146  0.94771  0.70810  1.0000
  C   C1081     1.0  0.69489  0.86585  0.58675  1.0000
  C   C1082     1.0  0.57687  0.90275  0.94700  1.0000
  C   C1083     1.0  0.56061  0.92079  0.93740  1.0000
  C   C1084     1.0  0.53696  0.91568  0.93432  1.0000
  C   C1085     1.0  0.52910  0.89274  0.94143  1.0000
  C   C1086     1.0  0.54522  0.87489  0.95151  1.0000
  C   C1087     1.0  0.78742  0.75530  0.74476  1.0000
  H   H1085     1.0  0.56637  0.93853  0.93196  1.0000
  H   H1086     1.0  0.52471  0.92959  0.92638  1.0000
  H   H1087     1.0  0.73325  0.86515  0.58742  1.0000
  C   C1088     1.0  0.72784  0.96137  0.65188  1.0000
  C   C1089     1.0  0.84607  0.93983  0.50837  1.0000
  C   C1090     1.0  0.88114  0.79425  0.65764  1.0000
  H   H1088     1.0  0.77122  0.94685  0.70732  1.0000
  H   H1089     1.0  0.69691  0.92848  0.52425  1.0000
  C   C1091     1.0  0.71423  0.80714  0.76618  1.0000
  C   C1092     1.0  0.73451  0.81278  0.77651  1.0000
  C   C1093     1.0  0.73867  0.80388  0.80024  1.0000
  C   C1094     1.0  0.72290  0.78878  0.81375  1.0000
  C   C1095     1.0  0.70324  0.78205  0.80309  1.0000
  C   C1096     1.0  0.69884  0.79136  0.77944  1.0000
  H   H1090     1.0  0.74681  0.82439  0.76652  1.0000
  H   H1091     1.0  0.75393  0.80916  0.80833  1.0000
  H   H1092     1.0  0.69081  0.77060  0.81344  1.0000
  H   H1093     1.0  0.68316  0.78674  0.77158  1.0000
  Fe  Fe188     1.0  0.62487  0.94324  0.94661  1.0000
  C   C1097     1.0  0.90562  0.75603  0.66374  1.0000
  H   H1094     1.0  0.50800  0.75336  0.92459  1.0000
  H   H1095     1.0  0.72327  0.91040  0.51379  1.0000
  C   C1098     1.0  0.66681  0.93016  0.59239  1.0000
  C   C1099     1.0  0.69003  0.93493  0.58297  1.0000
  C   C1100     1.0  0.70997  0.92603  0.59575  1.0000
  C   C1101     1.0  0.70698  0.91236  0.61812  1.0000
  C   C1102     1.0  0.68371  0.90850  0.62807  1.0000
  C   C1103     1.0  0.66376  0.91732  0.61522  1.0000
  H   H1096     1.0  0.69264  0.94508  0.56563  1.0000
  H   H1097     1.0  0.72788  0.92926  0.58795  1.0000
  H   H1098     1.0  0.68108  0.89801  0.64523  1.0000
  H   H1099     1.0  0.64586  0.91364  0.62274  1.0000
  C   C1104     1.0  0.93172  0.96168  0.54776  1.0000
  C   C1105     1.0  0.55542  0.73016  0.95320  1.0000
  C   C1106     1.0  0.96778  0.96296  0.96336  1.0000
  C   C1107     1.0  0.91904  0.94918  0.50294  1.0000
  C   C1108     1.0  0.93374  0.93314  0.51726  1.0000
  C   C1109     1.0  0.94010  0.93934  0.53956  1.0000
  H   H1100     1.0  0.71379  0.96143  0.88943  1.0000
  H   H1101     1.0  0.92526  0.78019  0.69458  1.0000
  H   H1102     1.0  0.93981  0.91560  0.51132  1.0000
  C   C1110     1.0  0.67510  0.87467  0.57424  1.0000
  C   C1111     1.0  0.83640  0.76015  0.69014  1.0000
  C   C1112     1.0  0.81690  0.77265  0.67910  1.0000
  C   C1113     1.0  0.81015  0.79696  0.68279  1.0000
  C   C1114     1.0  0.82302  0.80902  0.69743  1.0000
  C   C1115     1.0  0.84209  0.79633  0.70899  1.0000
  C   C1116     1.0  0.84881  0.77209  0.70529  1.0000
  H   H1103     1.0  0.80716  0.76360  0.66733  1.0000
  H   H1104     1.0  0.79558  0.80659  0.67357  1.0000
  H   H1105     1.0  0.85218  0.80554  0.72029  1.0000
  H   H1106     1.0  0.86401  0.76296  0.71368  1.0000
  Fe  Fe189     1.0  0.96826  0.96029  0.59815  1.0000
  C   C1117     1.0  0.91112  0.79085  0.68538  1.0000
  H   H1107     1.0  0.95957  0.94645  0.68887  1.0000
  C   C1118     1.0  0.90453  0.81442  0.69127  1.0000
  C   C1119     1.0  0.87419  0.81789  0.66301  1.0000
  C   C1120     1.0  0.88590  0.82797  0.68002  1.0000
  N   N92       1.0  0.53825  0.73148  0.93718  1.0000
  H   H1108     1.0  0.72864  0.97042  0.76996  1.0000
  H   H1109     1.0  0.52543  0.76770  0.94312  1.0000
  H   H1110     1.0  0.53956  0.85709  0.95684  1.0000
  C   C1121     1.0  0.84510  0.97435  0.53259  1.0000
  S   S380      1.0  0.96968  0.94459  0.63670  1.0000
  H   H1111     1.0  0.71177  0.92999  0.66891  1.0000
  C   C1122     1.0  0.96048  0.92625  0.94847  1.0000
  H   H1112     1.0  0.86155  0.93797  0.49460  1.0000
  H   H1113     1.0  0.96747  0.96216  0.47904  1.0000
  H   H1114     1.0  0.79588  0.76264  0.72775  1.0000
  C   C1123     1.0  0.81494  0.73353  0.96268  1.0000
  C   C1124     1.0  0.82711  0.73927  0.75640  1.0000
  S   S381      1.0  0.70261  0.73182  0.89698  1.0000
  H   H1115     1.0  0.73276  0.95347  0.63493  1.0000
  C   C1125     1.0  0.71605  0.94810  0.67102  1.0000
  C   C1126     1.0  0.74113  0.97412  0.75438  1.0000
  H   H1116     1.0  0.90327  0.75324  0.64474  1.0000
  Fe  Fe190     1.0  0.66942  0.96479  0.96218  1.0000
  H   H1117     1.0  0.58147  0.86567  0.96124  1.0000
  H   H1118     1.0  0.53716  0.76268  0.91259  1.0000
  C   C1127     1.0  0.86877  0.93835  0.54376  1.0000
  H   H1119     1.0  0.73206  0.75090  0.77425  1.0000
  H   H1120     1.0  0.83098  0.95058  0.49980  1.0000
  H   H1121     1.0  0.87112  0.78610  0.64535  1.0000
  N   N93       1.0  0.69384  0.84765  0.81224  1.0000
  C   C1128     1.0  0.71275  0.85074  0.82508  1.0000
  C   C1129     1.0  0.69201  0.85922  0.78971  1.0000
  C   C1130     1.0  0.73063  0.86553  0.81526  1.0000
  C   C1131     1.0  0.70947  0.87425  0.77944  1.0000
  C   C1132     1.0  0.72888  0.87740  0.79232  1.0000
  C   C1133     1.0  0.67478  0.83290  0.82320  1.0000
  H   H1122     1.0  0.71436  0.84130  0.84282  1.0000
  H   H1123     1.0  0.67722  0.85654  0.77934  1.0000
  H   H1124     1.0  0.74579  0.86764  0.82531  1.0000
  H   H1125     1.0  0.70811  0.88328  0.76151  1.0000
  H   H1126     1.0  0.74259  0.88894  0.78440  1.0000
  H   H1127     1.0  0.68193  0.81835  0.83627  1.0000
  H   H1128     1.0  0.66044  0.84430  0.83280  1.0000
  H   H1129     1.0  0.66688  0.82392  0.80929  1.0000
  N   N94       1.0  0.80102  0.74291  0.76168  1.0000
  H   H1130     1.0  0.75700  0.96965  0.93139  1.0000
  C   C1134     1.0  0.71789  0.87110  0.57727  1.0000
  C   C1135     1.0  0.74893  0.95586  0.73919  1.0000
  C   C1136     1.0  0.92738  0.95784  0.95246  1.0000
  C   C1137     1.0  0.56903  0.87977  0.95388  1.0000
  C   C1138     1.0  0.91155  0.97185  0.51079  1.0000
  S   S382      1.0  0.93479  0.96848  0.57754  1.0000
  S   S383      1.0  0.84504  0.72995  0.68415  1.0000
  H   H1131     1.0  0.83138  0.73078  0.73914  1.0000
  C   C1139     1.0  0.71001  0.95816  0.69287  1.0000
  H   H1132     1.0  0.72228  0.95434  0.91970  1.0000
  C   C1140     1.0  0.72074  0.88530  0.55536  1.0000
  H   H1133     1.0  0.79893  0.74581  0.96486  1.0000
  C   C1141     1.0  0.74467  0.73680  0.95693  1.0000
  H   H1134     1.0  0.69237  0.85572  0.60420  1.0000
  H   H1135     1.0  0.84007  0.92172  0.51428  1.0000
  H   H1136     1.0  0.83510  0.75678  0.75497  1.0000
  N   N95       1.0  0.89959  0.78119  0.66857  1.0000
  H   H1137     1.0  0.65704  0.87158  0.58189  1.0000
  H   H1138     1.0  0.87607  0.92031  0.54014  1.0000
  Fe  Fe191     1.0  0.61290  0.95312  0.49106  1.0000
  C   C1142     1.0  0.76241  0.75860  0.74911  1.0000
  H   H1139     1.0  0.75711  0.72962  0.80536  1.0000
  C   C1143     1.0  0.75143  0.74894  0.77084  1.0000
  H   H1140     1.0  0.92575  0.96695  0.93408  1.0000
  H   H1141     1.0  0.55988  0.74630  0.96045  1.0000
  H   H1142     1.0  0.66300  0.89642  0.54340  1.0000
  C   C1144     1.0  0.76547  0.73693  0.78825  1.0000
  N   N96       1.0  0.95239  0.94865  0.95516  1.0000
  H   H1143     1.0  0.73859  0.88995  0.54856  1.0000
  C   C1145     1.0  0.87603  0.94861  0.56344  1.0000
  H   H1144     1.0  0.75161  0.76857  0.73574  1.0000
  H   H1145     1.0  0.85895  0.82792  0.65505  1.0000
  Fe  Fe192     1.0  0.48017  0.85741  0.95920  1.0000
  S   S384      1.0  0.60526  0.97410  0.52364  1.0000
  H   H1146     1.0  0.91519  0.94309  0.95559  1.0000
  H   H1147     1.0  0.89366  0.74454  0.67574  1.0000
  C   C1146     1.0  0.86775  0.97224  0.56748  1.0000
  H   H1148     1.0  0.73717  0.76958  0.97462  1.0000
  H   H1149     1.0  0.92102  0.97094  0.96589  1.0000
  C   C1147     1.0  0.71936  0.96926  0.90537  1.0000
  C   C1148     1.0  0.79043  0.73427  0.78342  1.0000
  C   C1149     1.0  0.97011  0.93867  0.70342  1.0000
  H   H1150     1.0  0.95341  0.96333  0.72820  1.0000
  C   C1150     1.0  0.72953  0.97695  0.48900  1.0000
  H   H1151     1.0  0.96893  0.96816  0.76586  1.0000
  H   H1152     1.0  0.96347  0.93841  0.77956  1.0000
  C   C1151     1.0  0.74526  0.75125  0.97605  1.0000
  C   C1152     1.0  0.97631  0.94902  0.76763  1.0000
