data_image0
_chemical_formula_structural       SNC2SFeH2CSCHSH3CH2CH3CH3FeHC3H2S2HNFeS2FeS2FeSFeS3C6H3C3H2CHCH3CHC3SH4CH2C2HC3HCHCNHSCH2C2SHSCFeHC3HC10H6FeC3H2NCH4C2HNHCFeCH3CSH6CSC2HCHCH2CHSFeSFeS2FeS2FeSFeS3FeS2FeS2FeSFeHS2C2FeHSHNCSHCSCH7SCH2FeC6H3C6H4C6FeCH2C6H4CHCH2SHC2HCH2CH4CFeHC5HFeH3C5H2SHC2FeH6CHCHCFeHSHFeH2CNC6H9SCH2C4HNC6H9C2H3C2NHCFeHC2NC2NC2HCSC2H2NH2NHC2S2HCHSHC3H2CH2FeSC2NCH3SCNH2CHC2NCSCHCSH3FeCHC2FeCH2C2H4CHCHSH4SHC2SFeHCH4SHC3HCSHFeS2FeS2FeSFeS3FeS2FeCHFeSCS2C2SCFeSHC2HC3HSHCNCHCHCHC6H4SCHC3HCH3C7H4SC6H2CHNC6H10CH2CH2CH2C3HNC4H3NCHC3FeCHC3HFeC5FeH5S2H4FeCS2HN2CH2FeC2H2SCHSH2CHFeSHSNSC3HCHC2H2C2HCH2SFeHC4HCHCSH10SHCHCH2CH2SCHCHCHS2CSFeSCSCSH2SCHCFeS2FeS2FeSFeHS2CSHCHCH3SHNC6H2CHC6H4C6H5C3H2SHSCHSHCHS2CHCH2C6H4C7H3SNSC2HCHCFeHC3NHC4NCH5CH3FeSCHCFeH2C2HCHCFeSH2SC2SCHCFeC2FeHC3SFeHCHSC4NFeC4SFeCFeHSC2SCSCNC6H8SH2CHC3H5CFeSFeH2NC4HSCHC2NHCH2FeCH2S2CHSNCFeSCHCHFeHCSCH4C2HCHCH5SC2H2CHSH9C4NH2CHC2HC2H2SH5FeS2FeS2FeSFeCS2H2CFeSCFeS2FeSFeCS2CSC6HFeS2FeS2FeSFeCS2HCHC5HFeHCHCH2SNSHCHFeSC5HC4HC5HC2SC7H4NCH7C6HNH2C6H5C3SCHC3H4CNC3H2CH8CHSNHC2H2S2CH3CNH2SCHCHFeC2SC2H2C2H2SCH2FeHC2HNH2CHCHCHSFeCS2CSH3CHCHCHCFeC2NC2H2C2HSHCHCNCFeCHS2C2HSHCH3SH3C2HCSHC4FeHCH3CHCH2C2FeC2FeHCSCHNH4FeC2HCHCH2C2H2CH3C3H4SCSHC2SNCH2CH2C2NFeH2SCH5C2H3CH4CH2NC4FeS2FeSHFeCFeS3HNCHC2H2CH3NHC2FeHSFeS2FeSFe2S2H3NHSH2C2H2C2H2CHC2H2C3H3C7H2CSCHC2HCH6CHCNH2C7H4SH2CHC2HC4HCSH4NCH2C2HS2CH2C3HC2HCHC2SH2SC2HC2HSHC2H4CH2SHCHCHCH3C4H3SC2HS2FeS2FeSFeSFeCFeS2FeHFeS2CHCHSFeSFeS2FeNS2FeS7C4H2C6H4C4H4CHCFeHCH2CSCHSHC7H4C2HC3H3C2HC6H4C7H3C3HFe2H2FeCNC3HC2HCHNH2FeCH2NC6H9CHCNCHSHC2HCFeNC2HCNC5H6NC6H8NC3H6CNH3C3SHSC2HSCHFeCHS2HCS2NHC6HCFeHC2SFeSFe2CSCH2FeHC3H2C2FeHCSCHCHSC2SC2SHSFeHCSCHCHS2CHFeCS3Fe2C2HS2HCHCSCSHCNHSHFeCSCH3S2H2FeC2SH2C3H3FeC2SHCFeHCH5SCH2C2H2FeCHSCHC3HCH2CH3CH2CH2CHCS2NSH2C2NFeHC2HCHC2H2CSHFeCH3CHC4NHS2HC3HCH2CH4C3H3SHNCH2CHCHSHC3FeCSNS2FeS2FeS2FeSFeS3HSCHSC2FeSFe2SHCFeS5H2S2HCHFeHCH2SH5C2HFeCHCS2HNHCH3CNHSCHNCHCHSC5H2CHC3H2C3H2C4NH2C6H4C6H4FeCHC6H4C8HCFeHCHSCHSNCHFeCHC3SH3CHCHC9HSCH3CH2FeHC2HC4H2FeN2HCSCH4SFeCHCH2CSH2CNH3NCHC3NH3CHC3H2FeSC2HCSHCHSHCFeHCHFeH2CH2NHCSFeCH2C2FeCHSFeHFeC2FeS2HCHS2H2S2H2C2H3CHCSC2H3CHCHCH3FeCHCH3C3H3CH4SFeHNCH2C3HC3SHFeCNHSH3NHCHCH2NH2CHC2FeHFeS2HCH3CH4SC3HNFeSHCHC2HCHCHSHC6H4CHCSCHCNC2HCSCHC2SC3HCHSCHSHCH3SCSC2H2CH3SHC2SH2C2FeS2FeSFeS2FeCSFeCFeC2FeSH2C2SCFeS2FeS2FeSFeS3C6H4C6H6C3HC7H4C6H4SCHNC7HNH2CSHCHCSH3FeHC3NCFeHCH2SN2C5FeH7CH3SH5SCH2CNHC4H2C2HC2HCFeC4HC2HCHC2SHCHC2S2NCH3C3HC2H4NC6H2FeH4C2SH2CS2HC2HC3HCHCS2CHCH2NCHC2H2FeH2FeH3S3CFeH2SH3SHCH2CFeH2CHCH2CHCHSCH2C3H2C2H5SHC2H4SHC2HFeC2FeSC3NH2C2H3FeSNFeSFeHFeS2H2CSCS2C2HCSCHFeCHCH2SHCSH2C3HSCHCH2C5H2CH3CH4CH2C3NC4NSCFeS2HC2SC3SCFeSCH2FeS2FeS2FeSFeS3FeS2FeS2FeSFeS3C6NH3C6H4C2SC3H4C4HCH2NC6H4CNH6C4FeH4S3CHSC5HC3H3NCSC2HNHFeSH3CH2CHCH3CH7CSFe2SCHCSCHSHCHC3SNH2CFeH2CHFeCH2FeH3CHCHCHCHCH4C2HSHSC3SNH2C2FeCSHNH5SHC2HCHSCHCHCH3C3H2C2H2C4HSH2C2HFeCFeNSH2C4H6C3H2C2HFeCHCHCH4C2HSCH5CHCNSCH3SCHSHFeH2SCFeSH2C2FeS2FeS2FeSFeS3H3C2NC2H3CNH2CH2NFeHCHFeCSHSHCH3CHSCH2CH4C4HCH4C7H4CHC2HCHC4NSHC3HC6HSH2CH2C6H3CHCSHFeCSNH2S2H5CHC2H2CHCHSCHC4FeCFeS2FeS2FeSFeS3HSH2SHSFeS2H2C2HSFeS2C2H4C6H3SCHC8H2C3H2C6H4C6H4CSCHSCH2FeC7H3SCHCH2FeC2H3CH3NCHCH2C2FeNHFeSH2CH2SHCFeHFeC3SHNC6H8C2SFeCHCH3C3HCFeHS2CHC2SH3SCNCH2C2H2C2Fe2CH3CH2FeSHCHCNHSHC3H4NH2SFeC2H2C2SH2CHCHNSC3H2CH2C2H3C4SH2SHSNC2SHC2HCHSHC3HC3H2C2HC3HCHSCSCHNSFeH5SHFeSHFeS2HFeSFeSFeS2FeSHFeSFeS3C7H3C6H4FeHC4SH2C6H4FeCHCNHC4H2CHCHS2C2H2C2SCH3SC3SNC6H4CHCHNCHCH7CH2SCHCS2H2CFeHSHC3SNC5SFeHCH4C3H2SCNC5H2CHCH3NHFeHC2HCH4CH3C3H2FeH2CFeCSH2FeSCHCHC2H2C3SFeC2SHCHCHCH2CH2CH2CS2CNHC2HCHCHC3H2CH2CH3FeS2FeCHFeHFeS3C2HCH2SH2CHFeS2FeSHFeHFeS3CHC2HSFeCNH5CHSH2C3HC6H6CHCSHNHC3HC4H2CNC4HCSHCHC3HCHC2NHCH5C2H3CH4CHCN2S2FeS2HCFeS2FeSHNS2CSNFeS2FeSFeS3FeS2FeSHFeSFeS3CSC2H2FeHCSH2C3FeHCH3C2HCHCHSCHC6H2SHC2H2C2H4FeHFeC2HC2HCHC6H4C6H4FeHCHCH2CNHSCH7C4FeHCHCHC2SHC2H2NSHC4H3CNC5H2CHC2HC3HNH2CHC2H3S2HSHCHCNH4CHC2HC2SHNC6H2FeSH3C2HCHC2SHSCHC4H4NCHC6SFe2CHC2H4CH2SH2SHFeHC2SFeH2CFeSCH3SHC4HSHC3SH2C2HCH4C3H2FeHCHCH2C4HFeNHC3H2C2HC3H2S2C2HFeSHC3SCHSH2SC2FeHSFeS2H2CFeS3FeS3CFeS2FeSFeSFeS5FeSC5H2C5H5C6H4SHC4H2CFeH2C6HFeHC4SHCNCH2CHC4SCH2C2SCHC6H4C3H2SHFeH2CH5NSFe2HNC6H4NH10CHCFeC2SH2SCSHSH3SHSH3SHNHNCHC3NC6H2CNCH3NC6H7NC5FeHCHCHSH2FeC2H2C3FeC4Fe2H4S2CS2FeC2FeCHC2SFeC2FeSC2HCSFeCFeCHSCH2NH3FeSFeH2Fe2CNC2SCH2FeHNH2CHCHCSHSHCFeHCHCHCSC2S2HC3HCHCSCHSHSH3C6NH2CNSHSH2SH3CH5C2HC2HC3SC2H4C4HFeCH2CHCHCHC3HCSCHC3NCSC2NC2HCH2CHC2HCHCSHC3H2SCH2SCHC3SHCH4SH2CH3CHCH2SH2C2HCH4CH3CHCHC6HC3H3CHNHSH2CNH3SC4H2CHC3SCHCH2C2SCHCH4CH4C5H4CHCS3CFeSH2SHC2SC2SFeSHS2CH2C2H2CHCHC5HNHFeHC3HCNCH2FeSHCSCHC4HSCH3CHC3H7CNH3CSHC7H4CH2FeH2FeC2H3NHC2H2CNH3SHFeSH2FeSFeSNFeS2HSCSCSCFeH2S2H2CHSC2SFeS2FeS2FeSFeS3CFeH2CSC7H2CHC6HCH3CHC6H5C7H3SNSH3N2FeHCHSNHSC2H5C6H2CHSHFeHSC6H4C4H2NC5H5SCNC5SFeHCH5CH2CH4FeH4S2H2C3H3CHSHC2HC3SC2HCH3FeSFeHCFeHC3H2FeHSH2SFeSCSH2FeCHCHSCH3FeCNH2SCH2CNHCH2FeCSC3HCHC2HNHCSH2CH3CH2SC2HC4NC2H2CSHFeCH4CHFeCHCHC2HSHC4HFeSH3CHFeS2C3HNHCHSFe2C2S2CSHCHSCSHFeHCHCNH4CSHC2FeS2HSFe2S3HC3SHC3SHCFeCFeS3H2SH2FeS2FeS2FeSFeS3CH2SHCSHCH2C5H2C6H4C2H2C6H4C5HC2HC2HSC6H4FeNH5Fe2C2H2C3HSCH4C2HFeCFeHCNSCH2CSCFeHCSHFeCHFeCSH2FeHC2NC2SCHSHCHSH3CSCH3CH2C2H2C2H2CSCHSH3CHCH2FeCHNCHNC2SHSN2C6H8C2SHC2SC3H5SC3HFeH2C3HCH3C2HCHCH3C2FeSNC3HNFeHCHC2HCH2CHCH3CHSH2C4NCSCFeCH2
_chemical_formula_sum              "S768 N192 C2304 Fe384 H2304"
_cell_length_a       67.498
_cell_length_b       67.2298
_cell_length_c       67.216
_cell_angle_alpha    75.3281
_cell_angle_beta     75.2637
_cell_angle_gamma    75.3166

_space_group_name_H-M_alt    "P 1"
_space_group_IT_number       1

loop_
  _space_group_symop_operation_xyz
  'x, y, z'

loop_
  _atom_site_type_symbol
  _atom_site_label
  _atom_site_symmetry_multiplicity
  _atom_site_fract_x
  _atom_site_fract_y
  _atom_site_fract_z
  _atom_site_occupancy
  S   S1        1.0  0.16320  0.10115  0.43292  1.0000
  N   N1        1.0  0.16804  0.07237  0.35538  1.0000
  C   C1        1.0  0.00628  0.13740  0.25337  1.0000
  C   C2        1.0  0.19521  0.99647  0.36811  1.0000
  S   S2        1.0  0.20820  0.01926  0.38921  1.0000
  Fe  Fe1       1.0  0.20263  0.02995  0.42001  1.0000
  H   H1        1.0  0.00003  0.03661  0.41644  1.0000
  H   H2        1.0  0.17480  0.06084  0.38591  1.0000
  C   C3        1.0  0.00823  0.26063  0.07790  1.0000
  S   S3        1.0  0.05805  0.11792  0.48435  1.0000
  C   C4        1.0  0.15774  0.09130  0.34588  1.0000
  H   H3        1.0  0.23120  0.24521  0.47774  1.0000
  S   S4        1.0  0.09524  0.06471  0.47623  1.0000
  H   H4        1.0  0.12368  0.02226  0.42992  1.0000
  H   H5        1.0  0.02528  0.08751  0.42829  1.0000
  H   H6        1.0  0.11537  0.09543  0.44916  1.0000
  C   C5        1.0  0.14607  0.09228  0.33105  1.0000
  H   H7        1.0  0.04895  0.13905  0.29938  1.0000
  H   H8        1.0  0.09547  0.00389  0.43135  1.0000
  C   C6        1.0  0.09940  0.14425  0.45857  1.0000
  H   H9        1.0  0.13562  0.99757  0.44456  1.0000
  H   H10       1.0  0.05188  0.11148  0.30162  1.0000
  H   H11       1.0  0.17118  0.28690  0.02253  1.0000
  C   C7        1.0  0.03362  0.11421  0.27019  1.0000
  H   H12       1.0  0.11540  0.06260  0.26177  1.0000
  H   H13       1.0  0.17521  0.03919  0.35806  1.0000
  H   H14       1.0  0.99953  0.16945  0.25725  1.0000
  Fe  Fe2       1.0  0.17989  0.02423  0.46541  1.0000
  H   H15       1.0  0.06011  0.99433  0.32289  1.0000
  C   C8        1.0  0.05202  0.12663  0.29012  1.0000
  C   C9        1.0  0.02445  0.15017  0.27262  1.0000
  C   C10       1.0  0.01128  0.09313  0.43909  1.0000
  H   H16       1.0  0.02105  0.24979  0.08514  1.0000
  H   H17       1.0  0.15817  0.10578  0.34997  1.0000
  S   S5        1.0  0.09682  0.29424  0.02544  1.0000
  S   S6        1.0  0.21258  0.01135  0.45001  1.0000
  H   H18       1.0  0.10200  0.00031  0.26686  1.0000
  N   N2        1.0  0.10402  0.00909  0.45777  1.0000
  Fe  Fe3       1.0  0.08865  0.11102  0.35983  1.0000
  S   S7        1.0  0.09809  0.07697  0.35811  1.0000
  S   S8        1.0  0.10971  0.13082  0.36238  1.0000
  Fe  Fe4       1.0  0.04552  0.11605  0.34978  1.0000
  S   S9        1.0  0.05112  0.08223  0.34793  1.0000
  S   S10       1.0  0.01769  0.14086  0.34122  1.0000
  Fe  Fe5       1.0  0.06534  0.07591  0.37630  1.0000
  S   S11       1.0  0.05866  0.05056  0.40454  1.0000
  Fe  Fe6       1.0  0.08306  0.08661  0.33006  1.0000
  S   S12       1.0  0.09566  0.08032  0.29765  1.0000
  S   S13       1.0  0.05680  0.10953  0.37999  1.0000
  S   S14       1.0  0.07666  0.12079  0.33011  1.0000
  C   C11       1.0  0.08465  0.06133  0.45636  1.0000
  C   C12       1.0  0.09655  0.06261  0.43592  1.0000
  C   C13       1.0  0.08839  0.05970  0.41991  1.0000
  C   C14       1.0  0.06860  0.05470  0.42449  1.0000
  C   C15       1.0  0.05687  0.05295  0.44504  1.0000
  C   C16       1.0  0.06473  0.05664  0.46090  1.0000
  H   H19       1.0  0.11202  0.06599  0.43243  1.0000
  H   H20       1.0  0.09758  0.06091  0.40410  1.0000
  H   H21       1.0  0.04151  0.04921  0.44859  1.0000
  C   C17       1.0  0.07161  0.99958  0.45923  1.0000
  C   C18       1.0  0.01788  0.04269  0.38495  1.0000
  C   C19       1.0  0.15960  0.31450  0.00094  1.0000
  H   H22       1.0  0.02635  0.16300  0.27858  1.0000
  H   H23       1.0  0.12234  0.00564  0.32451  1.0000
  C   C20       1.0  0.12710  0.02986  0.27308  1.0000
  H   H24       1.0  0.13348  0.02661  0.25747  1.0000
  C   C21       1.0  0.00930  0.15395  0.26052  1.0000
  H   H25       1.0  0.01595  0.10437  0.25305  1.0000
  H   H26       1.0  0.10851  0.01385  0.48633  1.0000
  H   H27       1.0  0.02825  0.10005  0.45897  1.0000
  C   C22       1.0  0.01944  0.01807  0.36371  1.0000
  H   H28       1.0  0.00760  0.25562  0.06356  1.0000
  C   C23       1.0  0.00416  0.11529  0.32340  1.0000
  C   C24       1.0  0.00221  0.13558  0.32645  1.0000
  C   C25       1.0  0.09101  0.00410  0.44800  1.0000
  S   S15       1.0  0.21342  0.05856  0.42161  1.0000
  H   H29       1.0  0.07488  0.14788  0.41895  1.0000
  H   H30       1.0  0.01525  0.10246  0.33022  1.0000
  H   H31       1.0  0.07483  0.00707  0.27896  1.0000
  H   H32       1.0  0.13743  0.10730  0.32405  1.0000
  C   C26       1.0  0.00553  0.03138  0.40160  1.0000
  H   H33       1.0  0.19711  0.06489  0.36511  1.0000
  H   H34       1.0  0.02492  0.01302  0.34881  1.0000
  C   C27       1.0  0.10851  0.05458  0.29556  1.0000
  C   C28       1.0  0.11054  0.03853  0.31331  1.0000
  H   H35       1.0  0.09253  0.11035  0.42327  1.0000
  C   C29       1.0  0.12907  0.01371  0.29068  1.0000
  C   C30       1.0  0.15768  0.29629  0.01632  1.0000
  C   C31       1.0  0.11685  0.05021  0.27550  1.0000
  H   H36       1.0  0.10408  0.04187  0.32886  1.0000
  C   C32       1.0  0.18032  0.07133  0.37090  1.0000
  H   H37       1.0  0.03469  0.04455  0.35287  1.0000
  C   C33       1.0  0.12466  0.01281  0.44592  1.0000
  N   N3        1.0  0.03619  0.13044  0.27747  1.0000
  H   H38       1.0  0.07929  0.16977  0.44184  1.0000
  S   S16       1.0  0.18768  0.05256  0.47089  1.0000
  C   C34       1.0  0.12084  0.01803  0.31085  1.0000
  H   H39       1.0  0.13700  0.27595  0.03550  1.0000
  H   H40       1.0  0.05553  0.05540  0.47669  1.0000
  C   C35       1.0  0.16712  0.05416  0.35040  1.0000
  C   C36       1.0  0.19343  0.00167  0.38756  1.0000
  S   S17       1.0  0.16933  0.04060  0.43536  1.0000
  H   H41       1.0  0.15489  0.04008  0.33168  1.0000
  S   S18       1.0  0.04447  0.32363  0.00896  1.0000
  C   C37       1.0  0.09827  0.00966  0.47869  1.0000
  Fe  Fe7       1.0  0.18053  0.06777  0.43906  1.0000
  H   H42       1.0  0.04304  0.09861  0.27403  1.0000
  C   C38       1.0  0.01851  0.11740  0.25819  1.0000
  C   C39       1.0  0.13838  0.29009  0.02364  1.0000
  C   C40       1.0  0.12082  0.30234  0.01596  1.0000
  H   H43       1.0  0.17900  0.08697  0.37440  1.0000
  C   C41       1.0  0.14522  0.07380  0.32571  1.0000
  C   C42       1.0  0.08442  0.14111  0.43074  1.0000
  C   C43       1.0  0.99683  0.29206  0.02913  1.0000
  C   C44       1.0  0.08698  0.15337  0.44350  1.0000
  C   C45       1.0  0.14926  0.10837  0.41260  1.0000
  C   C46       1.0  0.14486  0.12954  0.40296  1.0000
  C   C47       1.0  0.13284  0.13611  0.38746  1.0000
  C   C48       1.0  0.12456  0.12168  0.38197  1.0000
  C   C49       1.0  0.12873  0.10044  0.39169  1.0000
  C   C50       1.0  0.14135  0.09375  0.40684  1.0000
  H   H44       1.0  0.15083  0.14091  0.40745  1.0000
  H   H45       1.0  0.12970  0.15252  0.37991  1.0000
  H   H46       1.0  0.12230  0.08923  0.38751  1.0000
  H   H47       1.0  0.14441  0.07745  0.41451  1.0000
  H   H48       1.0  0.01196  0.27659  0.07272  1.0000
  H   H49       1.0  0.13605  0.07434  0.31434  1.0000
  Fe  Fe8       1.0  0.21997  0.04120  0.45343  1.0000
  C   C51       1.0  0.08936  0.99488  0.27979  1.0000
  C   C52       1.0  0.10697  0.11157  0.44803  1.0000
  C   C53       1.0  0.01298  0.10032  0.45642  1.0000
  H   H50       1.0  0.01095  0.29736  0.02023  1.0000
  H   H51       1.0  0.17931  0.99588  0.42048  1.0000
  N   N4        1.0  0.10899  0.12352  0.46083  1.0000
  C   C54       1.0  0.09434  0.12003  0.43312  1.0000
  H   H52       1.0  0.02200  0.05658  0.38695  1.0000
  H   H53       1.0  0.10118  0.15376  0.46861  1.0000
  H   H54       1.0  0.99407  0.13995  0.24463  1.0000
  H   H55       1.0  0.06786  0.12592  0.27990  1.0000
  C   C55       1.0  0.15573  0.05457  0.33550  1.0000
  C   C56       1.0  0.00035  0.01346  0.39892  1.0000
  H   H56       1.0  0.12396  0.09696  0.48075  1.0000
  N   N5        1.0  0.00734  0.00703  0.38011  1.0000
  H   H57       1.0  0.00107  0.12316  0.38691  1.0000
  C   C57       1.0  0.12216  0.11433  0.47648  1.0000
  Fe  Fe9       1.0  0.06974  0.32148  0.02596  1.0000
  C   C58       1.0  0.02494  0.03600  0.36587  1.0000
  H   H58       1.0  0.06117  0.99607  0.45131  1.0000
  H   H59       1.0  0.00060  0.26828  0.01131  1.0000
  H   H60       1.0  0.13120  0.02162  0.45381  1.0000
  C   C59       1.0  0.06573  0.99987  0.48064  1.0000
  S   S19       1.0  0.01974  0.99375  0.31779  1.0000
  H   H61       1.0  0.20491  0.00392  0.35421  1.0000
  H   H62       1.0  0.13796  0.11809  0.47001  1.0000
  H   H63       1.0  0.09384  0.99355  0.29496  1.0000
  H   H64       1.0  0.08131  0.28470  0.99428  1.0000
  H   H65       1.0  0.99435  0.15074  0.38545  1.0000
  H   H66       1.0  0.23790  0.08392  0.45328  1.0000
  C   C60       1.0  0.99493  0.10823  0.47008  1.0000
  S   S20       1.0  0.18388  0.32196  0.99242  1.0000
  C   C61       1.0  0.12274  0.32051  0.00043  1.0000
  C   C62       1.0  0.18088  0.99195  0.40544  1.0000
  H   H67       1.0  0.17641  0.11472  0.80880  1.0000
  C   C63       1.0  0.07889  0.29542  0.93572  1.0000
  H   H68       1.0  0.23543  0.23962  0.54172  1.0000
  C   C64       1.0  0.23662  0.31306  0.85422  1.0000
  H   H69       1.0  0.16413  0.23234  0.84466  1.0000
  H   H70       1.0  0.11513  0.12047  0.49116  1.0000
  C   C65       1.0  0.09777  0.29322  0.94185  1.0000
  H   H71       1.0  0.21717  0.15144  0.55344  1.0000
  S   S21       1.0  0.22058  0.05537  0.71213  1.0000
  Fe  Fe10      1.0  0.19324  0.04547  0.70751  1.0000
  S   S22       1.0  0.16035  0.06050  0.72024  1.0000
  Fe  Fe11      1.0  0.19484  0.17274  0.77556  1.0000
  S   S23       1.0  0.16056  0.17420  0.78722  1.0000
  S   S24       1.0  0.21343  0.17282  0.79867  1.0000
  Fe  Fe12      1.0  0.19252  0.17472  0.73092  1.0000
  S   S25       1.0  0.15781  0.17700  0.73825  1.0000
  S   S26       1.0  0.21418  0.17264  0.69979  1.0000
  Fe  Fe13      1.0  0.15718  0.19923  0.75857  1.0000
  S   S27       1.0  0.13216  0.22790  0.76310  1.0000
  Fe  Fe14      1.0  0.16427  0.15187  0.76627  1.0000
  S   S28       1.0  0.14751  0.12511  0.77838  1.0000
  S   S29       1.0  0.19144  0.19959  0.74827  1.0000
  S   S30       1.0  0.19912  0.14767  0.75750  1.0000
  Fe  Fe15      1.0  0.16957  0.19741  0.56441  1.0000
  S   S31       1.0  0.13657  0.21433  0.57367  1.0000
  S   S32       1.0  0.18493  0.20430  0.53035  1.0000
  Fe  Fe16      1.0  0.17025  0.17122  0.60822  1.0000
  S   S33       1.0  0.13731  0.18620  0.62103  1.0000
  S   S34       1.0  0.19023  0.14543  0.62740  1.0000
  Fe  Fe17      1.0  0.13045  0.18249  0.59101  1.0000
  S   S35       1.0  0.10270  0.16865  0.59151  1.0000
  Fe  Fe18      1.0  0.14700  0.21633  0.60229  1.0000
  H   H72       1.0  0.07951  0.05293  0.58643  1.0000
  S   S36       1.0  0.16287  0.16542  0.57972  1.0000
  S   S37       1.0  0.18051  0.20143  0.59165  1.0000
  C   C66       1.0  0.23589  0.32059  0.61357  1.0000
  C   C67       1.0  0.21045  0.22872  0.85673  1.0000
  Fe  Fe19      1.0  0.11930  0.30112  0.83772  1.0000
  H   H73       1.0  0.03145  0.17522  0.55061  1.0000
  S   S38       1.0  0.14634  0.27613  0.82634  1.0000
  H   H74       1.0  0.18334  0.25514  0.87839  1.0000
  N   N6        1.0  0.09431  0.03515  0.56284  1.0000
  C   C68       1.0  0.06078  0.29339  0.95104  1.0000
  S   S39       1.0  0.10120  0.29750  0.87104  1.0000
  H   H75       1.0  0.07559  0.23518  0.56040  1.0000
  C   C69       1.0  0.06166  0.28955  0.97220  1.0000
  S   S40       1.0  0.07754  0.09054  0.52573  1.0000
  C   C70       1.0  0.23745  0.22037  0.76767  1.0000
  H   H76       1.0  0.24276  0.23678  0.61834  1.0000
  H   H77       1.0  0.18032  0.26884  0.85226  1.0000
  H   H78       1.0  0.23188  0.19879  0.57497  1.0000
  H   H79       1.0  0.22401  0.04124  0.77443  1.0000
  H   H80       1.0  0.21914  0.09080  0.73382  1.0000
  H   H81       1.0  0.19866  0.26312  0.77453  1.0000
  H   H82       1.0  0.03266  0.17531  0.58730  1.0000
  S   S41       1.0  0.15963  0.00558  0.49138  1.0000
  C   C71       1.0  0.21295  0.20215  0.83742  1.0000
  H   H83       1.0  0.23051  0.13709  0.68075  1.0000
  H   H84       1.0  0.24030  0.20337  0.77245  1.0000
  Fe  Fe20      1.0  0.07109  0.08427  0.49702  1.0000
  C   C72       1.0  0.09941  0.16037  0.56962  1.0000
  C   C73       1.0  0.08517  0.14723  0.57283  1.0000
  C   C74       1.0  0.07983  0.14271  0.55570  1.0000
  C   C75       1.0  0.08835  0.15171  0.53511  1.0000
  C   C76       1.0  0.08267  0.03751  0.54813  1.0000
  C   C77       1.0  0.10885  0.16837  0.54902  1.0000
  H   H85       1.0  0.07780  0.14091  0.58868  1.0000
  H   H86       1.0  0.06843  0.13303  0.55846  1.0000
  H   H87       1.0  0.11996  0.17837  0.54627  1.0000
  C   C78       1.0  0.13575  0.24036  0.78162  1.0000
  C   C79       1.0  0.11921  0.25499  0.79037  1.0000
  C   C80       1.0  0.12220  0.26584  0.80436  1.0000
  C   C81       1.0  0.14185  0.26240  0.80932  1.0000
  C   C82       1.0  0.15839  0.24778  0.80053  1.0000
  C   C83       1.0  0.15531  0.23660  0.78691  1.0000
  H   H88       1.0  0.10403  0.25787  0.78641  1.0000
  H   H89       1.0  0.10926  0.27679  0.81128  1.0000
  H   H90       1.0  0.17362  0.24517  0.80420  1.0000
  H   H91       1.0  0.16812  0.22535  0.78022  1.0000
  C   C84       1.0  0.20522  0.16385  0.68190  1.0000
  C   C85       1.0  0.21709  0.14609  0.67426  1.0000
  C   C86       1.0  0.21189  0.14018  0.65802  1.0000
  C   C87       1.0  0.19536  0.15257  0.64866  1.0000
  C   C88       1.0  0.18318  0.17020  0.65649  1.0000
  C   C89       1.0  0.18785  0.17555  0.67347  1.0000
  Fe  Fe21      1.0  0.19987  0.30553  0.71657  1.0000
  C   C90       1.0  0.08081  0.28749  0.97778  1.0000
  H   H92       1.0  0.17018  0.17966  0.64952  1.0000
  H   H93       1.0  0.17853  0.18914  0.67952  1.0000
  C   C91       1.0  0.15744  0.07865  0.73602  1.0000
  C   C92       1.0  0.17256  0.09063  0.73314  1.0000
  C   C93       1.0  0.16935  0.10555  0.74562  1.0000
  C   C94       1.0  0.15128  0.10802  0.76132  1.0000
  C   C95       1.0  0.13641  0.09582  0.76435  1.0000
  C   C96       1.0  0.13930  0.08145  0.75151  1.0000
  H   H94       1.0  0.18638  0.08880  0.72095  1.0000
  H   H95       1.0  0.18086  0.11496  0.74336  1.0000
  H   H96       1.0  0.12246  0.09762  0.77655  1.0000
  H   H97       1.0  0.12754  0.07228  0.75376  1.0000
  C   C97       1.0  0.15670  0.26846  0.63274  1.0000
  H   H98       1.0  0.08301  0.03851  0.51578  1.0000
  C   C98       1.0  0.18045  0.22652  0.84571  1.0000
  H   H99       1.0  0.09377  0.02669  0.59580  1.0000
  H   H100      1.0  0.09731  0.21351  0.55553  1.0000
  S   S42       1.0  0.09095  0.31604  0.82352  1.0000
  H   H101      1.0  0.20321  0.22464  0.48991  1.0000
  C   C99       1.0  0.05495  0.19574  0.57767  1.0000
  C   C100      1.0  0.08130  0.21798  0.56484  1.0000
  H   H102      1.0  0.15970  0.22246  0.68062  1.0000
  C   C101      1.0  0.06628  0.20691  0.54093  1.0000
  H   H103      1.0  0.19949  0.28572  0.81726  1.0000
  H   H104      1.0  0.06917  0.03001  0.58884  1.0000
  C   C102      1.0  0.22614  0.14748  0.80882  1.0000
  H   H105      1.0  0.22606  0.30681  0.77735  1.0000
  H   H106      1.0  0.21530  0.15127  0.84094  1.0000
  H   H107      1.0  0.13170  0.27849  0.95837  1.0000
  H   H108      1.0  0.18953  0.26509  0.54962  1.0000
  C   C103      1.0  0.21391  0.25386  0.76920  1.0000
  Fe  Fe22      1.0  0.07355  0.31542  0.85686  1.0000
  H   H109      1.0  0.21706  0.21493  0.61901  1.0000
  C   C104      1.0  0.22758  0.10263  0.72260  1.0000
  C   C105      1.0  0.20993  0.22822  0.50127  1.0000
  C   C106      1.0  0.20303  0.22087  0.52272  1.0000
  C   C107      1.0  0.21189  0.22542  0.53735  1.0000
  C   C108      1.0  0.22812  0.23675  0.53044  1.0000
  H   H110      1.0  0.23418  0.09736  0.70747  1.0000
  Fe  Fe23      1.0  0.23456  0.02116  0.71912  1.0000
  H   H111      1.0  0.20677  0.21959  0.55389  1.0000
  H   H112      1.0  0.17052  0.08684  0.79527  1.0000
  H   H113      1.0  0.14278  0.02898  0.53194  1.0000
  C   C109      1.0  0.21491  0.14898  0.53847  1.0000
  C   C110      1.0  0.11851  0.28706  0.96869  1.0000
  C   C111      1.0  0.21690  0.05392  0.78290  1.0000
  C   C112      1.0  0.20167  0.30674  0.57258  1.0000
  C   C113      1.0  0.22839  0.06014  0.79401  1.0000
  H   H114      1.0  0.22771  0.08062  0.81409  1.0000
  H   H115      1.0  0.10683  0.31478  0.76092  1.0000
  S   S43       1.0  0.22289  0.28346  0.66478  1.0000
  H   H116      1.0  0.16915  0.28443  0.64956  1.0000
  C   C114      1.0  0.22228  0.21174  0.84769  1.0000
  C   C115      1.0  0.19599  0.06373  0.78320  1.0000
  Fe  Fe24      1.0  0.06228  0.12383  0.51454  1.0000
  H   H117      1.0  0.20052  0.11225  0.81654  1.0000
  H   H118      1.0  0.15476  0.28174  0.61989  1.0000
  H   H119      1.0  0.19957  0.30919  0.51189  1.0000
  H   H120      1.0  0.16095  0.25447  0.86883  1.0000
  H   H121      1.0  0.12176  0.03385  0.50512  1.0000
  H   H122      1.0  0.23833  0.15133  0.61555  1.0000
  C   C116      1.0  0.17827  0.99339  0.66440  1.0000
  H   H123      1.0  0.18674  0.05882  0.77494  1.0000
  C   C117      1.0  0.22281  0.31689  0.78857  1.0000
  H   H124      1.0  0.19713  0.29287  0.88949  1.0000
  C   C118      1.0  0.18819  0.27544  0.57771  1.0000
  Fe  Fe25      1.0  0.21968  0.01268  0.68259  1.0000
  H   H125      1.0  0.22106  0.12628  0.65233  1.0000
  S   S44       1.0  0.20580  0.01097  0.71710  1.0000
  H   H126      1.0  0.21775  0.13177  0.53955  1.0000
  Fe  Fe26      1.0  0.02715  0.11013  0.50238  1.0000
  H   H127      1.0  0.20550  0.22386  0.78458  1.0000
  H   H128      1.0  0.07831  0.29891  0.91918  1.0000
  C   C119      1.0  0.07912  0.00495  0.49047  1.0000
  N   N7        1.0  0.16406  0.12053  0.67604  1.0000
  C   C120      1.0  0.16173  0.13128  0.69154  1.0000
  C   C121      1.0  0.14994  0.12612  0.66317  1.0000
  C   C122      1.0  0.14506  0.14828  0.69431  1.0000
  C   C123      1.0  0.13314  0.14311  0.66541  1.0000
  C   C124      1.0  0.13074  0.15426  0.68107  1.0000
  C   C125      1.0  0.18124  0.10237  0.67361  1.0000
  H   H129      1.0  0.23873  0.20626  0.84830  1.0000
  H   H130      1.0  0.15187  0.11766  0.65082  1.0000
  H   H131      1.0  0.14338  0.15682  0.70655  1.0000
  H   H132      1.0  0.12218  0.14767  0.65492  1.0000
  H   H133      1.0  0.11786  0.16756  0.68290  1.0000
  H   H134      1.0  0.19417  0.10254  0.68095  1.0000
  H   H135      1.0  0.17530  0.08768  0.68099  1.0000
  H   H136      1.0  0.18807  0.10240  0.65670  1.0000
  H   H137      1.0  0.19816  0.23756  0.62677  1.0000
  S   S45       1.0  0.14197  0.24805  0.61073  1.0000
  C   C126      1.0  0.23472  0.12073  0.83894  1.0000
  H   H138      1.0  0.14790  0.21873  0.64982  1.0000
  H   H139      1.0  0.18180  0.09668  0.83272  1.0000
  C   C127      1.0  0.15261  0.23302  0.64964  1.0000
  C   C128      1.0  0.19308  0.27684  0.55594  1.0000
  C   C129      1.0  0.12586  0.03153  0.53642  1.0000
  C   C130      1.0  0.21767  0.23196  0.77477  1.0000
  H   H140      1.0  0.07471  0.00519  0.50711  1.0000
  N   N8        1.0  0.12970  0.27674  0.73271  1.0000
  C   C131      1.0  0.11457  0.29198  0.74101  1.0000
  C   C132      1.0  0.14941  0.27231  0.73671  1.0000
  C   C133      1.0  0.11891  0.30296  0.75402  1.0000
  C   C134      1.0  0.15425  0.28293  0.74965  1.0000
  C   C135      1.0  0.13892  0.29836  0.75833  1.0000
  C   C136      1.0  0.12498  0.26571  0.71879  1.0000
  H   H141      1.0  0.09897  0.29553  0.73780  1.0000
  H   H142      1.0  0.16129  0.25996  0.73049  1.0000
  H   H143      1.0  0.22216  0.18919  0.83003  1.0000
  H   H144      1.0  0.16971  0.27898  0.75318  1.0000
  H   H145      1.0  0.04360  0.00231  0.56635  1.0000
  H   H146      1.0  0.12751  0.27476  0.70238  1.0000
  H   H147      1.0  0.13531  0.24988  0.71909  1.0000
  H   H148      1.0  0.10870  0.26309  0.72400  1.0000
  H   H149      1.0  0.11170  0.29521  0.92981  1.0000
  C   C137      1.0  0.09235  0.03677  0.52727  1.0000
  C   C138      1.0  0.00152  0.03028  0.56661  1.0000
  H   H150      1.0  0.23322  0.11559  0.85577  1.0000
  H   H151      1.0  0.00576  0.05684  0.60991  1.0000
  H   H152      1.0  0.05081  0.99625  0.48961  1.0000
  C   C139      1.0  0.23580  0.17594  0.52143  1.0000
  C   C140      1.0  0.23804  0.13392  0.79545  1.0000
  N   N9        1.0  0.09860  0.28900  0.96267  1.0000
  H   H153      1.0  0.19847  0.15617  0.53698  1.0000
  C   C141      1.0  0.17799  0.25443  0.86429  1.0000
  Fe  Fe27      1.0  0.23367  0.05329  0.67859  1.0000
  H   H154      1.0  0.19989  0.00035  0.53664  1.0000
  C   C142      1.0  0.22458  0.14089  0.83054  1.0000
  C   C143      1.0  0.08376  0.03632  0.58458  1.0000
  N   N10       1.0  0.22134  0.22463  0.64517  1.0000
  C   C144      1.0  0.02908  0.31649  0.89188  1.0000
  C   C145      1.0  0.15945  0.23507  0.66697  1.0000
  N   N11       1.0  0.20218  0.29276  0.54287  1.0000
  C   C146      1.0  0.04168  0.18456  0.57417  1.0000
  C   C147      1.0  0.22993  0.26384  0.75662  1.0000
  H   H155      1.0  0.21374  0.32020  0.54059  1.0000
  C   C148      1.0  0.16464  0.27008  0.64960  1.0000
  S   S46       1.0  0.02977  0.11953  0.53141  1.0000
  C   C149      1.0  0.23898  0.23241  0.63530  1.0000
  C   C150      1.0  0.22309  0.29923  0.86411  1.0000
  H   H156      1.0  0.04602  0.29498  0.94655  1.0000
  H   H157      1.0  0.14254  0.30654  0.76855  1.0000
  N   N12       1.0  0.22915  0.15870  0.52041  1.0000
  H   H158      1.0  0.06584  0.03931  0.55266  1.0000
  H   H159      1.0  0.12488  0.03021  0.56891  1.0000
  N   N13       1.0  0.20599  0.31616  0.80497  1.0000
  H   H160      1.0  0.22970  0.13745  0.50134  1.0000
  C   C151      1.0  0.15112  0.24977  0.63249  1.0000
  C   C152      1.0  0.11407  0.03401  0.52137  1.0000
  S   S47       1.0  0.20915  0.27103  0.71605  1.0000
  S   S48       1.0  0.07907  0.14978  0.51329  1.0000
  H   H161      1.0  0.18085  0.26286  0.58799  1.0000
  C   C153      1.0  0.10314  0.16426  0.53188  1.0000
  H   H162      1.0  0.05609  0.19492  0.59368  1.0000
  S   S49       1.0  0.03622  0.06853  0.57363  1.0000
  H   H163      1.0  0.02697  0.04471  0.54741  1.0000
  C   C154      1.0  0.21609  0.22001  0.66662  1.0000
  C   C155      1.0  0.23479  0.15122  0.50222  1.0000
  C   C156      1.0  0.16595  0.25335  0.66681  1.0000
  H   H164      1.0  0.23932  0.13902  0.77866  1.0000
  H   H165      1.0  0.17298  0.12704  0.70161  1.0000
  C   C157      1.0  0.19266  0.29045  0.58604  1.0000
  H   H166      1.0  0.18458  0.20216  0.82830  1.0000
  H   H167      1.0  0.08279  0.21401  0.58157  1.0000
  Fe  Fe28      1.0  0.04487  0.08568  0.54042  1.0000
  S   S50       1.0  0.04007  0.07599  0.51283  1.0000
  C   C158      1.0  0.01798  0.05251  0.57810  1.0000
  C   C159      1.0  0.01645  0.04285  0.56249  1.0000
  N   N14       1.0  0.18978  0.23586  0.85573  1.0000
  C   C160      1.0  0.20765  0.30354  0.88177  1.0000
  H   H168      1.0  0.12141  0.30288  0.96747  1.0000
  H   H169      1.0  0.07629  0.21511  0.52783  1.0000
  H   H170      1.0  0.21595  0.11753  0.71971  1.0000
  S   S51       1.0  0.20494  0.04657  0.67301  1.0000
  C   C161      1.0  0.18884  0.10327  0.81630  1.0000
  N   N15       1.0  0.06714  0.20659  0.56113  1.0000
  H   H171      1.0  0.99944  0.30991  0.89202  1.0000
  H   H172      1.0  0.19142  0.29863  0.79258  1.0000
  C   C162      1.0  0.20770  0.29400  0.52010  1.0000
  H   H173      1.0  0.23080  0.18226  0.53563  1.0000
  C   C163      1.0  0.19188  0.20950  0.83642  1.0000
  C   C164      1.0  0.04095  0.18455  0.55361  1.0000
  N   N16       1.0  0.19854  0.08629  0.80471  1.0000
  C   C165      1.0  0.21884  0.07630  0.80504  1.0000
  S   S52       1.0  0.22446  0.27710  0.85403  1.0000
  C   C166      1.0  0.18694  0.07977  0.79453  1.0000
  H   H174      1.0  0.21796  0.23619  0.86446  1.0000
  C   C167      1.0  0.22940  0.99512  0.50181  1.0000
  S   S53       1.0  0.17527  0.25455  0.68864  1.0000
  H   H175      1.0  0.23167  0.00826  0.50702  1.0000
  H   H176      1.0  0.05340  0.19521  0.52084  1.0000
  H   H177      1.0  0.01298  0.99408  0.61670  1.0000
  Fe  Fe29      1.0  0.23749  0.27890  0.69242  1.0000
  C   C168      1.0  0.11565  0.03224  0.55723  1.0000
  H   H178      1.0  0.10991  0.17122  0.51604  1.0000
  C   C169      1.0  0.22908  0.22232  0.67875  1.0000
  C   C170      1.0  0.23515  0.24379  0.50890  1.0000
  Fe  Fe30      1.0  0.19362  0.27848  0.68847  1.0000
  C   C171      1.0  0.05325  0.19585  0.53686  1.0000
  H   H179      1.0  0.00020  0.02302  0.55450  1.0000
  H   H180      1.0  0.18912  0.28956  0.60288  1.0000
  C   C172      1.0  0.24049  0.11455  0.60629  1.0000
  C   C173      1.0  0.22584  0.23975  0.49440  1.0000
  H   H181      1.0  0.23826  0.13872  0.72100  1.0000
  H   H182      1.0  0.19690  0.21150  0.64184  1.0000
  H   H183      1.0  0.17655  0.30656  0.81624  1.0000
  H   H184      1.0  0.22725  0.28085  0.75201  1.0000
  C   C174      1.0  0.20769  0.22208  0.63255  1.0000
  H   H185      1.0  0.22475  0.21851  0.69577  1.0000
  C   C175      1.0  0.20639  0.30765  0.55091  1.0000
  H   H186      1.0  0.20176  0.21455  0.67459  1.0000
  S   S54       1.0  0.04160  0.30781  0.86843  1.0000
  H   H187      1.0  0.18757  0.01538  0.51482  1.0000
  H   H188      1.0  0.20338  0.28114  0.51551  1.0000
  H   H189      1.0  0.17544  0.00252  0.67635  1.0000
  H   H190      1.0  0.22489  0.29270  0.51452  1.0000
  S   S55       1.0  0.18175  0.31237  0.69089  1.0000
  H   H191      1.0  0.20511  0.31856  0.57888  1.0000
  C   C176      1.0  0.00791  0.31595  0.90005  1.0000
  C   C177      1.0  0.00465  0.04944  0.59778  1.0000
  S   S56       1.0  0.22955  0.31267  0.69496  1.0000
  Fe  Fe31      1.0  0.21246  0.31680  0.66915  1.0000
  H   H192      1.0  0.04755  0.28841  0.98418  1.0000
  C   C178      1.0  0.19392  0.99937  0.52305  1.0000
  H   H193      1.0  0.11847  0.27829  0.98515  1.0000
  H   H194      1.0  0.23869  0.30770  0.62648  1.0000
  H   H195      1.0  0.23105  0.10698  0.62102  1.0000
  H   H196      1.0  0.22995  0.12807  0.59833  1.0000
  S   S57       1.0  0.18594  0.31592  0.74787  1.0000
  H   H197      1.0  0.14566  0.99292  0.66809  1.0000
  C   C179      1.0  0.19277  0.30096  0.80794  1.0000
  C   C180      1.0  0.20574  0.32167  0.88950  1.0000
  C   C181      1.0  0.04007  0.32409  0.90242  1.0000
  H   H198      1.0  0.99544  0.08218  0.53300  1.0000
  C   C182      1.0  0.99776  0.32300  0.91874  1.0000
  S   S58       1.0  0.99630  0.11787  0.49178  1.0000
  H   H199      1.0  0.05639  0.32452  0.89626  1.0000
  Fe  Fe32      1.0  0.13981  0.46622  0.06004  1.0000
  S   S59       1.0  0.12580  0.45213  0.09285  1.0000
  S   S60       1.0  0.12082  0.49146  0.04002  1.0000
  Fe  Fe33      1.0  0.18204  0.43786  0.06112  1.0000
  S   S61       1.0  0.17174  0.42166  0.09443  1.0000
  S   S62       1.0  0.21528  0.42918  0.04405  1.0000
  Fe  Fe34      1.0  0.14274  0.42136  0.08371  1.0000
  S   S63       1.0  0.13162  0.39098  0.08858  1.0000
  Fe  Fe35      1.0  0.15608  0.45422  0.10010  1.0000
  S   S64       1.0  0.15355  0.46914  0.12781  1.0000
  S   S65       1.0  0.15423  0.43558  0.05018  1.0000
  S   S66       1.0  0.16877  0.47034  0.06750  1.0000
  Fe  Fe36      1.0  0.22100  0.53551  0.15907  1.0000
  S   S67       1.0  0.21639  0.56812  0.13951  1.0000
  S   S68       1.0  0.22415  0.50955  0.14138  1.0000
  Fe  Fe37      1.0  0.08653  0.59805  0.99454  1.0000
  C   C183      1.0  0.18273  0.57767  0.24037  1.0000
  H   H200      1.0  0.21924  0.62964  0.18711  1.0000
  Fe  Fe38      1.0  0.19690  0.57775  0.16910  1.0000
  S   S69       1.0  0.16629  0.60039  0.16915  1.0000
  C   C184      1.0  0.11062  0.39063  0.07750  1.0000
  S   S70       1.0  0.19937  0.54496  0.18830  1.0000
  S   S71       1.0  0.18104  0.65399  0.25863  1.0000
  C   C185      1.0  0.23320  0.47495  0.00250  1.0000
  C   C186      1.0  0.19045  0.62603  0.11867  1.0000
  S   S72       1.0  0.13242  0.63491  0.25299  1.0000
  C   C187      1.0  0.18485  0.37420  0.05827  1.0000
  Fe  Fe39      1.0  0.04986  0.36139  0.04210  1.0000
  S   S73       1.0  0.04786  0.32765  0.05611  1.0000
  H   H201      1.0  0.23264  0.63935  0.09938  1.0000
  C   C188      1.0  0.18801  0.35611  0.03047  1.0000
  C   C189      1.0  0.06134  0.51972  0.02012  1.0000
  H   H202      1.0  0.18768  0.56033  0.24464  1.0000
  C   C190      1.0  0.02507  0.51604  0.07993  1.0000
  C   C191      1.0  0.07504  0.38806  0.06413  1.0000
  C   C192      1.0  0.21782  0.36627  0.03444  1.0000
  H   H203      1.0  0.05068  0.51827  0.03526  1.0000
  S   S74       1.0  0.07374  0.35476  0.01346  1.0000
  H   H204      1.0  0.00205  0.39084  0.99219  1.0000
  C   C193      1.0  0.19619  0.49213  0.01154  1.0000
  N   N17       1.0  0.21108  0.47747  0.00211  1.0000
  C   C194      1.0  0.16913  0.48087  0.00221  1.0000
  H   H205      1.0  0.22944  0.63854  0.20448  1.0000
  C   C195      1.0  0.20385  0.41638  0.01333  1.0000
  H   H206      1.0  0.16642  0.58151  0.23789  1.0000
  C   C196      1.0  0.18442  0.46614  0.99248  1.0000
  H   H207      1.0  0.08944  0.35552  0.06466  1.0000
  C   C197      1.0  0.15748  0.60975  0.19257  1.0000
  C   C198      1.0  0.13846  0.60599  0.20550  1.0000
  C   C199      1.0  0.13112  0.61342  0.22425  1.0000
  C   C200      1.0  0.14244  0.62521  0.22981  1.0000
  C   C201      1.0  0.16144  0.62915  0.21685  1.0000
  C   C202      1.0  0.16909  0.62120  0.19831  1.0000
  H   H208      1.0  0.12949  0.59716  0.20107  1.0000
  H   H209      1.0  0.11645  0.61030  0.23427  1.0000
  H   H210      1.0  0.17023  0.63823  0.22115  1.0000
  H   H211      1.0  0.18366  0.62433  0.18817  1.0000
  S   S75       1.0  0.05147  0.38653  0.05823  1.0000
  C   C203      1.0  0.16734  0.62821  0.09576  1.0000
  H   H212      1.0  0.21622  0.33424  0.00470  1.0000
  C   C204      1.0  0.22905  0.62689  0.30600  1.0000
  C   C205      1.0  0.20546  0.46478  0.99242  1.0000
  C   C206      1.0  0.22009  0.41916  0.02117  1.0000
  H   H213      1.0  0.18220  0.62889  0.06324  1.0000
  C   C207      1.0  0.18907  0.60372  0.28926  1.0000
  H   H214      1.0  0.08924  0.46092  0.00009  1.0000
  H   H215      1.0  0.21311  0.38276  0.05957  1.0000
  H   H216      1.0  0.22198  0.59861  0.27537  1.0000
  C   C208      1.0  0.04357  0.52329  0.07699  1.0000
  C   C209      1.0  0.17328  0.48057  0.13111  1.0000
  C   C210      1.0  0.19301  0.47912  0.11778  1.0000
  C   C211      1.0  0.20828  0.48826  0.12104  1.0000
  C   C212      1.0  0.20389  0.49938  0.13732  1.0000
  C   C213      1.0  0.18398  0.50131  0.15032  1.0000
  C   C214      1.0  0.16887  0.49172  0.14738  1.0000
  H   H217      1.0  0.19667  0.47055  0.10524  1.0000
  H   H218      1.0  0.22365  0.48652  0.11098  1.0000
  H   H219      1.0  0.18043  0.50962  0.16304  1.0000
  H   H220      1.0  0.15373  0.49283  0.15788  1.0000
  S   S76       1.0  0.00923  0.61888  0.99828  1.0000
  C   C215      1.0  0.07005  0.46307  0.03076  1.0000
  C   C216      1.0  0.06831  0.46887  0.04981  1.0000
  C   C217      1.0  0.08418  0.47714  0.05285  1.0000
  C   C218      1.0  0.10156  0.48006  0.03667  1.0000
  C   C219      1.0  0.10343  0.47408  0.01770  1.0000
  C   C220      1.0  0.08778  0.46541  0.01483  1.0000
  H   H221      1.0  0.05479  0.46696  0.06221  1.0000
  H   H222      1.0  0.08278  0.48160  0.06758  1.0000
  C   C221      1.0  0.08603  0.41300  0.99654  1.0000
  H   H223      1.0  0.21063  0.65078  0.28615  1.0000
  N   N18       1.0  0.11582  0.51624  0.09602  1.0000
  C   C222      1.0  0.11544  0.51988  0.11525  1.0000
  C   C223      1.0  0.13354  0.51646  0.08065  1.0000
  C   C224      1.0  0.13299  0.52436  0.11933  1.0000
  C   C225      1.0  0.15147  0.52065  0.08428  1.0000
  C   C226      1.0  0.15112  0.52468  0.10374  1.0000
  C   C227      1.0  0.09744  0.51099  0.09236  1.0000
  H   H224      1.0  0.10161  0.51907  0.12763  1.0000
  H   H225      1.0  0.13395  0.51313  0.06557  1.0000
  H   H226      1.0  0.13281  0.52683  0.13472  1.0000
  H   H227      1.0  0.16566  0.52031  0.07228  1.0000
  H   H228      1.0  0.16507  0.52736  0.10702  1.0000
  H   H229      1.0  0.09767  0.51354  0.07529  1.0000
  H   H230      1.0  0.09690  0.49430  0.09955  1.0000
  H   H231      1.0  0.08285  0.52122  0.09912  1.0000
  H   H232      1.0  0.02469  0.49970  0.08650  1.0000
  H   H233      1.0  0.09665  0.62991  0.10238  1.0000
  C   C228      1.0  0.23053  0.61656  0.32664  1.0000
  H   H234      1.0  0.18513  0.64265  0.35243  1.0000
  H   H235      1.0  0.08472  0.40121  0.14627  1.0000
  C   C229      1.0  0.02620  0.55839  0.06306  1.0000
  H   H236      1.0  0.15705  0.62814  0.12890  1.0000
  H   H237      1.0  0.21555  0.61415  0.35926  1.0000
  C   C230      1.0  0.09471  0.65402  0.05156  1.0000
  H   H238      1.0  0.23994  0.61233  0.09664  1.0000
  H   H239      1.0  0.13507  0.36943  0.00269  1.0000
  C   C231      1.0  0.17500  0.49408  0.01168  1.0000
  C   C232      1.0  0.04416  0.54448  0.06850  1.0000
  C   C233      1.0  0.22126  0.34841  0.00574  1.0000
  H   H240      1.0  0.08859  0.42000  0.02520  1.0000
  N   N19       1.0  0.18472  0.58730  0.25688  1.0000
  C   C234      1.0  0.03762  0.40898  0.11491  1.0000
  C   C235      1.0  0.16750  0.59341  0.27155  1.0000
  C   C236      1.0  0.09220  0.63917  0.07035  1.0000
  C   C237      1.0  0.16937  0.60195  0.28778  1.0000
  H   H241      1.0  0.22918  0.61858  0.12208  1.0000
  H   H242      1.0  0.15920  0.36428  0.05263  1.0000
  H   H243      1.0  0.16314  0.50561  0.01919  1.0000
  N   N20       1.0  0.09322  0.52892  0.99830  1.0000
  C   C238      1.0  0.99402  0.44217  0.99455  1.0000
  H   H244      1.0  0.15557  0.60729  0.29902  1.0000
  C   C239      1.0  0.05491  0.41140  0.12123  1.0000
  C   C240      1.0  0.18443  0.62783  0.07891  1.0000
  C   C241      1.0  0.22824  0.62375  0.10527  1.0000
  Fe  Fe40      1.0  0.22758  0.55164  0.19575  1.0000
  C   C242      1.0  0.10855  0.37155  0.07407  1.0000
  H   H245      1.0  0.01260  0.53793  0.99870  1.0000
  C   C243      1.0  0.20407  0.58914  0.25811  1.0000
  C   C244      1.0  0.21453  0.62214  0.34330  1.0000
  C   C245      1.0  0.24072  0.41452  0.01019  1.0000
  H   H246      1.0  0.23409  0.36759  0.02899  1.0000
  Fe  Fe41      1.0  0.03999  0.61257  0.00922  1.0000
  C   C246      1.0  0.07945  0.52750  0.01720  1.0000
  C   C247      1.0  0.07718  0.40714  0.06750  1.0000
  C   C248      1.0  0.00754  0.55129  0.06668  1.0000
  C   C249      1.0  0.03741  0.38975  0.11080  1.0000
  C   C250      1.0  0.07141  0.37599  0.11969  1.0000
  Fe  Fe42      1.0  0.06614  0.58303  0.03957  1.0000
  H   H247      1.0  0.05743  0.51241  0.08103  1.0000
  H   H248      1.0  0.17659  0.57331  0.99882  1.0000
  H   H249      1.0  0.08480  0.36314  0.12093  1.0000
  H   H250      1.0  0.21941  0.36049  0.99127  1.0000
  H   H251      1.0  0.19074  0.61024  0.30185  1.0000
  S   S77       1.0  0.22320  0.58515  0.17857  1.0000
  S   S78       1.0  0.06744  0.55345  0.06421  1.0000
  H   H252      1.0  0.12013  0.39199  0.02937  1.0000
  H   H253      1.0  0.06485  0.42089  0.06532  1.0000
  H   H254      1.0  0.10256  0.38425  0.12974  1.0000
  H   H255      1.0  0.08364  0.62706  0.07195  1.0000
  Fe  Fe43      1.0  0.04660  0.35756  0.99892  1.0000
  C   C251      1.0  0.05761  0.51291  0.00372  1.0000
  S   S79       1.0  0.05012  0.45339  0.02619  1.0000
  S   S80       1.0  0.09461  0.59708  0.02514  1.0000
  H   H256      1.0  0.12039  0.35755  0.07715  1.0000
  N   N21       1.0  0.20883  0.35679  0.02423  1.0000
  N   N22       1.0  0.20720  0.62516  0.10216  1.0000
  C   C252      1.0  0.99597  0.54442  0.00095  1.0000
  H   H257      1.0  0.02653  0.57474  0.05644  1.0000
  H   H258      1.0  0.09652  0.42338  0.07619  1.0000
  Fe  Fe44      1.0  0.01962  0.45768  0.04961  1.0000
  C   C253      1.0  0.09512  0.40857  0.07365  1.0000
  C   C254      1.0  0.19585  0.64855  0.31885  1.0000
  H   H259      1.0  0.02437  0.38795  0.10515  1.0000
  H   H260      1.0  0.02452  0.42199  0.11294  1.0000
  S   S81       1.0  0.04351  0.61376  0.04153  1.0000
  C   C255      1.0  0.09101  0.37034  0.06704  1.0000
  H   H261      1.0  0.18791  0.41992  0.02159  1.0000
  S   S82       1.0  0.02256  0.36700  0.02653  1.0000
  H   H262      1.0  0.21763  0.62641  0.06925  1.0000
  H   H263      1.0  0.23815  0.34371  0.00629  1.0000
  C   C256      1.0  0.08946  0.39814  0.13008  1.0000
  H   H264      1.0  0.15277  0.48215  0.00226  1.0000
  Fe  Fe45      1.0  0.07188  0.62790  0.02510  1.0000
  S   S83       1.0  0.01369  0.46129  0.08310  1.0000
  H   H265      1.0  0.15211  0.59204  0.27058  1.0000
  S   S84       1.0  0.08143  0.65566  0.03135  1.0000
  N   N23       1.0  0.07154  0.39503  0.12350  1.0000
  S   S85       1.0  0.06036  0.58082  0.00903  1.0000
  C   C257      1.0  0.17572  0.36477  0.04762  1.0000
  C   C258      1.0  0.20658  0.59730  0.27434  1.0000
  C   C259      1.0  0.11248  0.53641  0.99577  1.0000
  H   H266      1.0  0.19254  0.62577  0.13422  1.0000
  C   C260      1.0  0.00696  0.53010  0.07503  1.0000
  H   H267      1.0  0.08268  0.53194  0.03029  1.0000
  C   C261      1.0  0.09953  0.64087  0.08760  1.0000
  C   C262      1.0  0.09527  0.41011  0.01371  1.0000
  H   H268      1.0  0.23583  0.48678  0.00997  1.0000
  H   H269      1.0  0.09570  0.41163  0.11915  1.0000
  C   C263      1.0  0.17031  0.62746  0.11575  1.0000
  C   C264      1.0  0.20437  0.62641  0.08241  1.0000
  H   H270      1.0  0.99887  0.41343  0.01742  1.0000
  C   C265      1.0  0.20825  0.40934  0.99440  1.0000
  H   H271      1.0  0.15173  0.62950  0.09333  1.0000
  H   H272      1.0  0.05458  0.35830  0.10940  1.0000
  S   S86       1.0  0.99702  0.43625  0.05648  1.0000
  Fe  Fe46      1.0  0.02255  0.33252  0.03798  1.0000
  H   H273      1.0  0.05506  0.42654  0.12404  1.0000
  C   C266      1.0  0.11296  0.39436  0.01601  1.0000
  C   C267      1.0  0.21166  0.64281  0.30208  1.0000
  C   C268      1.0  0.05435  0.37308  0.11329  1.0000
  C   C269      1.0  0.19735  0.63828  0.33944  1.0000
  H   H274      1.0  0.10518  0.65411  0.22004  1.0000
  C   C270      1.0  0.20602  0.37494  0.05171  1.0000
  H   H275      1.0  0.21768  0.58420  0.24653  1.0000
  C   C271      1.0  0.12129  0.38172  0.00109  1.0000
  S   S87       1.0  0.06597  0.62998  0.99295  1.0000
  H   H276      1.0  0.19275  0.58338  0.22512  1.0000
  H   H277      1.0  0.07222  0.42528  0.99502  1.0000
  H   H278      1.0  0.20069  0.50245  0.01889  1.0000
  H   H279      1.0  0.04414  0.50590  0.00615  1.0000
  H   H280      1.0  0.24107  0.62241  0.29305  1.0000
  H   H281      1.0  0.10973  0.54891  0.00483  1.0000
  H   H282      1.0  0.11689  0.47621  0.00519  1.0000
  H   H283      1.0  0.17551  0.38111  0.07148  1.0000
  H   H284      1.0  0.04932  0.65358  0.09362  1.0000
  H   H285      1.0  0.10945  0.32952  0.99380  1.0000
  S   S88       1.0  0.23294  0.54630  0.22877  1.0000
  H   H286      1.0  0.18083  0.34885  0.02217  1.0000
  C   C272      1.0  0.14219  0.32652  0.99279  1.0000
  H   H287      1.0  0.99359  0.56226  0.06287  1.0000
  C   C273      1.0  0.10986  0.65709  0.08609  1.0000
  H   H288      1.0  0.23895  0.45912  0.01153  1.0000
  H   H289      1.0  0.12474  0.52309  0.00115  1.0000
  C   C274      1.0  0.23392  0.62908  0.19203  1.0000
  H   H290      1.0  0.23783  0.62882  0.15148  1.0000
  H   H291      1.0  0.24069  0.61257  0.19861  1.0000
  S   S89       1.0  0.99648  0.48662  0.03977  1.0000
  C   C275      1.0  0.99744  0.42040  0.00129  1.0000
  H   H292      1.0  0.21862  0.34015  0.72886  1.0000
  C   C276      1.0  0.22971  0.35418  0.57987  1.0000
  H   H293      1.0  0.23389  0.54947  0.84874  1.0000
  C   C277      1.0  0.11609  0.40236  0.88603  1.0000
  H   H294      1.0  0.11046  0.48608  0.96492  1.0000
  S   S90       1.0  0.17953  0.38101  0.97387  1.0000
  S   S91       1.0  0.20782  0.49650  0.94510  1.0000
  C   C278      1.0  0.00597  0.60668  0.97903  1.0000
  S   S92       1.0  0.10912  0.56563  0.84731  1.0000
  Fe  Fe47      1.0  0.08516  0.57220  0.82761  1.0000
  S   S93       1.0  0.08314  0.54971  0.80928  1.0000
  C   C279      1.0  0.19493  0.53709  0.84663  1.0000
  S   S94       1.0  0.18925  0.58774  0.89986  1.0000
  C   C280      1.0  0.03131  0.53925  0.83636  1.0000
  S   S95       1.0  0.09478  0.37457  0.79996  1.0000
  H   H295      1.0  0.18000  0.45583  0.98505  1.0000
  H   H296      1.0  0.15525  0.35618  0.85963  1.0000
  S   S96       1.0  0.04452  0.48522  0.79225  1.0000
  C   C281      1.0  0.99931  0.52667  0.85243  1.0000
  H   H297      1.0  0.06919  0.50888  0.97170  1.0000
  C   C282      1.0  0.00051  0.59141  0.94549  1.0000
  Fe  Fe48      1.0  0.17049  0.45789  0.79893  1.0000
  S   S97       1.0  0.15322  0.44951  0.83199  1.0000
  S   S98       1.0  0.17154  0.49197  0.78610  1.0000
  Fe  Fe49      1.0  0.18794  0.41218  0.79535  1.0000
  S   S99       1.0  0.17314  0.40019  0.82881  1.0000
  S   S100      1.0  0.20844  0.39178  0.77250  1.0000
  Fe  Fe50      1.0  0.14498  0.42442  0.82123  1.0000
  S   S101      1.0  0.11336  0.41593  0.83326  1.0000
  Fe  Fe51      1.0  0.18274  0.42658  0.83673  1.0000
  H   H298      1.0  0.17800  0.58841  0.80818  1.0000
  S   S102      1.0  0.15911  0.43512  0.78725  1.0000
  S   S103      1.0  0.20068  0.43609  0.80416  1.0000
  C   C283      1.0  0.05592  0.62630  0.93496  1.0000
  S   S104      1.0  0.07753  0.34714  0.85803  1.0000
  H   H299      1.0  0.04790  0.37669  0.92219  1.0000
  C   C284      1.0  0.17676  0.58314  0.98329  1.0000
  H   H300      1.0  0.00300  0.55813  0.85071  1.0000
  C   C285      1.0  0.20189  0.32900  0.81902  1.0000
  H   H301      1.0  0.14407  0.61502  0.95208  1.0000
  H   H302      1.0  0.11732  0.44136  0.77233  1.0000
  H   H303      1.0  0.15934  0.34530  0.88608  1.0000
  S   S105      1.0  0.21490  0.34497  0.64303  1.0000
  H   H304      1.0  0.11019  0.38891  0.75228  1.0000
  N   N24       1.0  0.09427  0.40057  0.98196  1.0000
  C   C286      1.0  0.20046  0.37228  0.76461  1.0000
  C   C287      1.0  0.21316  0.36369  0.74748  1.0000
  C   C288      1.0  0.20841  0.34697  0.74171  1.0000
  C   C289      1.0  0.19100  0.33851  0.75315  1.0000
  C   C290      1.0  0.17811  0.34726  0.77013  1.0000
  C   C291      1.0  0.18274  0.36415  0.77578  1.0000
  H   H305      1.0  0.21470  0.60984  0.92042  1.0000
  H   H306      1.0  0.99986  0.38650  0.95957  1.0000
  C   C292      1.0  0.22194  0.35715  0.60052  1.0000
  H   H307      1.0  0.17298  0.37045  0.78914  1.0000
  C   C293      1.0  0.06316  0.46573  0.80422  1.0000
  C   C294      1.0  0.08356  0.46900  0.80040  1.0000
  C   C295      1.0  0.09883  0.45388  0.80972  1.0000
  C   C296      1.0  0.09386  0.43530  0.82270  1.0000
  C   C297      1.0  0.07338  0.43209  0.82685  1.0000
  C   C298      1.0  0.05802  0.44732  0.81763  1.0000
  H   H308      1.0  0.08767  0.48304  0.78978  1.0000
  H   H309      1.0  0.11461  0.45632  0.80658  1.0000
  H   H310      1.0  0.06953  0.41761  0.83679  1.0000
  H   H311      1.0  0.04238  0.44461  0.82071  1.0000
  C   C299      1.0  0.06932  0.38435  0.79527  1.0000
  C   C300      1.0  0.05690  0.37094  0.79433  1.0000
  C   C301      1.0  0.03679  0.37931  0.78991  1.0000
  C   C302      1.0  0.02904  0.40105  0.78662  1.0000
  C   C303      1.0  0.04161  0.41437  0.78743  1.0000
  C   C304      1.0  0.06166  0.40601  0.79172  1.0000
  H   H312      1.0  0.06284  0.35417  0.79680  1.0000
  H   H313      1.0  0.06250  0.63587  0.78584  1.0000
  H   H314      1.0  0.03602  0.43117  0.78451  1.0000
  H   H315      1.0  0.07129  0.41638  0.79229  1.0000
  H   H316      1.0  0.18893  0.32800  0.83237  1.0000
  C   C305      1.0  0.02013  0.58686  0.95104  1.0000
  C   C306      1.0  0.01756  0.63691  0.92298  1.0000
  C   C307      1.0  0.22479  0.34036  0.61742  1.0000
  H   H317      1.0  0.03864  0.33633  0.92957  1.0000
  H   H318      1.0  0.17478  0.38500  0.88749  1.0000
  S   S106      1.0  0.05777  0.57951  0.85328  1.0000
  H   H319      1.0  0.20302  0.58646  0.83014  1.0000
  S   S107      1.0  0.22599  0.53752  0.91593  1.0000
  C   C308      1.0  0.13319  0.40107  0.77247  1.0000
  H   H320      1.0  0.07550  0.36067  0.89543  1.0000
  S   S108      1.0  0.00801  0.47117  0.76436  1.0000
  H   H321      1.0  0.10077  0.52323  0.96721  1.0000
  C   C309      1.0  0.03004  0.33075  0.92128  1.0000
  H   H322      1.0  0.04013  0.55169  0.83177  1.0000
  S   S109      1.0  0.00178  0.44940  0.81510  1.0000
  S   S110      1.0  0.12710  0.33166  0.83772  1.0000
  C   C310      1.0  0.16188  0.46578  0.94850  1.0000
  H   H323      1.0  0.04092  0.35450  0.83610  1.0000
  C   C311      1.0  0.21845  0.47596  0.85726  1.0000
  H   H324      1.0  0.20217  0.46924  0.91030  1.0000
  H   H325      1.0  0.12064  0.37547  0.87252  1.0000
  C   C312      1.0  0.10779  0.53407  0.80225  1.0000
  C   C313      1.0  0.10921  0.51343  0.80062  1.0000
  C   C314      1.0  0.12882  0.50050  0.79546  1.0000
  C   C315      1.0  0.14701  0.50832  0.79162  1.0000
  C   C316      1.0  0.14562  0.52906  0.79305  1.0000
  C   C317      1.0  0.12601  0.54188  0.79870  1.0000
  H   H326      1.0  0.09513  0.50742  0.80361  1.0000
  H   H327      1.0  0.12996  0.48458  0.79414  1.0000
  H   H328      1.0  0.15975  0.53511  0.78980  1.0000
  H   H329      1.0  0.12495  0.55789  0.79983  1.0000
  C   C318      1.0  0.15163  0.60587  0.84820  1.0000
  C   C319      1.0  0.16622  0.61745  0.84799  1.0000
  C   C320      1.0  0.17738  0.61197  0.86418  1.0000
  C   C321      1.0  0.17432  0.59462  0.88040  1.0000
  C   C322      1.0  0.15982  0.58290  0.88061  1.0000
  C   C323      1.0  0.14836  0.58863  0.86456  1.0000
  C   C324      1.0  0.16097  0.35882  0.87268  1.0000
  H   H330      1.0  0.18856  0.62109  0.86399  1.0000
  H   H331      1.0  0.15712  0.56971  0.89331  1.0000
  H   H332      1.0  0.13723  0.57955  0.86471  1.0000
  S   S111      1.0  0.08783  0.60559  0.81400  1.0000
  N   N25       1.0  0.20255  0.55453  0.84525  1.0000
  S   S112      1.0  0.13861  0.61236  0.82723  1.0000
  C   C325      1.0  0.21603  0.59671  0.93423  1.0000
  C   C326      1.0  0.21773  0.55354  0.85783  1.0000
  H   H333      1.0  0.21233  0.45787  0.83784  1.0000
  C   C327      1.0  0.06511  0.36358  0.94706  1.0000
  H   H334      1.0  0.10697  0.45245  0.95911  1.0000
  C   C328      1.0  0.12807  0.38435  0.87884  1.0000
  Fe  Fe52      1.0  0.21489  0.51076  0.91061  1.0000
  H   H335      1.0  0.14376  0.34033  0.98059  1.0000
  C   C329      1.0  0.00896  0.33005  0.92953  1.0000
  C   C330      1.0  0.10197  0.58196  0.94884  1.0000
  C   C331      1.0  0.12232  0.45606  0.95616  1.0000
  N   N26       1.0  0.11559  0.41397  0.76301  1.0000
  H   H336      1.0  0.00237  0.64070  0.91875  1.0000
  C   C332      1.0  0.10921  0.43462  0.76451  1.0000
  C   C333      1.0  0.08813  0.41750  0.74475  1.0000
  C   C334      1.0  0.09186  0.44714  0.75653  1.0000
  C   C335      1.0  0.08118  0.43844  0.74672  1.0000
  N   N27       1.0  0.00872  0.50738  0.84772  1.0000
  C   C336      1.0  0.19571  0.58436  0.96895  1.0000
  H   H337      1.0  0.22818  0.59847  0.94180  1.0000
  H   H338      1.0  0.07957  0.41041  0.73772  1.0000
  H   H339      1.0  0.04060  0.39164  0.83601  1.0000
  H   H340      1.0  0.06727  0.44778  0.74113  1.0000
  H   H341      1.0  0.02716  0.36895  0.78922  1.0000
  C   C337      1.0  0.10548  0.40542  0.75302  1.0000
  H   H342      1.0  0.05705  0.51645  0.82364  1.0000
  H   H343      1.0  0.06562  0.55494  0.94891  1.0000
  H   H344      1.0  0.11023  0.58047  0.89701  1.0000
  Fe  Fe53      1.0  0.08191  0.57612  0.87193  1.0000
  S   S113      1.0  0.18230  0.52856  0.90926  1.0000
  C   C338      1.0  0.10340  0.57778  0.91360  1.0000
  H   H345      1.0  0.17783  0.35945  0.86704  1.0000
  C   C339      1.0  0.20414  0.46707  0.89446  1.0000
  Fe  Fe54      1.0  0.01393  0.47687  0.79353  1.0000
  H   H346      1.0  0.21553  0.56876  0.86262  1.0000
  H   H347      1.0  0.07856  0.56851  0.97280  1.0000
  C   C340      1.0  0.23572  0.33115  0.78556  1.0000
  C   C341      1.0  0.03172  0.61681  0.89485  1.0000
  H   H348      1.0  0.11650  0.42810  0.89956  1.0000
  C   C342      1.0  0.24063  0.33445  0.57599  1.0000
  H   H349      1.0  0.11862  0.37569  0.97211  1.0000
  C   C343      1.0  0.00919  0.35587  0.85336  1.0000
  Fe  Fe55      1.0  0.20094  0.36514  0.91937  1.0000
  S   S114      1.0  0.08376  0.61013  0.86273  1.0000
  H   H350      1.0  0.17718  0.46949  0.94543  1.0000
  H   H351      1.0  0.11448  0.33391  0.94090  1.0000
  S   S115      1.0  0.21556  0.35988  0.88650  1.0000
  C   C344      1.0  0.15994  0.44623  0.94599  1.0000
  C   C345      1.0  0.22891  0.40483  0.98341  1.0000
  S   S116      1.0  0.00364  0.41157  0.78183  1.0000
  C   C346      1.0  0.02054  0.61526  0.81869  1.0000
  H   H352      1.0  0.15434  0.41678  0.90041  1.0000
  C   C347      1.0  0.08699  0.56690  0.92142  1.0000
  Fe  Fe56      1.0  0.09734  0.34626  0.82595  1.0000
  C   C348      1.0  0.21607  0.47888  0.87777  1.0000
  C   C349      1.0  0.14010  0.44148  0.94951  1.0000
  Fe  Fe57      1.0  0.10653  0.32940  0.86991  1.0000
  H   H353      1.0  0.17377  0.43495  0.94116  1.0000
  C   C350      1.0  0.08491  0.40464  0.96354  1.0000
  C   C351      1.0  0.07795  0.35802  0.91121  1.0000
  C   C352      1.0  0.07824  0.56344  0.94283  1.0000
  S   S117      1.0  0.04541  0.37519  0.96590  1.0000
  Fe  Fe58      1.0  0.16634  0.39280  0.94473  1.0000
  H   H354      1.0  0.03915  0.62590  0.87984  1.0000
  C   C353      1.0  0.15824  0.38963  0.88718  1.0000
  H   H355      1.0  0.22700  0.36975  0.73891  1.0000
  S   S118      1.0  0.07698  0.55763  0.90480  1.0000
  C   C354      1.0  0.04086  0.51945  0.83191  1.0000
  C   C355      1.0  0.17775  0.60749  0.94318  1.0000
  C   C356      1.0  0.19591  0.45141  0.89084  1.0000
  C   C357      1.0  0.08547  0.57128  0.95640  1.0000
  N   N28       1.0  0.14889  0.37824  0.87943  1.0000
  Fe  Fe59      1.0  0.06212  0.61265  0.84134  1.0000
  C   C358      1.0  0.09980  0.34289  0.93692  1.0000
  C   C359      1.0  0.18285  0.57383  0.81880  1.0000
  C   C360      1.0  0.19918  0.44769  0.87054  1.0000
  C   C361      1.0  0.12431  0.47517  0.95942  1.0000
  S   S119      1.0  0.99844  0.58363  0.92286  1.0000
  Fe  Fe60      1.0  0.10916  0.59996  0.83641  1.0000
  C   C362      1.0  0.18071  0.53776  0.83439  1.0000
  Fe  Fe61      1.0  0.18573  0.34952  0.96569  1.0000
  H   H356      1.0  0.01502  0.61844  0.89447  1.0000
  S   S120      1.0  0.11112  0.59140  0.96613  1.0000
  C   C363      1.0  0.19694  0.57264  0.83133  1.0000
  C   C364      1.0  0.11113  0.58504  0.92740  1.0000
  S   S121      1.0  0.14570  0.50465  0.95931  1.0000
  C   C365      1.0  0.21425  0.34372  0.81626  1.0000
  S   S122      1.0  0.16920  0.36070  0.93851  1.0000
  C   C366      1.0  0.14403  0.48021  0.95544  1.0000
  N   N29       1.0  0.12969  0.50808  0.88952  1.0000
  C   C367      1.0  0.14755  0.49431  0.88294  1.0000
  C   C368      1.0  0.11474  0.51578  0.87754  1.0000
  C   C369      1.0  0.15117  0.48873  0.86343  1.0000
  C   C370      1.0  0.11792  0.51062  0.85791  1.0000
  C   C371      1.0  0.13636  0.49720  0.85077  1.0000
  C   C372      1.0  0.12608  0.51422  0.90977  1.0000
  H   H357      1.0  0.15909  0.48756  0.89277  1.0000
  H   H358      1.0  0.10032  0.52617  0.88303  1.0000
  H   H359      1.0  0.16528  0.47783  0.85813  1.0000
  H   H360      1.0  0.10621  0.51709  0.84823  1.0000
  H   H361      1.0  0.13908  0.49323  0.83551  1.0000
  H   H362      1.0  0.14073  0.51060  0.91583  1.0000
  H   H363      1.0  0.12000  0.53142  0.90822  1.0000
  H   H364      1.0  0.11452  0.50588  0.92153  1.0000
  S   S123      1.0  0.19668  0.39820  0.92346  1.0000
  H   H365      1.0  0.07091  0.62171  0.93974  1.0000
  H   H366      1.0  0.19983  0.52257  0.85725  1.0000
  C   C373      1.0  0.01045  0.54289  0.84685  1.0000
  H   H367      1.0  0.08969  0.39096  0.95573  1.0000
  C   C374      1.0  0.07179  0.51432  0.98451  1.0000
  C   C375      1.0  0.06234  0.36720  0.92639  1.0000
  C   C376      1.0  0.17446  0.55637  0.82059  1.0000
  H   H368      1.0  0.21584  0.54149  0.87252  1.0000
  H   H369      1.0  0.09000  0.41836  0.95202  1.0000
  H   H370      1.0  0.18730  0.44186  0.90387  1.0000
  H   H371      1.0  0.03341  0.57799  0.94192  1.0000
  H   H372      1.0  0.06755  0.40770  0.96817  1.0000
  C   C377      1.0  0.12552  0.41407  0.89395  1.0000
  Fe  Fe62      1.0  0.99387  0.44487  0.78641  1.0000
  S   S124      1.0  0.19147  0.42577  0.86723  1.0000
  Fe  Fe63      1.0  0.19266  0.55425  0.91701  1.0000
  H   H373      1.0  0.08638  0.46332  0.75842  1.0000
  H   H374      1.0  0.09972  0.40730  0.88503  1.0000
  N   N30       1.0  0.04953  0.62181  0.76829  1.0000
  C   C378      1.0  0.03480  0.62460  0.75656  1.0000
  C   C379      1.0  0.05148  0.63819  0.77581  1.0000
  C   C380      1.0  0.02706  0.36419  0.84368  1.0000
  C   C381      1.0  0.02687  0.38496  0.84377  1.0000
  H   H375      1.0  0.99540  0.55151  0.96792  1.0000
  S   S125      1.0  0.23507  0.39613  0.95965  1.0000
  C   C382      1.0  0.03905  0.63886  0.94587  1.0000
  H   H376      1.0  0.22766  0.48508  0.84424  1.0000
  C   C383      1.0  0.21895  0.33576  0.87919  1.0000
  C   C384      1.0  0.02283  0.59421  0.96787  1.0000
  N   N31       1.0  0.03411  0.62441  0.91253  1.0000
  H   H377      1.0  0.05669  0.59360  0.79041  1.0000
  C   C385      1.0  0.15807  0.59436  0.97726  1.0000
  H   H378      1.0  0.03697  0.48807  0.83490  1.0000
  H   H379      1.0  0.16313  0.55737  0.81129  1.0000
  Fe  Fe64      1.0  0.21022  0.38407  0.95217  1.0000
  C   C386      1.0  0.14673  0.40771  0.89450  1.0000
  H   H380      1.0  0.22720  0.36721  0.56688  1.0000
  H   H381      1.0  0.03260  0.60255  0.82399  1.0000
  S   S126      1.0  0.18254  0.54397  0.95175  1.0000
  S   S127      1.0  0.21768  0.35152  0.94609  1.0000
  C   C387      1.0  0.06255  0.60096  0.77386  1.0000
  H   H382      1.0  0.00847  0.41330  0.85371  1.0000
  S   S128      1.0  0.22980  0.49572  0.88248  1.0000
  N   N32       1.0  0.19603  0.59649  0.94922  1.0000
  C   C388      1.0  0.15855  0.60661  0.95709  1.0000
  Fe  Fe65      1.0  0.17572  0.51611  0.94397  1.0000
  S   S129      1.0  0.13695  0.41768  0.94547  1.0000
  C   C389      1.0  0.20981  0.46054  0.85360  1.0000
  H   H383      1.0  0.16880  0.63077  0.83534  1.0000
  C   C390      1.0  0.11177  0.38517  0.98396  1.0000
  H   H384      1.0  0.12399  0.59324  0.92140  1.0000
  Fe  Fe66      1.0  0.21544  0.52551  0.95042  1.0000
  H   H385      1.0  0.17466  0.52395  0.83546  1.0000
  C   C391      1.0  0.01788  0.63500  0.82335  1.0000
  S   S130      1.0  0.03498  0.63965  0.83668  1.0000
  C   C392      1.0  0.02935  0.50352  0.83807  1.0000
  H   H386      1.0  0.06623  0.60938  0.90983  1.0000
  H   H387      1.0  0.14789  0.40660  0.76419  1.0000
  H   H388      1.0  0.12997  0.40184  0.78939  1.0000
  H   H389      1.0  0.16465  0.34075  0.77917  1.0000
  C   C393      1.0  0.05316  0.61927  0.91815  1.0000
  C   C394      1.0  0.01977  0.64429  0.93982  1.0000
  H   H390      1.0  0.00947  0.33980  0.85290  1.0000
  C   C395      1.0  0.08384  0.35127  0.95234  1.0000
  H   H391      1.0  0.08619  0.34859  0.96819  1.0000
  C   C396      1.0  0.09671  0.34580  0.91644  1.0000
  H   H392      1.0  0.07908  0.60210  0.77212  1.0000
  H   H393      1.0  0.00190  0.48017  0.84222  1.0000
  H   H394      1.0  0.17786  0.61669  0.92737  1.0000
  H   H395      1.0  0.13553  0.38422  0.77192  1.0000
  H   H396      1.0  0.03889  0.59980  0.89617  1.0000
  S   S131      1.0  0.22982  0.52577  0.97767  1.0000
  C   C397      1.0  0.00889  0.39707  0.85373  1.0000
  C   C398      1.0  0.23434  0.33143  0.86156  1.0000
  H   H397      1.0  0.21350  0.37249  0.60339  1.0000
  H   H398      1.0  0.06258  0.59025  0.76368  1.0000
  C   C399      1.0  0.00790  0.61205  0.80666  1.0000
  H   H399      1.0  0.01030  0.59682  0.80280  1.0000
  S   S132      1.0  0.11653  0.33388  0.89786  1.0000
  H   H400      1.0  0.21731  0.45340  0.98468  1.0000
  H   H401      1.0  0.21015  0.57533  0.97362  1.0000
  H   H402      1.0  0.24062  0.35471  0.66826  1.0000
  H   H403      1.0  0.22121  0.58182  0.92835  1.0000
  H   H404      1.0  0.21070  0.35428  0.82708  1.0000
  H   H405      1.0  0.11843  0.54323  0.97904  1.0000
  H   H406      1.0  0.03253  0.61148  0.75136  1.0000
  H   H407      1.0  0.03815  0.59099  0.97157  1.0000
  H   H408      1.0  0.01479  0.40365  0.94013  1.0000
  C   C400      1.0  0.99457  0.43788  0.95984  1.0000
  C   C401      1.0  0.99706  0.49037  0.85400  1.0000
  C   C402      1.0  0.08968  0.52231  0.98211  1.0000
  C   C403      1.0  0.00211  0.65142  0.81638  1.0000
  N   N33       1.0  0.99762  0.41657  0.96663  1.0000
  H   H409      1.0  0.23389  0.43275  0.92142  1.0000
  H   H410      1.0  0.04069  0.64391  0.95936  1.0000
  C   C404      1.0  0.23128  0.34475  0.79942  1.0000
  H   H411      1.0  0.14317  0.59335  0.98803  1.0000
  C   C405      1.0  0.02193  0.64430  0.75165  1.0000
  C   C406      1.0  0.03877  0.65805  0.77132  1.0000
  H   H412      1.0  0.99977  0.48076  0.86949  1.0000
  C   C407      1.0  0.99918  0.40776  0.98702  1.0000
  C   C408      1.0  0.99979  0.40322  0.95169  1.0000
  H   H413      1.0  0.00990  0.64630  0.74283  1.0000
  H   H414      1.0  0.19558  0.40793  0.98814  1.0000
  S   S133      1.0  0.99711  0.33700  0.95385  1.0000
  H   H415      1.0  0.00642  0.65343  0.94871  1.0000
  H   H416      1.0  0.24069  0.35642  0.79681  1.0000
  H   H417      1.0  0.99358  0.44486  0.94363  1.0000
  H   H418      1.0  0.24261  0.47703  0.98622  1.0000
  H   H419      1.0  0.19376  0.32499  0.90306  1.0000
  Fe  Fe67      1.0  0.07391  0.84657  0.33354  1.0000
  S   S134      1.0  0.06391  0.82004  0.32673  1.0000
  S   S135      1.0  0.07516  0.87750  0.31145  1.0000
  Fe  Fe68      1.0  0.07993  0.82349  0.37734  1.0000
  S   S136      1.0  0.07058  0.79489  0.37443  1.0000
  S   S137      1.0  0.09092  0.82273  0.40634  1.0000
  Fe  Fe69      1.0  0.09020  0.79987  0.34201  1.0000
  S   S138      1.0  0.11513  0.77307  0.33226  1.0000
  Fe  Fe70      1.0  0.04527  0.81786  0.35979  1.0000
  C   C409      1.0  0.19704  0.78375  0.04055  1.0000
  S   S139      1.0  0.10181  0.82665  0.34603  1.0000
  S   S140      1.0  0.05311  0.84622  0.36528  1.0000
  H   H420      1.0  0.15333  0.77743  0.28193  1.0000
  H   H421      1.0  0.16196  0.96832  0.41798  1.0000
  C   C410      1.0  0.14208  0.78828  0.27330  1.0000
  Fe  Fe71      1.0  0.13577  0.68357  0.10846  1.0000
  S   S141      1.0  0.16786  0.68128  0.08794  1.0000
  C   C411      1.0  0.22889  0.79834  0.44983  1.0000
  Fe  Fe72      1.0  0.14103  0.71906  0.12717  1.0000
  S   S142      1.0  0.17307  0.71938  0.10770  1.0000
  S   S143      1.0  0.12886  0.74410  0.14694  1.0000
  Fe  Fe73      1.0  0.15990  0.71633  0.08162  1.0000
  S   S144      1.0  0.16787  0.73591  0.04964  1.0000
  Fe  Fe74      1.0  0.17773  0.68448  0.11618  1.0000
  C   C412      1.0  0.22456  0.68351  0.14990  1.0000
  S   S145      1.0  0.12696  0.71883  0.10010  1.0000
  S   S146      1.0  0.14643  0.68392  0.13771  1.0000
  C   C413      1.0  0.10311  0.70932  0.33719  1.0000
  S   S147      1.0  0.17201  0.70466  0.25913  1.0000
  C   C414      1.0  0.19464  0.75278  0.99560  1.0000
  C   C415      1.0  0.01104  0.80623  0.48416  1.0000
  C   C416      1.0  0.15615  0.98370  0.48405  1.0000
  C   C417      1.0  0.09072  0.87678  0.44828  1.0000
  C   C418      1.0  0.22765  0.75165  0.00532  1.0000
  C   C419      1.0  0.03438  0.95383  0.33886  1.0000
  H   H422      1.0  0.11043  0.82498  0.46029  1.0000
  Fe  Fe75      1.0  0.18412  0.78586  0.21299  1.0000
  S   S148      1.0  0.16678  0.81824  0.20164  1.0000
  S   S149      1.0  0.17611  0.75508  0.21310  1.0000
  Fe  Fe76      1.0  0.21940  0.80230  0.22055  1.0000
  S   S150      1.0  0.20527  0.83608  0.20891  1.0000
  S   S151      1.0  0.17418  0.94456  0.32280  1.0000
  Fe  Fe77      1.0  0.17519  0.82728  0.22820  1.0000
  S   S152      1.0  0.15173  0.84772  0.24938  1.0000
  Fe  Fe78      1.0  0.19844  0.82391  0.18358  1.0000
  C   C420      1.0  0.08191  0.93476  0.27734  1.0000
  S   S153      1.0  0.18975  0.79406  0.24133  1.0000
  S   S154      1.0  0.21530  0.79100  0.19363  1.0000
  H   H423      1.0  0.15082  0.68772  0.34963  1.0000
  C   C421      1.0  0.99695  0.87762  0.38171  1.0000
  H   H424      1.0  0.08624  0.83840  0.28125  1.0000
  C   C422      1.0  0.21856  0.80106  0.47007  1.0000
  C   C423      1.0  0.21874  0.94530  0.40974  1.0000
  C   C424      1.0  0.07384  0.82496  0.44715  1.0000
  C   C425      1.0  0.16044  0.86016  0.26493  1.0000
  C   C426      1.0  0.14574  0.87215  0.27856  1.0000
  H   H425      1.0  0.10795  0.68118  0.03530  1.0000
  Fe  Fe79      1.0  0.14811  0.66002  0.25426  1.0000
  H   H426      1.0  0.20814  0.73061  0.16502  1.0000
  C   C427      1.0  0.18175  0.85818  0.26405  1.0000
  H   H427      1.0  0.12920  0.87393  0.27925  1.0000
  C   C428      1.0  0.22367  0.96220  0.48745  1.0000
  H   H428      1.0  0.19319  0.84936  0.25333  1.0000
  H   H429      1.0  0.10729  0.84017  0.29217  1.0000
  S   S155      1.0  0.11575  0.66067  0.10906  1.0000
  N   N34       1.0  0.19727  0.79323  0.44337  1.0000
  S   S156      1.0  0.23324  0.79390  0.37531  1.0000
  H   H430      1.0  0.13252  0.80918  0.29492  1.0000
  C   C429      1.0  0.22190  0.71935  0.28352  1.0000
  H   H431      1.0  0.04635  0.92301  0.35577  1.0000
  Fe  Fe80      1.0  0.16777  0.67478  0.28212  1.0000
  S   S157      1.0  0.20820  0.66802  0.12528  1.0000
  C   C430      1.0  0.20586  0.74354  0.15182  1.0000
  C   C431      1.0  0.06847  0.94327  0.34847  1.0000
  C   C432      1.0  0.10588  0.66965  0.04977  1.0000
  C   C433      1.0  0.18549  0.75067  0.05044  1.0000
  C   C434      1.0  0.20278  0.74125  0.05991  1.0000
  H   H432      1.0  0.23938  0.95215  0.34992  1.0000
  C   C435      1.0  0.21445  0.77435  0.04971  1.0000
  C   C436      1.0  0.18267  0.77189  0.04076  1.0000
  C   C437      1.0  0.03822  0.97397  0.32959  1.0000
  C   C438      1.0  0.01795  0.81974  0.40691  1.0000
  H   H433      1.0  0.16925  0.77922  0.03359  1.0000
  C   C439      1.0  0.13536  0.83041  0.47131  1.0000
  C   C440      1.0  0.22549  0.68753  0.16905  1.0000
  C   C441      1.0  0.06448  0.95109  0.27948  1.0000
  C   C442      1.0  0.00206  0.98822  0.37724  1.0000
  C   C443      1.0  0.13014  0.80625  0.28064  1.0000
  H   H434      1.0  0.19884  0.79659  0.13902  1.0000
  C   C444      1.0  0.10510  0.67072  0.21736  1.0000
  C   C445      1.0  0.23366  0.95007  0.36675  1.0000
  S   S158      1.0  0.13456  0.67785  0.28010  1.0000
  C   C446      1.0  0.22772  0.82662  0.29087  1.0000
  C   C447      1.0  0.14413  0.74735  0.16339  1.0000
  C   C448      1.0  0.15700  0.73016  0.17367  1.0000
  C   C449      1.0  0.16650  0.73275  0.18900  1.0000
  C   C450      1.0  0.16406  0.75262  0.19352  1.0000
  C   C451      1.0  0.15185  0.76994  0.18266  1.0000
  C   C452      1.0  0.14163  0.76723  0.16796  1.0000
  H   H435      1.0  0.15906  0.71472  0.17042  1.0000
  H   H436      1.0  0.17595  0.71931  0.19729  1.0000
  H   H437      1.0  0.14977  0.78533  0.18602  1.0000
  H   H438      1.0  0.13157  0.78058  0.16023  1.0000
  N   N35       1.0  0.22610  0.73727  0.26959  1.0000
  C   C453      1.0  0.11362  0.67106  0.06686  1.0000
  H   H439      1.0  0.01989  0.94996  0.33871  1.0000
  H   H440      1.0  0.04893  0.94840  0.28104  1.0000
  H   H441      1.0  0.02686  0.67373  0.08762  1.0000
  H   H442      1.0  0.20347  0.91468  0.37427  1.0000
  H   H443      1.0  0.12161  0.68358  0.06545  1.0000
  H   H444      1.0  0.03413  0.81286  0.40160  1.0000
  H   H445      1.0  0.21928  0.85561  0.32142  1.0000
  C   C454      1.0  0.04969  0.88918  0.30760  1.0000
  C   C455      1.0  0.03761  0.87773  0.30263  1.0000
  C   C456      1.0  0.01742  0.88732  0.29911  1.0000
  C   C457      1.0  0.00912  0.90825  0.30094  1.0000
  C   C458      1.0  0.02115  0.91959  0.30615  1.0000
  C   C459      1.0  0.04138  0.91003  0.30953  1.0000
  H   H446      1.0  0.04392  0.86159  0.30114  1.0000
  N   N36       1.0  0.21248  0.74141  0.00540  1.0000
  H   H447      1.0  0.01492  0.93575  0.30753  1.0000
  H   H448      1.0  0.05049  0.91868  0.31398  1.0000
  C   C460      1.0  0.11324  0.76244  0.31179  1.0000
  C   C461      1.0  0.09735  0.77097  0.30031  1.0000
  C   C462      1.0  0.09706  0.76223  0.28348  1.0000
  C   C463      1.0  0.11247  0.74485  0.27844  1.0000
  C   C464      1.0  0.12778  0.73602  0.29049  1.0000
  C   C465      1.0  0.12839  0.74499  0.30685  1.0000
  H   H449      1.0  0.08561  0.78449  0.30407  1.0000
  H   H450      1.0  0.08513  0.76909  0.27421  1.0000
  H   H451      1.0  0.13934  0.72234  0.28715  1.0000
  H   H452      1.0  0.14070  0.73835  0.31569  1.0000
  H   H453      1.0  0.10606  0.85297  0.26565  1.0000
  C   C466      1.0  0.06035  0.83439  0.46328  1.0000
  C   C467      1.0  0.04939  0.93857  0.34857  1.0000
  C   C468      1.0  0.06956  0.71394  0.05805  1.0000
  S   S159      1.0  0.08735  0.92419  0.36042  1.0000
  C   C469      1.0  0.07619  0.73874  0.34850  1.0000
  H   H454      1.0  0.05342  0.98327  0.28231  1.0000
  C   C470      1.0  0.05566  0.85003  0.42162  1.0000
  C   C471      1.0  0.07181  0.83298  0.42628  1.0000
  C   C472      1.0  0.10893  0.72642  0.36147  1.0000
  H   H455      1.0  0.09126  0.67305  0.24949  1.0000
  H   H456      1.0  0.21695  0.68796  0.28758  1.0000
  H   H457      1.0  0.05393  0.85628  0.40555  1.0000
  H   H458      1.0  0.17051  0.79545  0.46831  1.0000
  C   C473      1.0  0.22831  0.73872  0.24848  1.0000
  N   N37       1.0  0.10513  0.71324  0.21061  1.0000
  C   C474      1.0  0.09721  0.70284  0.23019  1.0000
  C   C475      1.0  0.11347  0.70269  0.19446  1.0000
  C   C476      1.0  0.09706  0.68144  0.23386  1.0000
  H   H459      1.0  0.22615  0.76836  0.99889  1.0000
  H   H460      1.0  0.23818  0.69410  0.17006  1.0000
  C   C477      1.0  0.10603  0.73543  0.20724  1.0000
  H   H461      1.0  0.09130  0.71099  0.24319  1.0000
  H   H462      1.0  0.12030  0.71073  0.17912  1.0000
  H   H463      1.0  0.23263  0.69254  0.02979  1.0000
  H   H464      1.0  0.18212  0.67033  0.19933  1.0000
  H   H465      1.0  0.11066  0.87427  0.46959  1.0000
  H   H466      1.0  0.10412  0.74384  0.19110  1.0000
  H   H467      1.0  0.09349  0.74358  0.21846  1.0000
  H   H468      1.0  0.12133  0.73674  0.20960  1.0000
  C   C478      1.0  0.19374  0.67438  0.18555  1.0000
  H   H469      1.0  0.18731  0.97652  0.35181  1.0000
  S   S160      1.0  0.21227  0.68657  0.21105  1.0000
  N   N38       1.0  0.10891  0.91024  0.42422  1.0000
  H   H470      1.0  0.22834  0.82761  0.32926  1.0000
  C   C479      1.0  0.16628  0.95911  0.46058  1.0000
  C   C480      1.0  0.23081  0.85674  0.39127  1.0000
  H   H471      1.0  0.11034  0.93744  0.39931  1.0000
  H   H472      1.0  0.21252  0.94349  0.42648  1.0000
  S   S161      1.0  0.15735  0.88000  0.47587  1.0000
  S   S162      1.0  0.13965  0.93622  0.45674  1.0000
  C   C481      1.0  0.12264  0.69580  0.33734  1.0000
  H   H473      1.0  0.22997  0.91136  0.35979  1.0000
  H   H474      1.0  0.07636  0.75435  0.35123  1.0000
  H   H475      1.0  0.14775  0.76993  0.24958  1.0000
  C   C482      1.0  0.18827  0.86773  0.27698  1.0000
  N   N39       1.0  0.09664  0.72460  0.34893  1.0000
  H   H476      1.0  0.10392  0.73869  0.37058  1.0000
  H   H477      1.0  0.02361  0.82545  0.43483  1.0000
  S   S163      1.0  0.14784  0.84120  0.44618  1.0000
  C   C483      1.0  0.04216  0.85955  0.43781  1.0000
  H   H478      1.0  0.22616  0.79220  0.42095  1.0000
  C   C484      1.0  0.09429  0.90430  0.41736  1.0000
  H   H479      1.0  0.20470  0.86649  0.27594  1.0000
  Fe  Fe81      1.0  0.16646  0.86279  0.44952  1.0000
  C   C485      1.0  0.21797  0.79429  0.43665  1.0000
  C   C486      1.0  0.23121  0.82494  0.26988  1.0000
  S   S164      1.0  0.14753  0.91239  0.35812  1.0000
  C   C487      1.0  0.07237  0.96332  0.33890  1.0000
  C   C488      1.0  0.21309  0.84779  0.39690  1.0000
  H   H480      1.0  0.06076  0.67488  0.11094  1.0000
  H   H481      1.0  0.08379  0.86364  0.45764  1.0000
  C   C489      1.0  0.19639  0.79438  0.10057  1.0000
  C   C490      1.0  0.22020  0.70214  0.27643  1.0000
  H   H482      1.0  0.20006  0.82233  0.39537  1.0000
  H   H483      1.0  0.09348  0.70795  0.32712  1.0000
  S   S165      1.0  0.02992  0.86555  0.47835  1.0000
  C   C491      1.0  0.19749  0.79983  0.47682  1.0000
  H   H484      1.0  0.14088  0.89077  0.30195  1.0000
  H   H485      1.0  0.22049  0.82342  0.10848  1.0000
  Fe  Fe82      1.0  0.11888  0.93254  0.34719  1.0000
  H   H486      1.0  0.24077  0.68604  0.06445  1.0000
  C   C492      1.0  0.17368  0.87924  0.29099  1.0000
  C   C493      1.0  0.20430  0.73984  0.13284  1.0000
  H   H487      1.0  0.02992  0.87299  0.43421  1.0000
  N   N40       1.0  0.22125  0.93581  0.37690  1.0000
  H   H488      1.0  0.22115  0.69026  0.24925  1.0000
  H   H489      1.0  0.11230  0.89366  0.33568  1.0000
  C   C494      1.0  0.15233  0.88175  0.29145  1.0000
  H   H490      1.0  0.20547  0.72395  0.13109  1.0000
  C   C495      1.0  0.24294  0.96838  0.48095  1.0000
  H   H491      1.0  0.19473  0.80023  0.03314  1.0000
  C   C496      1.0  0.21739  0.75309  0.05941  1.0000
  H   H492      1.0  0.07204  0.74172  0.33287  1.0000
  S   S166      1.0  0.14115  0.98831  0.28653  1.0000
  Fe  Fe83      1.0  0.16459  0.90785  0.45112  1.0000
  C   C497      1.0  0.20386  0.76406  0.15402  1.0000
  S   S167      1.0  0.19849  0.90185  0.45266  1.0000
  S   S168      1.0  0.11319  0.73448  0.25677  1.0000
  C   C498      1.0  0.07730  0.71571  0.07477  1.0000
  S   S169      1.0  0.16483  0.94788  0.38475  1.0000
  H   H493      1.0  0.12652  0.90414  0.44802  1.0000
  H   H494      1.0  0.06246  0.82846  0.47925  1.0000
  H   H495      1.0  0.00782  0.86266  0.38282  1.0000
  C   C499      1.0  0.04381  0.66778  0.08216  1.0000
  H   H496      1.0  0.19882  0.85514  0.40612  1.0000
  C   C500      1.0  0.22892  0.82358  0.13724  1.0000
  H   H497      1.0  0.20402  0.92200  0.40613  1.0000
  C   C501      1.0  0.11057  0.87718  0.34244  1.0000
  H   H498      1.0  0.12808  0.68410  0.32756  1.0000
  C   C502      1.0  0.13898  0.78411  0.25514  1.0000
  Fe  Fe84      1.0  0.16239  0.91570  0.32378  1.0000
  C   C503      1.0  0.13546  0.69785  0.34973  1.0000
  C   C504      1.0  0.11473  0.89968  0.44276  1.0000
  N   N41       1.0  0.12332  0.86780  0.35846  1.0000
  C   C505      1.0  0.05858  0.69804  0.06076  1.0000
  C   C506      1.0  0.11934  0.92718  0.41117  1.0000
  H   H499      1.0  0.21830  0.81673  0.30277  1.0000
  H   H500      1.0  0.11940  0.96144  0.27441  1.0000
  C   C507      1.0  0.20093  0.75681  0.11620  1.0000
  C   C508      1.0  0.12431  0.79810  0.24432  1.0000
  H   H501      1.0  0.01653  0.97659  0.37296  1.0000
  S   S170      1.0  0.18278  0.88885  0.30859  1.0000
  H   H502      1.0  0.08697  0.96714  0.33876  1.0000
  C   C509      1.0  0.10316  0.83869  0.27770  1.0000
  H   H503      1.0  0.22185  0.76999  0.26852  1.0000
  C   C510      1.0  0.00315  0.82177  0.39489  1.0000
  N   N42       1.0  0.19895  0.77691  0.11850  1.0000
  C   C511      1.0  0.20045  0.78068  0.13709  1.0000
  Fe  Fe85      1.0  0.15633  0.94311  0.35613  1.0000
  C   C512      1.0  0.11676  0.82373  0.47387  1.0000
  H   H504      1.0  0.08606  0.81151  0.45080  1.0000
  S   S171      1.0  0.13295  0.93346  0.31319  1.0000
  S   S172      1.0  0.12637  0.96292  0.34778  1.0000
  C   C513      1.0  0.17367  0.97042  0.38482  1.0000
  C   C514      1.0  0.06278  0.68606  0.09614  1.0000
  H   H505      1.0  0.00732  0.86614  0.34437  1.0000
  S   S173      1.0  0.20394  0.83598  0.14856  1.0000
  H   H506      1.0  0.23319  0.87182  0.11160  1.0000
  C   C515      1.0  0.01200  0.82694  0.42575  1.0000
  H   H507      1.0  0.15758  0.84504  0.40038  1.0000
  H   H508      1.0  0.11544  0.86827  0.32957  1.0000
  H   H509      1.0  0.09364  0.87741  0.34898  1.0000
  S   S174      1.0  0.17043  0.89129  0.42441  1.0000
  H   H510      1.0  0.19973  0.75381  0.10150  1.0000
  H   H511      1.0  0.09714  0.86702  0.38416  1.0000
  H   H512      1.0  0.08981  0.91247  0.40257  1.0000
  C   C516      1.0  0.12624  0.85555  0.39466  1.0000
  C   C517      1.0  0.12858  0.71322  0.36192  1.0000
  H   H513      1.0  0.15197  0.86661  0.33590  1.0000
  C   C518      1.0  0.11405  0.86396  0.37931  1.0000
  S   S175      1.0  0.01150  0.81576  0.36980  1.0000
  H   H514      1.0  0.17752  0.77646  0.43709  1.0000
  C   C519      1.0  0.10572  0.88285  0.45508  1.0000
  C   C520      1.0  0.11276  0.81605  0.25198  1.0000
  C   C521      1.0  0.10179  0.93852  0.27539  1.0000
  C   C522      1.0  0.14464  0.86355  0.35238  1.0000
  Fe  Fe86      1.0  0.18253  0.68423  0.23517  1.0000
  H   H515      1.0  0.17422  0.85237  0.36238  1.0000
  C   C523      1.0  0.07385  0.70174  0.09397  1.0000
  H   H516      1.0  0.21201  0.79695  0.09125  1.0000
  H   H517      1.0  0.12193  0.79494  0.23014  1.0000
  H   H518      1.0  0.23654  0.68698  0.13609  1.0000
  C   C524      1.0  0.05715  0.97872  0.32983  1.0000
  H   H519      1.0  0.06394  0.73189  0.36081  1.0000
  C   C525      1.0  0.17048  0.97515  0.46779  1.0000
  H   H520      1.0  0.20517  0.72473  0.06714  1.0000
  H   H521      1.0  0.01960  0.81922  0.47648  1.0000
  C   C526      1.0  0.14799  0.85143  0.38859  1.0000
  C   C527      1.0  0.18522  0.98100  0.36669  1.0000
  Fe  Fe87      1.0  0.14331  0.96210  0.31460  1.0000
  C   C528      1.0  0.17113  0.97632  0.40404  1.0000
  C   C529      1.0  0.14720  0.95260  0.46873  1.0000
  Fe  Fe88      1.0  0.20372  0.88212  0.42847  1.0000
  H   H522      1.0  0.17723  0.95266  0.44789  1.0000
  C   C530      1.0  0.23286  0.81899  0.11725  1.0000
  S   S176      1.0  0.19995  0.85246  0.45210  1.0000
  C   C531      1.0  0.23236  0.81899  0.37943  1.0000
  H   H523      1.0  0.07330  0.88296  0.42383  1.0000
  N   N43       1.0  0.08670  0.97439  0.27826  1.0000
  H   H524      1.0  0.11887  0.85186  0.41115  1.0000
  H   H525      1.0  0.00817  0.87848  0.29508  1.0000
  H   H526      1.0  0.20455  0.76704  0.16890  1.0000
  H   H527      1.0  0.15813  0.83395  0.48691  1.0000
  Fe  Fe89      1.0  0.13958  0.70628  0.25523  1.0000
  C   C532      1.0  0.11354  0.68131  0.19756  1.0000
  C   C533      1.0  0.21399  0.93317  0.39815  1.0000
  H   H528      1.0  0.13857  0.71519  0.37133  1.0000
  C   C534      1.0  0.08490  0.88758  0.42932  1.0000
  H   H529      1.0  0.08040  0.70251  0.10687  1.0000
  C   C535      1.0  0.23144  0.70915  0.02281  1.0000
  H   H530      1.0  0.12036  0.67294  0.18478  1.0000
  H   H531      1.0  0.07999  0.91917  0.27741  1.0000
  C   C536      1.0  0.10391  0.95859  0.27580  1.0000
  C   C537      1.0  0.15731  0.85543  0.36732  1.0000
  H   H532      1.0  0.08637  0.72758  0.07276  1.0000
  H   H533      1.0  0.19610  0.78585  0.41446  1.0000
  C   C538      1.0  0.22259  0.70344  0.25495  1.0000
  H   H534      1.0  0.17376  0.80409  0.42524  1.0000
  H   H535      1.0  0.10151  0.82699  0.24341  1.0000
  H   H536      1.0  0.18776  0.79106  0.09010  1.0000
  C   C539      1.0  0.21014  0.68284  0.18692  1.0000
  C   C540      1.0  0.21382  0.82914  0.39082  1.0000
  C   C541      1.0  0.20832  0.67475  0.14865  1.0000
  H   H537      1.0  0.21005  0.93350  0.35090  1.0000
  H   H538      1.0  0.18740  0.80909  0.10584  1.0000
  H   H539      1.0  0.00075  0.88263  0.41089  1.0000
  H   H540      1.0  0.11544  0.92589  0.27383  1.0000
  S   S177      1.0  0.17401  0.66840  0.31450  1.0000
  C   C542      1.0  0.23861  0.96258  0.37784  1.0000
  S   S178      1.0  0.15035  0.68872  0.22885  1.0000
  H   H541      1.0  0.18024  0.74676  0.00425  1.0000
  C   C543      1.0  0.21599  0.92325  0.36479  1.0000
  C   C544      1.0  0.18564  0.78971  0.42930  1.0000
  S   S179      1.0  0.23231  0.78961  0.04847  1.0000
  N   N44       1.0  0.11565  0.81983  0.27001  1.0000
  C   C545      1.0  0.19273  0.67048  0.16637  1.0000
  H   H542      1.0  0.07251  0.72444  0.04293  1.0000
  H   H543      1.0  0.20204  0.71239  0.01428  1.0000
  C   C546      1.0  0.04483  0.85200  0.45859  1.0000
  H   H544      1.0  0.12145  0.93731  0.42094  1.0000
  H   H545      1.0  0.19111  0.76975  0.99607  1.0000
  C   C547      1.0  0.21425  0.72041  0.01389  1.0000
  C   C548      1.0  0.06715  0.97087  0.28008  1.0000
  N   N45       1.0  0.05554  0.68421  0.07956  1.0000
  Fe  Fe90      1.0  0.19142  0.87282  0.47596  1.0000
  H   H546      1.0  0.23089  0.74578  0.06645  1.0000
  H   H547      1.0  0.13507  0.92040  0.40280  1.0000
  S   S180      1.0  0.23022  0.87922  0.40054  1.0000
  C   C549      1.0  0.18700  0.79598  0.46314  1.0000
  H   H548      1.0  0.04617  0.66260  0.06709  1.0000
  H   H549      1.0  0.18461  0.98110  0.46055  1.0000
  H   H550      1.0  0.22740  0.72326  0.22419  1.0000
  H   H551      1.0  0.21998  0.71816  0.30025  1.0000
  H   H552      1.0  0.05318  0.69632  0.04749  1.0000
  C   C550      1.0  0.22628  0.72194  0.24087  1.0000
  C   C551      1.0  0.13318  0.96073  0.48539  1.0000
  H   H553      1.0  0.22497  0.81360  0.26564  1.0000
  H   H554      1.0  0.24193  0.82217  0.16345  1.0000
  H   H555      1.0  0.22671  0.80462  0.48034  1.0000
  C   C552      1.0  0.23098  0.96022  0.39945  1.0000
  H   H556      1.0  0.00882  0.80006  0.47120  1.0000
  H   H557      1.0  0.22109  0.94930  0.48210  1.0000
  H   H558      1.0  0.18023  0.66357  0.16546  1.0000
  H   H559      1.0  0.23163  0.75294  0.23744  1.0000
  C   C553      1.0  0.22927  0.75466  0.27711  1.0000
  H   H560      1.0  0.22245  0.75376  0.29413  1.0000
  H   H561      1.0  0.23409  0.97034  0.40809  1.0000
  N   N46       1.0  0.23618  0.84047  0.29631  1.0000
  C   C554      1.0  0.14371  0.82879  0.48883  1.0000
  C   C555      1.0  0.23235  0.84216  0.31836  1.0000
  C   C556      1.0  0.24298  0.83787  0.25437  1.0000
  C   C557      1.0  0.99316  0.88899  0.39752  1.0000
  Fe  Fe91      1.0  0.06728  0.82230  0.53721  1.0000
  S   S181      1.0  0.06415  0.85595  0.52055  1.0000
  S   S182      1.0  0.10049  0.80563  0.53674  1.0000
  Fe  Fe92      1.0  0.02064  0.82496  0.55218  1.0000
  S   S183      1.0  0.01390  0.85928  0.53747  1.0000
  H   H562      1.0  0.05344  0.93739  0.60114  1.0000
  Fe  Fe93      1.0  0.03780  0.85012  0.50985  1.0000
  C   C558      1.0  0.99502  0.75664  0.60005  1.0000
  Fe  Fe94      1.0  0.04093  0.86206  0.54967  1.0000
  S   S184      1.0  0.04121  0.89084  0.56097  1.0000
  S   S185      1.0  0.04307  0.81557  0.52353  1.0000
  S   S186      1.0  0.04547  0.82868  0.56727  1.0000
  H   H563      1.0  0.00240  0.83679  0.50544  1.0000
  N   N47       1.0  0.12814  0.89200  0.53549  1.0000
  C   C559      1.0  0.19302  0.94936  0.69936  1.0000
  H   H564      1.0  0.01464  0.95638  0.49176  1.0000
  C   C560      1.0  0.14354  0.88394  0.54690  1.0000
  C   C561      1.0  0.14738  0.86264  0.55631  1.0000
  H   H565      1.0  0.00057  0.89608  0.50058  1.0000
  H   H566      1.0  0.21790  0.96876  0.63099  1.0000
  C   C562      1.0  0.20755  0.97284  0.50097  1.0000
  H   H567      1.0  0.18920  0.80231  0.49239  1.0000
  H   H568      1.0  0.01315  0.73789  0.57730  1.0000
  H   H569      1.0  0.02213  0.91383  0.59704  1.0000
  N   N48       1.0  0.02178  0.93522  0.61551  1.0000
  H   H570      1.0  0.22330  0.93870  0.68102  1.0000
  C   C563      1.0  0.99858  0.78314  0.54302  1.0000
  C   C564      1.0  0.03534  0.96663  0.60872  1.0000
  Fe  Fe95      1.0  0.14033  0.95368  0.61448  1.0000
  H   H571      1.0  0.20568  0.89962  0.55960  1.0000
  S   S187      1.0  0.14346  0.96539  0.64254  1.0000
  Fe  Fe96      1.0  0.12723  0.92049  0.59813  1.0000
  S   S188      1.0  0.13029  0.93932  0.56543  1.0000
  S   S189      1.0  0.11673  0.89002  0.60206  1.0000
  Fe  Fe97      1.0  0.15925  0.94537  0.57097  1.0000
  S   S190      1.0  0.18793  0.94309  0.54566  1.0000
  Fe  Fe98      1.0  0.11389  0.96647  0.58075  1.0000
  Fe  Fe99      1.0  0.00188  0.96408  0.54101  1.0000
  S   S191      1.0  0.15807  0.92417  0.60272  1.0000
  S   S192      1.0  0.10916  0.94751  0.61349  1.0000
  H   H572      1.0  0.10933  0.84816  0.54163  1.0000
  H   H573      1.0  0.15293  0.89396  0.54890  1.0000
  H   H574      1.0  0.00563  0.86942  0.58430  1.0000
  N   N49       1.0  0.16390  0.94065  0.69132  1.0000
  H   H575      1.0  0.13769  0.92160  0.52426  1.0000
  S   S193      1.0  0.03447  0.96014  0.52130  1.0000
  H   H576      1.0  0.15964  0.85638  0.56531  1.0000
  H   H577      1.0  0.19897  0.95780  0.70761  1.0000
  C   C565      1.0  0.99893  0.96692  0.62442  1.0000
  C   C566      1.0  0.17152  0.95021  0.70266  1.0000
  H   H578      1.0  0.17516  0.93772  0.50988  1.0000
  H   H579      1.0  0.04208  0.92591  0.49224  1.0000
  C   C567      1.0  0.12412  0.91437  0.52579  1.0000
  C   C568      1.0  0.20210  0.97440  0.63886  1.0000
  H   H580      1.0  0.00275  0.76209  0.52210  1.0000
  H   H581      1.0  0.13478  0.93595  0.71126  1.0000
  C   C569      1.0  0.03984  0.98432  0.54575  1.0000
  H   H582      1.0  0.11023  0.92274  0.53555  1.0000
  C   C570      1.0  0.04954  0.96910  0.53364  1.0000
  C   C571      1.0  0.20672  0.93859  0.68441  1.0000
  H   H583      1.0  0.02338  0.99105  0.54678  1.0000
  H   H584      1.0  0.12724  0.98182  0.50657  1.0000
  C   C572      1.0  0.08249  0.96711  0.54320  1.0000
  C   C573      1.0  0.07102  0.96088  0.53188  1.0000
  C   C574      1.0  0.19884  0.92877  0.67302  1.0000
  H   H585      1.0  0.18806  0.95947  0.62244  1.0000
  H   H586      1.0  0.09899  0.96066  0.54195  1.0000
  H   H587      1.0  0.07863  0.94929  0.52228  1.0000
  C   C575      1.0  0.13516  0.84964  0.55423  1.0000
  C   C576      1.0  0.17724  0.93003  0.67662  1.0000
  C   C577      1.0  0.18297  0.92260  0.51741  1.0000
  C   C578      1.0  0.19042  0.92077  0.53555  1.0000
  C   C579      1.0  0.20004  0.90109  0.54548  1.0000
  C   C580      1.0  0.20282  0.88334  0.53693  1.0000
  C   C581      1.0  0.02461  0.91362  0.61284  1.0000
  H   H588      1.0  0.18089  0.99068  0.52942  1.0000
  H   H589      1.0  0.20928  0.92105  0.66080  1.0000
  C   C582      1.0  0.11919  0.85808  0.54295  1.0000
  S   S194      1.0  0.20040  0.86310  0.50733  1.0000
  C   C583      1.0  0.11577  0.87948  0.53376  1.0000
  H   H590      1.0  0.03681  0.90071  0.49343  1.0000
  C   C584      1.0  0.01554  0.97745  0.61677  1.0000
  C   C585      1.0  0.10611  0.81593  0.49403  1.0000
  H   H591      1.0  0.10302  0.88605  0.52545  1.0000
  C   C586      1.0  0.18563  0.90482  0.50894  1.0000
  H   H592      1.0  0.17117  0.92325  0.66696  1.0000
  H   H593      1.0  0.01387  0.78693  0.53670  1.0000
  H   H594      1.0  0.13784  0.83312  0.56159  1.0000
  H   H595      1.0  0.13997  0.81889  0.52248  1.0000
  H   H596      1.0  1.00000  0.66673  0.81997  1.0000
  H   H597      1.0  0.09153  0.81105  0.49604  1.0000
  C   C587      1.0  0.03815  0.94546  0.60803  1.0000
  H   H598      1.0  0.17967  0.90634  0.49505  1.0000
  C   C588      1.0  0.99569  0.91302  0.49825  1.0000
  N   N50       1.0  0.00971  0.92524  0.49654  1.0000
  H   H599      1.0  0.16091  0.95918  0.71381  1.0000
  H   H600      1.0  0.19249  0.96824  0.50560  1.0000
  C   C589      1.0  0.18517  0.96914  0.63392  1.0000
  C   C590      1.0  0.06320  0.89038  0.57101  1.0000
  C   C591      1.0  0.07480  0.87146  0.58022  1.0000
  C   C592      1.0  0.09120  0.87156  0.58960  1.0000
  C   C593      1.0  0.09646  0.89050  0.58949  1.0000
  C   C594      1.0  0.08526  0.90940  0.57969  1.0000
  C   C595      1.0  0.06856  0.90934  0.57069  1.0000
  H   H601      1.0  0.07079  0.85674  0.58065  1.0000
  H   H602      1.0  0.09977  0.85687  0.59712  1.0000
  H   H603      1.0  0.08916  0.92412  0.57944  1.0000
  H   H604      1.0  0.05965  0.92404  0.56359  1.0000
  S   S195      1.0  0.22079  0.98935  0.66259  1.0000
  H   H605      1.0  0.12137  0.91664  0.50967  1.0000
  H   H606      1.0  0.01358  0.67629  0.75596  1.0000
  C   C596      1.0  0.14123  0.94249  0.69464  1.0000
  H   H607      1.0  0.13356  0.95927  0.69049  1.0000
  C   C597      1.0  0.19594  0.88523  0.51846  1.0000
  C   C598      1.0  0.03091  0.91526  0.49992  1.0000
  H   H608      1.0  0.04062  0.90457  0.61428  1.0000
  C   C599      1.0  0.19881  0.98620  0.65441  1.0000
  C   C600      1.0  0.16473  0.97536  0.64475  1.0000
  C   C601      1.0  0.11451  0.81410  0.51155  1.0000
  C   C602      1.0  0.13349  0.82023  0.50893  1.0000
  H   H609      1.0  0.01323  0.90515  0.62478  1.0000
  C   C603      1.0  0.00236  0.94563  0.62375  1.0000
  S   S196      1.0  0.14330  0.97505  0.58268  1.0000
  H   H610      1.0  0.99921  0.84387  0.59359  1.0000
  H   H611      1.0  0.13711  0.93413  0.68441  1.0000
  H   H612      1.0  0.21065  0.86821  0.54443  1.0000
  H   H613      1.0  0.03087  0.91129  0.51705  1.0000
  N   N51       1.0  0.21071  0.98869  0.50840  1.0000
  C   C604      1.0  0.00359  0.94665  0.49318  1.0000
  H   H614      1.0  0.04836  0.97470  0.60257  1.0000
  H   H615      1.0  0.11841  0.95573  0.49177  1.0000
  C   C605      1.0  0.99925  0.74007  0.58953  1.0000
  C   C606      1.0  0.13805  0.97567  0.49358  1.0000
  H   H616      1.0  0.03998  0.67079  0.77786  1.0000
  S   S197      1.0  0.08575  0.98936  0.57124  1.0000
  S   S198      1.0  0.99838  0.96101  0.57552  1.0000
  C   C607      1.0  0.16139  0.98786  0.65971  1.0000
  H   H617      1.0  0.00588  0.76720  0.59577  1.0000
  H   H618      1.0  0.19799  0.75097  0.97904  1.0000
  C   C608      1.0  0.07249  0.98178  0.55597  1.0000
  C   C609      1.0  0.02393  0.66111  0.75911  1.0000
  C   C610      1.0  0.05132  0.99077  0.55672  1.0000
  H   H619      1.0  0.02072  0.79373  0.49400  1.0000
  C   C611      1.0  0.40971  0.00590  0.00575  1.0000
  C   C612      1.0  0.48071  0.08355  0.99094  1.0000
  H   H620      1.0  0.46650  0.08972  0.00116  1.0000
  C   C613      1.0  0.45648  0.03599  0.01786  1.0000
  H   H621      1.0  0.38116  0.99430  0.05523  1.0000
  C   C614      1.0  0.39478  0.99560  0.04271  1.0000
  C   C615      1.0  0.25421  0.05986  0.47472  1.0000
  S   S199      1.0  0.24720  0.03838  0.46901  1.0000
  H   H622      1.0  0.44334  0.00075  0.99760  1.0000
  H   H623      1.0  0.44323  0.05509  0.04126  1.0000
  S   S200      1.0  0.48148  0.00282  0.12199  1.0000
  C   C616      1.0  0.47696  0.04701  0.03618  1.0000
  C   C617      1.0  0.39227  0.00375  0.02200  1.0000
  H   H624      1.0  0.37419  0.32092  0.43366  1.0000
  C   C618      1.0  0.47492  0.02534  0.00696  1.0000
  C   C619      1.0  0.24783  0.08060  0.46456  1.0000
  H   H625      1.0  0.44145  0.03586  0.01487  1.0000
  S   S201      1.0  0.27777  0.11414  0.48594  1.0000
  H   H626      1.0  0.26483  0.18581  0.47204  1.0000
  C   C620      1.0  0.25497  0.09702  0.46838  1.0000
  C   C621      1.0  0.42984  0.99939  0.01018  1.0000
  H   H627      1.0  0.47762  0.05563  0.04755  1.0000
  H   H628      1.0  0.37671  0.00872  0.01862  1.0000
  H   H629      1.0  0.47441  0.01690  0.99540  1.0000
  H   H630      1.0  0.30167  0.19863  0.48467  1.0000
  C   C622      1.0  0.33385  0.19075  0.48790  1.0000
  H   H631      1.0  0.47724  0.28478  0.47797  1.0000
  H   H632      1.0  0.25227  0.15469  0.47027  1.0000
  S   S202      1.0  0.47205  0.99536  0.06833  1.0000
  H   H633      1.0  0.37966  0.29179  0.48766  1.0000
  C   C623      1.0  0.48707  0.32007  0.41814  1.0000
  H   H634      1.0  0.47845  0.31491  0.40950  1.0000
  C   C624      1.0  0.26817  0.09302  0.48273  1.0000
  H   H635      1.0  0.36805  0.24045  0.48396  1.0000
  C   C625      1.0  0.45746  0.04683  0.03263  1.0000
  H   H636      1.0  0.25043  0.11289  0.45994  1.0000
  H   H637      1.0  0.29754  0.23627  0.48556  1.0000
  H   H638      1.0  0.33585  0.17425  0.48768  1.0000
  C   C626      1.0  0.25475  0.17829  0.48559  1.0000
  C   C627      1.0  0.31237  0.22549  0.48679  1.0000
  C   C628      1.0  0.24756  0.16097  0.48452  1.0000
  C   C629      1.0  0.31470  0.20440  0.48624  1.0000
  H   H639      1.0  0.34367  0.32207  0.46367  1.0000
  H   H640      1.0  0.39075  0.32436  0.48742  1.0000
  H   H641      1.0  0.32853  0.20218  0.55508  1.0000
  S   S203      1.0  0.30938  0.05971  0.57509  1.0000
  C   C630      1.0  0.37086  0.23451  0.74070  1.0000
  C   C631      1.0  0.31623  0.01905  0.67064  1.0000
  H   H642      1.0  0.27919  0.09280  0.60833  1.0000
  S   S204      1.0  0.42458  0.06674  0.88138  1.0000
  S   S205      1.0  0.47410  0.03552  0.90421  1.0000
  Fe  Fe100     1.0  0.33794  0.05493  0.82730  1.0000
  S   S206      1.0  0.35095  0.06515  0.79301  1.0000
  S   S207      1.0  0.35882  0.03496  0.84963  1.0000
  Fe  Fe101     1.0  0.32378  0.05508  0.78738  1.0000
  S   S208      1.0  0.32654  0.04069  0.75956  1.0000
  Fe  Fe102     1.0  0.32851  0.09559  0.79644  1.0000
  S   S209      1.0  0.33690  0.12693  0.78146  1.0000
  Fe  Fe103     1.0  0.25254  0.26840  0.82883  1.0000
  C   C632      1.0  0.48626  0.29534  0.55127  1.0000
  Fe  Fe104     1.0  0.29905  0.25672  0.81101  1.0000
  S   S210      1.0  0.29424  0.24734  0.78317  1.0000
  S   S211      1.0  0.33268  0.25421  0.81155  1.0000
  Fe  Fe105     1.0  0.26943  0.27647  0.78179  1.0000
  H   H643      1.0  0.39511  0.18474  0.53580  1.0000
  Fe  Fe106     1.0  0.26984  0.23172  0.80626  1.0000
  S   S212      1.0  0.27588  0.28738  0.80788  1.0000
  S   S213      1.0  0.27647  0.23857  0.83457  1.0000
  C   C633      1.0  0.29177  0.30457  0.73944  1.0000
  H   H644      1.0  0.30445  0.18726  0.58520  1.0000
  C   C634      1.0  0.28818  0.02878  0.77368  1.0000
  H   H645      1.0  0.36064  0.18194  0.59297  1.0000
  S   S214      1.0  0.34216  0.08941  0.65156  1.0000
  Fe  Fe107     1.0  0.36991  0.10431  0.64310  1.0000
  S   S215      1.0  0.37086  0.12762  0.61282  1.0000
  Fe  Fe108     1.0  0.41530  0.16683  0.77337  1.0000
  S   S216      1.0  0.43824  0.17462  0.78763  1.0000
  S   S217      1.0  0.38188  0.16693  0.78892  1.0000
  Fe  Fe109     1.0  0.44623  0.16082  0.73274  1.0000
  N   N52       1.0  0.37797  0.99459  0.82622  1.0000
  S   S218      1.0  0.45220  0.15258  0.70097  1.0000
  S   S219      1.0  0.46093  0.00249  0.80370  1.0000
  Fe  Fe110     1.0  0.44721  0.19404  0.75538  1.0000
  S   S220      1.0  0.44891  0.22805  0.74906  1.0000
  S   S221      1.0  0.43678  0.13851  0.76267  1.0000
  S   S222      1.0  0.42231  0.18824  0.74240  1.0000
  S   S223      1.0  0.36492  0.21667  0.55596  1.0000
  S   S224      1.0  0.39991  0.21805  0.63813  1.0000
  S   S225      1.0  0.40479  0.19090  0.59276  1.0000
  S   S226      1.0  0.43301  0.27007  0.65755  1.0000
  C   C635      1.0  0.43780  0.17120  0.68368  1.0000
  C   C636      1.0  0.41815  0.18279  0.69119  1.0000
  C   C637      1.0  0.40667  0.19727  0.67711  1.0000
  C   C638      1.0  0.41456  0.19984  0.65545  1.0000
  H   H646      1.0  0.41161  0.18038  0.70781  1.0000
  H   H647      1.0  0.39160  0.20640  0.68303  1.0000
  C   C639      1.0  0.44509  0.23994  0.72347  1.0000
  C   C640      1.0  0.44875  0.22767  0.70843  1.0000
  C   C641      1.0  0.44489  0.23702  0.68827  1.0000
  C   C642      1.0  0.43697  0.25862  0.68315  1.0000
  C   C643      1.0  0.43299  0.27090  0.69827  1.0000
  C   C644      1.0  0.43737  0.26161  0.71832  1.0000
  H   H648      1.0  0.45473  0.21095  0.71225  1.0000
  H   H649      1.0  0.44766  0.22739  0.67680  1.0000
  H   H650      1.0  0.42693  0.28761  0.69440  1.0000
  H   H651      1.0  0.43454  0.27115  0.72991  1.0000
  C   C645      1.0  0.39597  0.13106  0.59937  1.0000
  C   C646      1.0  0.39798  0.14569  0.58051  1.0000
  C   C647      1.0  0.41727  0.15136  0.57104  1.0000
  C   C648      1.0  0.41375  0.12023  0.60751  1.0000
  H   H652      1.0  0.38431  0.15365  0.57400  1.0000
  H   H653      1.0  0.41839  0.16406  0.55749  1.0000
  H   H654      1.0  0.41237  0.10865  0.62194  1.0000
  H   H655      1.0  0.29574  0.06574  0.70645  1.0000
  C   C649      1.0  0.29646  0.04519  0.64725  1.0000
  H   H656      1.0  0.27502  0.20107  0.75450  1.0000
  C   C650      1.0  0.30269  0.30224  0.71918  1.0000
  Fe  Fe111     1.0  0.43258  0.02368  0.95424  1.0000
  H   H657      1.0  0.39551  0.14602  0.66076  1.0000
  C   C651      1.0  0.39688  0.00018  0.81713  1.0000
  H   H658      1.0  0.44093  0.22796  0.63028  1.0000
  H   H659      1.0  0.40868  0.99752  0.82638  1.0000
  C   C652      1.0  0.30911  0.00352  0.66567  1.0000
  S   S227      1.0  0.28264  0.22814  0.59306  1.0000
  C   C653      1.0  0.36695  0.00722  0.79314  1.0000
  H   H660      1.0  0.46574  0.11040  0.93919  1.0000
  S   S228      1.0  0.28156  0.29477  0.51322  1.0000
  H   H661      1.0  0.29015  0.99711  0.64767  1.0000
  C   C654      1.0  0.37712  0.16509  0.53007  1.0000
  C   C655      1.0  0.34672  0.23005  0.80533  1.0000
  C   C656      1.0  0.33602  0.21431  0.80680  1.0000
  C   C657      1.0  0.34700  0.19515  0.80142  1.0000
  C   C658      1.0  0.36866  0.19162  0.79436  1.0000
  C   C659      1.0  0.37947  0.20736  0.79282  1.0000
  C   C660      1.0  0.36850  0.22652  0.79852  1.0000
  H   H662      1.0  0.31928  0.21672  0.81238  1.0000
  H   H663      1.0  0.33875  0.18286  0.80309  1.0000
  H   H664      1.0  0.39627  0.20473  0.78746  1.0000
  H   H665      1.0  0.37687  0.23863  0.79747  1.0000
  C   C661      1.0  0.30437  0.03309  0.75654  1.0000
  C   C662      1.0  0.30309  0.03101  0.73666  1.0000
  H   H666      1.0  0.31576  0.03395  0.72343  1.0000
  C   C663      1.0  0.31586  0.14766  0.78684  1.0000
  C   C664      1.0  0.30285  0.18478  0.78743  1.0000
  C   C665      1.0  0.31902  0.16831  0.78129  1.0000
  H   H667      1.0  0.30562  0.20057  0.78370  1.0000
  H   H668      1.0  0.33425  0.17146  0.77295  1.0000
  H   H669      1.0  0.28468  0.02367  0.71839  1.0000
  C   C666      1.0  0.28551  0.02519  0.73378  1.0000
  C   C667      1.0  0.26622  0.10766  0.66722  1.0000
  H   H670      1.0  0.45871  0.30444  0.53771  1.0000
  C   C668      1.0  0.40620  0.05791  0.87260  1.0000
  C   C669      1.0  0.39491  0.07164  0.85784  1.0000
  C   C670      1.0  0.38027  0.06496  0.85062  1.0000
  C   C671      1.0  0.37700  0.04436  0.85794  1.0000
  C   C672      1.0  0.38855  0.03059  0.87236  1.0000
  C   C673      1.0  0.40292  0.03734  0.87975  1.0000
  H   H671      1.0  0.39740  0.08755  0.85207  1.0000
  H   H672      1.0  0.37154  0.07568  0.83941  1.0000
  H   H673      1.0  0.38635  0.01457  0.87787  1.0000
  H   H674      1.0  0.38954  0.01974  0.76711  1.0000
  C   C674      1.0  0.27632  0.10832  0.61178  1.0000
  C   C675      1.0  0.32613  0.05273  0.59295  1.0000
  C   C676      1.0  0.33133  0.03160  0.60261  1.0000
  C   C677      1.0  0.34369  0.02556  0.61785  1.0000
  C   C678      1.0  0.35075  0.04065  0.62371  1.0000
  C   C679      1.0  0.34633  0.06168  0.61335  1.0000
  C   C680      1.0  0.33388  0.06776  0.59811  1.0000
  H   H675      1.0  0.32557  0.01987  0.59847  1.0000
  H   H676      1.0  0.35287  0.07323  0.61664  1.0000
  H   H677      1.0  0.33043  0.08400  0.59027  1.0000
  C   C681      1.0  0.33960  0.17464  0.54123  1.0000
  C   C682      1.0  0.34215  0.19161  0.54846  1.0000
  C   C683      1.0  0.36219  0.19507  0.54698  1.0000
  H   H678      1.0  0.32408  0.17227  0.54227  1.0000
  Fe  Fe112     1.0  0.39516  0.21537  0.56571  1.0000
  Fe  Fe113     1.0  0.30548  0.09194  0.55442  1.0000
  H   H679      1.0  0.38844  0.99985  0.91648  1.0000
  H   H680      1.0  0.34025  0.27426  0.66802  1.0000
  Fe  Fe114     1.0  0.36887  0.32327  0.67962  1.0000
  C   C684      1.0  0.29618  0.14361  0.79756  1.0000
  N   N53       1.0  0.34705  0.20364  0.61316  1.0000
  C   C685      1.0  0.35512  0.20984  0.62681  1.0000
  C   C686      1.0  0.33281  0.21758  0.60251  1.0000
  C   C687      1.0  0.34889  0.23048  0.63006  1.0000
  H   H681      1.0  0.25792  0.10352  0.79351  1.0000
  C   C688      1.0  0.33436  0.24476  0.61927  1.0000
  C   C689      1.0  0.35347  0.18202  0.60978  1.0000
  H   H682      1.0  0.36659  0.19893  0.63515  1.0000
  C   C690      1.0  0.41295  0.03503  0.71507  1.0000
  H   H683      1.0  0.35545  0.23543  0.64076  1.0000
  N   N54       1.0  0.39236  0.06743  0.58126  1.0000
  H   H684      1.0  0.32951  0.26079  0.62163  1.0000
  H   H685      1.0  0.33976  0.17438  0.61414  1.0000
  Fe  Fe115     1.0  0.34021  0.09226  0.68420  1.0000
  C   C691      1.0  0.27692  0.11065  0.74633  1.0000
  H   H686      1.0  0.30123  0.13979  0.62483  1.0000
  H   H687      1.0  0.41154  0.02648  0.89084  1.0000
  N   N55       1.0  0.35269  0.15860  0.84203  1.0000
  C   C692      1.0  0.33206  0.16764  0.84787  1.0000
  C   C693      1.0  0.35812  0.14065  0.83414  1.0000
  C   C694      1.0  0.31628  0.15897  0.84536  1.0000
  C   C695      1.0  0.34275  0.13151  0.83155  1.0000
  C   C696      1.0  0.32171  0.14071  0.83729  1.0000
  C   C697      1.0  0.36899  0.16792  0.84481  1.0000
  H   H688      1.0  0.32776  0.18202  0.85387  1.0000
  H   H689      1.0  0.37445  0.13367  0.82911  1.0000
  H   H690      1.0  0.29995  0.16653  0.84928  1.0000
  H   H691      1.0  0.34715  0.11769  0.82462  1.0000
  H   H692      1.0  0.30967  0.13386  0.83516  1.0000
  H   H693      1.0  0.36441  0.18536  0.84161  1.0000
  H   H694      1.0  0.37180  0.16211  0.86103  1.0000
  H   H695      1.0  0.38389  0.16400  0.83347  1.0000
  H   H696      1.0  0.41629  0.01374  0.78860  1.0000
  C   C698      1.0  0.43477  0.26539  0.60545  1.0000
  H   H697      1.0  0.47044  0.09345  0.87053  1.0000
  C   C699      1.0  0.27377  0.21816  0.74784  1.0000
  N   N56       1.0  0.25306  0.23030  0.75534  1.0000
  C   C700      1.0  0.48406  0.28605  0.49089  1.0000
  H   H698      1.0  0.26671  0.14370  0.73486  1.0000
  S   S229      1.0  0.33917  0.30314  0.62787  1.0000
  H   H699      1.0  0.26657  0.24069  0.63898  1.0000
  C   C701      1.0  0.25244  0.23477  0.64692  1.0000
  C   C702      1.0  0.32622  0.23830  0.60541  1.0000
  H   H700      1.0  0.37749  0.26040  0.53320  1.0000
  C   C703      1.0  0.26397  0.12806  0.73672  1.0000
  Fe  Fe116     1.0  0.28207  0.25406  0.56481  1.0000
  N   N57       1.0  0.34769  0.21891  0.49167  1.0000
  C   C704      1.0  0.32181  0.30888  0.71088  1.0000
  C   C705      1.0  0.48666  0.14211  0.81912  1.0000
  H   H701      1.0  0.32671  0.21274  0.59142  1.0000
  C   C706      1.0  0.26921  0.14782  0.62093  1.0000
  N   N58       1.0  0.44203  0.11938  0.67295  1.0000
  C   C707      1.0  0.42090  0.12686  0.67544  1.0000
  C   C708      1.0  0.45494  0.12431  0.65390  1.0000
  C   C709      1.0  0.44682  0.13756  0.63689  1.0000
  C   C710      1.0  0.42533  0.14544  0.63938  1.0000
  C   C711      1.0  0.45089  0.10523  0.69045  1.0000
  H   H702      1.0  0.41064  0.12260  0.69041  1.0000
  H   H703      1.0  0.47165  0.11823  0.65189  1.0000
  H   H704      1.0  0.45707  0.14180  0.62184  1.0000
  H   H705      1.0  0.46606  0.10870  0.69073  1.0000
  H   H706      1.0  0.44044  0.10732  0.70580  1.0000
  H   H707      1.0  0.45312  0.08866  0.68903  1.0000
  N   N59       1.0  0.37544  0.10707  0.74160  1.0000
  C   C712      1.0  0.37897  0.08568  0.74437  1.0000
  C   C713      1.0  0.35784  0.11925  0.73498  1.0000
  C   C714      1.0  0.36485  0.07600  0.74015  1.0000
  C   C715      1.0  0.34320  0.11006  0.73102  1.0000
  C   C716      1.0  0.34673  0.08828  0.73371  1.0000
  C   C717      1.0  0.38976  0.11699  0.74714  1.0000
  H   H708      1.0  0.39280  0.07596  0.74978  1.0000
  H   H709      1.0  0.35459  0.13613  0.73366  1.0000
  H   H710      1.0  0.36776  0.05904  0.74211  1.0000
  H   H711      1.0  0.32908  0.11974  0.72615  1.0000
  H   H712      1.0  0.33542  0.08088  0.73090  1.0000
  H   H713      1.0  0.40569  0.10696  0.74629  1.0000
  H   H714      1.0  0.39129  0.13227  0.73628  1.0000
  H   H715      1.0  0.38361  0.11994  0.76338  1.0000
  N   N60       1.0  0.36437  0.27016  0.75717  1.0000
  C   C718      1.0  0.34758  0.26322  0.75550  1.0000
  C   C719      1.0  0.35056  0.24519  0.74743  1.0000
  C   C720      1.0  0.36108  0.28894  0.76582  1.0000
  H   H716      1.0  0.33177  0.27142  0.76080  1.0000
  H   H717      1.0  0.33721  0.23949  0.74660  1.0000
  H   H718      1.0  0.37234  0.28676  0.77608  1.0000
  H   H719      1.0  0.36307  0.30273  0.75280  1.0000
  H   H720      1.0  0.34515  0.29216  0.77575  1.0000
  H   H721      1.0  0.48288  0.07155  0.82432  1.0000
  C   C721      1.0  0.25417  0.21190  0.58294  1.0000
  N   N61       1.0  0.24445  0.10542  0.73105  1.0000
  H   H722      1.0  0.25423  0.19934  0.50533  1.0000
  H   H723      1.0  0.48441  0.27129  0.50298  1.0000
  H   H724      1.0  0.32708  0.24883  0.49042  1.0000
  C   C722      1.0  0.46683  0.10679  0.92406  1.0000
  C   C723      1.0  0.46965  0.26509  0.61063  1.0000
  C   C724      1.0  0.24947  0.25172  0.74966  1.0000
  S   S230      1.0  0.25909  0.08189  0.83653  1.0000
  H   H725      1.0  0.29191  0.06150  0.63989  1.0000
  S   S231      1.0  0.24992  0.01961  0.68553  1.0000
  C   C725      1.0  0.24778  0.19641  0.57694  1.0000
  C   C726      1.0  0.27452  0.20849  0.58622  1.0000
  H   H726      1.0  0.40285  0.03600  0.70454  1.0000
  S   S232      1.0  0.41118  0.07730  0.69978  1.0000
  C   C727      1.0  0.41223  0.14003  0.65873  1.0000
  H   H727      1.0  0.41889  0.15570  0.62628  1.0000
  Fe  Fe117     1.0  0.26735  0.29910  0.54613  1.0000
  C   C728      1.0  0.47870  0.25452  0.56027  1.0000
  H   H728      1.0  0.29351  0.12775  0.80186  1.0000
  S   S233      1.0  0.25196  0.27134  0.55496  1.0000
  S   S234      1.0  0.30952  0.12089  0.56230  1.0000
  H   H729      1.0  0.24688  0.10332  0.59552  1.0000
  C   C729      1.0  0.28335  0.18062  0.79865  1.0000
  S   S235      1.0  0.24786  0.08012  0.65834  1.0000
  S   S236      1.0  0.36575  0.11044  0.67524  1.0000
  N   N62       1.0  0.47474  0.02379  0.85238  1.0000
  H   H730      1.0  0.29640  0.29522  0.70996  1.0000
  C   C730      1.0  0.43406  0.18801  0.64790  1.0000
  C   C731      1.0  0.44578  0.17395  0.66202  1.0000
  C   C732      1.0  0.43459  0.14226  0.58035  1.0000
  C   C733      1.0  0.43325  0.12558  0.59768  1.0000
  C   C734      1.0  0.26958  0.02035  0.75103  1.0000
  C   C735      1.0  0.38432  0.26004  0.75019  1.0000
  H   H731      1.0  0.34805  0.99371  0.82177  1.0000
  C   C736      1.0  0.28732  0.07744  0.69566  1.0000
  Fe  Fe118     1.0  0.46692  0.00440  0.92204  1.0000
  H   H732      1.0  0.45420  0.05291  0.84372  1.0000
  C   C737      1.0  0.35712  0.16134  0.53190  1.0000
  C   C738      1.0  0.37688  0.10041  0.56175  1.0000
  S   S237      1.0  0.39339  0.07437  0.64822  1.0000
  Fe  Fe119     1.0  0.26888  0.26533  0.52313  1.0000
  S   S238      1.0  0.25359  0.15866  0.56600  1.0000
  Fe  Fe120     1.0  0.43924  0.04658  0.90867  1.0000
  Fe  Fe121     1.0  0.41163  0.21613  0.60422  1.0000
  C   C739      1.0  0.32966  0.31854  0.72255  1.0000
  S   S239      1.0  0.26286  0.20060  0.80702  1.0000
  C   C740      1.0  0.27995  0.16009  0.80336  1.0000
  H   H733      1.0  0.36521  0.17223  0.61911  1.0000
  H   H734      1.0  0.39766  0.26565  0.75123  1.0000
  Fe  Fe122     1.0  0.47095  0.04245  0.93612  1.0000
  H   H735      1.0  0.46105  0.16516  0.65616  1.0000
  C   C741      1.0  0.26204  0.17803  0.57304  1.0000
  C   C742      1.0  0.41949  0.05291  0.71575  1.0000
  C   C743      1.0  0.36837  0.08979  0.55170  1.0000
  H   H736      1.0  0.44021  0.18977  0.63120  1.0000
  H   H737      1.0  0.44679  0.11810  0.60457  1.0000
  C   C744      1.0  0.45415  0.23546  0.62676  1.0000
  C   C745      1.0  0.38786  0.24207  0.74190  1.0000
  Fe  Fe123     1.0  0.27983  0.13606  0.55074  1.0000
  H   H738      1.0  0.37348  0.22036  0.73463  1.0000
  C   C746      1.0  0.40123  0.00948  0.79581  1.0000
  S   S240      1.0  0.27397  0.10635  0.54628  1.0000
  C   C747      1.0  0.29992  0.29439  0.64240  1.0000
  H   H739      1.0  0.41306  0.04012  0.59396  1.0000
  C   C748      1.0  0.28259  0.17494  0.57567  1.0000
  H   H740      1.0  0.29366  0.16079  0.57278  1.0000
  S   S241      1.0  0.45491  0.15597  0.57436  1.0000
  C   C749      1.0  0.45419  0.32142  0.62594  1.0000
  C   C750      1.0  0.26347  0.08699  0.67170  1.0000
  S   S242      1.0  0.39596  0.31104  0.62514  1.0000
  C   C751      1.0  0.32914  0.23251  0.48953  1.0000
  C   C752      1.0  0.37316  0.27167  0.54340  1.0000
  S   S243      1.0  0.29624  0.28236  0.55883  1.0000
  H   H741      1.0  0.37413  0.11746  0.55812  1.0000
  S   S244      1.0  0.43662  0.05665  0.93898  1.0000
  Fe  Fe124     1.0  0.43727  0.18928  0.57319  1.0000
  H   H742      1.0  0.47194  0.20973  0.64564  1.0000
  C   C753      1.0  0.24711  0.10735  0.82562  1.0000
  S   S245      1.0  0.30280  0.08655  0.78772  1.0000
  C   C754      1.0  0.37964  0.18186  0.53757  1.0000
  H   H743      1.0  0.25789  0.11935  0.65642  1.0000
  C   C755      1.0  0.36911  0.30342  0.49601  1.0000
  H   H744      1.0  0.26378  0.02499  0.63235  1.0000
  S   S246      1.0  0.31737  0.08625  0.83117  1.0000
  S   S247      1.0  0.47208  0.16810  0.74337  1.0000
  C   C756      1.0  0.48649  0.05517  0.83207  1.0000
  H   H745      1.0  0.40370  0.23399  0.73663  1.0000
  Fe  Fe125     1.0  0.36523  0.05963  0.65850  1.0000
  C   C757      1.0  0.29039  0.09806  0.69079  1.0000
  S   S248      1.0  0.46664  0.01009  0.95357  1.0000
  S   S249      1.0  0.39886  0.24127  0.57925  1.0000
  S   S250      1.0  0.31253  0.04203  0.82144  1.0000
  Fe  Fe126     1.0  0.29174  0.11457  0.51335  1.0000
  Fe  Fe127     1.0  0.38671  0.07863  0.68163  1.0000
  C   C758      1.0  0.27949  0.11330  0.67688  1.0000
  C   C759      1.0  0.38621  0.01287  0.78374  1.0000
  H   H746      1.0  0.28163  0.12934  0.67323  1.0000
  S   S251      1.0  0.29772  0.24546  0.53373  1.0000
  S   S252      1.0  0.43249  0.01487  0.92437  1.0000
  H   H747      1.0  0.44585  0.01569  0.85380  1.0000
  C   C760      1.0  0.28430  0.28520  0.65728  1.0000
  H   H748      1.0  0.31483  0.24919  0.59696  1.0000
  C   C761      1.0  0.38884  0.08890  0.57665  1.0000
  S   S253      1.0  0.30833  0.10465  0.70151  1.0000
  C   C762      1.0  0.40441  0.05570  0.59739  1.0000
  S   S254      1.0  0.25567  0.25746  0.49938  1.0000
  H   H749      1.0  0.44953  0.01954  0.87810  1.0000
  C   C763      1.0  0.27117  0.02190  0.77099  1.0000
  N   N63       1.0  0.45328  0.25517  0.61457  1.0000
  H   H750      1.0  0.46843  0.32139  0.65105  1.0000
  S   S255      1.0  0.36406  0.03290  0.64469  1.0000
  H   H751      1.0  0.39521  0.09725  0.58455  1.0000
  Fe  Fe128     1.0  0.46070  0.14790  0.77443  1.0000
  C   C764      1.0  0.47954  0.07364  0.97521  1.0000
  S   S256      1.0  0.29515  0.14593  0.51720  1.0000
  C   C765      1.0  0.27402  0.07237  0.49340  1.0000
  H   H752      1.0  0.34418  0.26201  0.55917  1.0000
  H   H753      1.0  0.43552  0.25897  0.59156  1.0000
  H   H754      1.0  0.39368  0.05319  0.61293  1.0000
  S   S257      1.0  0.42722  0.21245  0.54512  1.0000
  S   S258      1.0  0.44496  0.21290  0.58697  1.0000
  H   H755      1.0  0.28918  0.02994  0.78914  1.0000
  H   H756      1.0  0.29000  0.11280  0.75156  1.0000
  Fe  Fe129     1.0  0.30919  0.27549  0.52644  1.0000
  C   C766      1.0  0.38366  0.05692  0.57182  1.0000
  C   C767      1.0  0.27515  0.03558  0.62790  1.0000
  S   S259      1.0  0.36059  0.06066  0.69266  1.0000
  H   H757      1.0  0.28590  0.22329  0.75272  1.0000
  H   H758      1.0  0.46915  0.28060  0.60074  1.0000
  C   C768      1.0  0.38613  0.28550  0.54180  1.0000
  C   C769      1.0  0.28867  0.18991  0.58280  1.0000
  C   C770      1.0  0.41988  0.01566  0.72770  1.0000
  H   H759      1.0  0.28430  0.07684  0.75465  1.0000
  H   H760      1.0  0.38556  0.03997  0.57625  1.0000
  H   H761      1.0  0.42029  0.26263  0.61725  1.0000
  Fe  Fe130     1.0  0.29325  0.07453  0.82208  1.0000
  C   C771      1.0  0.47163  0.22517  0.63555  1.0000
  C   C772      1.0  0.36439  0.22646  0.49603  1.0000
  S   S260      1.0  0.35467  0.14150  0.52014  1.0000
  H   H762      1.0  0.30748  0.10421  0.61724  1.0000
  C   C773      1.0  0.37163  0.06793  0.55681  1.0000
  Fe  Fe131     1.0  0.43189  0.23652  0.56075  1.0000
  H   H763      1.0  0.41607  0.06431  0.59839  1.0000
  C   C774      1.0  0.43266  0.05141  0.72946  1.0000
  H   H764      1.0  0.43773  0.06522  0.73010  1.0000
  H   H765      1.0  0.25775  0.23126  0.67803  1.0000
  H   H766      1.0  0.47605  0.23871  0.56365  1.0000
  H   H767      1.0  0.36439  0.05964  0.54960  1.0000
  H   H768      1.0  0.35904  0.09852  0.54016  1.0000
  S   S261      1.0  0.37252  0.29159  0.67258  1.0000
  C   C775      1.0  0.34873  0.28726  0.57101  1.0000
  H   H769      1.0  0.32034  0.31248  0.52646  1.0000
  H   H770      1.0  0.29639  0.30431  0.62782  1.0000
  C   C776      1.0  0.32467  0.27752  0.66502  1.0000
  C   C777      1.0  0.46513  0.27112  0.55028  1.0000
  H   H771      1.0  0.41498  0.00181  0.72687  1.0000
  H   H772      1.0  0.43358  0.28262  0.60054  1.0000
  Fe  Fe132     1.0  0.32476  0.12888  0.52835  1.0000
  C   C778      1.0  0.29239  0.11467  0.61675  1.0000
  H   H773      1.0  0.35514  0.00985  0.78388  1.0000
  S   S262      1.0  0.32324  0.09828  0.52107  1.0000
  C   C779      1.0  0.36210  0.30082  0.56904  1.0000
  H   H774      1.0  0.26485  0.15682  0.81193  1.0000
  C   C780      1.0  0.47033  0.04452  0.84292  1.0000
  C   C781      1.0  0.27368  0.09052  0.74805  1.0000
  C   C782      1.0  0.27345  0.07198  0.68653  1.0000
  H   H775      1.0  0.47509  0.15500  0.81299  1.0000
  C   C783      1.0  0.28884  0.13464  0.62111  1.0000
  H   H776      1.0  0.31302  0.25733  0.69385  1.0000
  H   H777      1.0  0.27237  0.03992  0.49711  1.0000
  C   C784      1.0  0.43318  0.01405  0.74128  1.0000
  H   H778      1.0  0.25232  0.30234  0.58987  1.0000
  H   H779      1.0  0.34727  0.00925  0.62556  1.0000
  H   H780      1.0  0.27707  0.22070  0.73042  1.0000
  C   C785      1.0  0.36307  0.99803  0.81454  1.0000
  H   H781      1.0  0.43356  0.10844  0.92910  1.0000
  H   H782      1.0  0.26873  0.28822  0.65421  1.0000
  C   C786      1.0  0.30994  0.04001  0.66134  1.0000
  H   H783      1.0  0.46452  0.07228  0.97334  1.0000
  H   H784      1.0  0.28440  0.03459  0.61181  1.0000
  C   C787      1.0  0.31875  0.32074  0.74284  1.0000
  H   H785      1.0  0.37896  0.21426  0.49649  1.0000
  C   C788      1.0  0.43941  0.03202  0.74232  1.0000
  S   S263      1.0  0.44297  0.26680  0.54388  1.0000
  S   S264      1.0  0.26973  0.25984  0.69450  1.0000
  N   N64       1.0  0.25728  0.12153  0.61117  1.0000
  S   S265      1.0  0.48219  0.12069  0.79087  1.0000
  H   H786      1.0  0.44967  0.03089  0.75277  1.0000
  H   H787      1.0  0.32704  0.01488  0.68126  1.0000
  C   C789      1.0  0.24878  0.11397  0.80384  1.0000
  C   C790      1.0  0.25348  0.14091  0.61600  1.0000
  N   N65       1.0  0.28918  0.02992  0.64280  1.0000
  Fe  Fe133     1.0  0.40484  0.29605  0.65628  1.0000
  H   H788      1.0  0.40068  0.28477  0.53022  1.0000
  C   C791      1.0  0.28898  0.27182  0.67589  1.0000
  C   C792      1.0  0.30928  0.26774  0.67955  1.0000
  H   H789      1.0  0.27110  0.05600  0.69040  1.0000
  C   C793      1.0  0.44986  0.10087  0.89910  1.0000
  H   H790      1.0  0.31590  0.05211  0.66467  1.0000
  C   C794      1.0  0.46912  0.29151  0.54551  1.0000
  C   C795      1.0  0.45747  0.01318  0.86378  1.0000
  H   H791      1.0  0.29165  0.31542  0.76701  1.0000
  H   H792      1.0  0.43586  0.09987  0.89457  1.0000
  C   C796      1.0  0.29564  0.00925  0.65149  1.0000
  S   S266      1.0  0.40549  0.01669  0.98021  1.0000
  H   H793      1.0  0.26177  0.25958  0.73964  1.0000
  Fe  Fe134     1.0  0.36303  0.30975  0.64238  1.0000
  C   C797      1.0  0.24787  0.12512  0.72892  1.0000
  H   H794      1.0  0.39076  0.15511  0.52263  1.0000
  H   H795      1.0  0.46285  0.99593  0.86864  1.0000
  H   H796      1.0  0.49157  0.15830  0.84091  1.0000
  C   C798      1.0  0.24749  0.22953  0.66880  1.0000
  H   H797      1.0  0.36504  0.18752  0.49199  1.0000
  C   C799      1.0  0.44858  0.10573  0.91845  1.0000
  C   C800      1.0  0.24892  0.18581  0.50420  1.0000
  C   C801      1.0  0.25725  0.08817  0.74024  1.0000
  C   C802      1.0  0.32000  0.29098  0.64648  1.0000
  N   N66       1.0  0.38060  0.29970  0.55466  1.0000
  H   H798      1.0  0.33408  0.28828  0.58241  1.0000
  S   S267      1.0  0.26788  0.29634  0.74986  1.0000
  S   S268      1.0  0.34157  0.27694  0.50724  1.0000
  H   H799      1.0  0.35922  0.23106  0.51162  1.0000
  C   C803      1.0  0.46928  0.09715  0.88564  1.0000
  C   C804      1.0  0.33572  0.31497  0.51797  1.0000
  C   C805      1.0  0.34921  0.30005  0.50699  1.0000
  H   H800      1.0  0.44472  0.31021  0.63544  1.0000
  C   C806      1.0  0.35435  0.27260  0.55807  1.0000
  H   H801      1.0  0.26581  0.05181  0.62768  1.0000
  H   H802      1.0  0.24851  0.30990  0.84059  1.0000
  C   C807      1.0  0.35033  0.19835  0.49046  1.0000
  H   H803      1.0  0.25931  0.01747  0.78452  1.0000
  H   H804      1.0  0.26622  0.16338  0.62428  1.0000
  H   H805      1.0  0.39185  0.32020  0.56689  1.0000
  H   H806      1.0  0.48889  0.31116  0.54813  1.0000
  C   C808      1.0  0.39406  0.31457  0.55213  1.0000
  C   C809      1.0  0.30001  0.31350  0.75138  1.0000
  C   C810      1.0  0.37541  0.32183  0.49588  1.0000
  H   H807      1.0  0.39343  0.99856  0.95202  1.0000
  H   H808      1.0  0.35755  0.31221  0.57914  1.0000
  H   H809      1.0  0.25522  0.07246  0.74102  1.0000
  S   S269      1.0  0.24805  0.01122  0.74863  1.0000
  H   H810      1.0  0.28424  0.06900  0.50440  1.0000
  N   N67       1.0  0.48582  0.10314  0.91074  1.0000
  C   C811      1.0  0.48836  0.23520  0.63170  1.0000
  H   H811      1.0  0.33020  0.30690  0.69529  1.0000
  H   H812      1.0  0.41085  0.30703  0.54798  1.0000
  C   C812      1.0  0.48718  0.09835  0.89177  1.0000
  H   H813      1.0  0.47334  0.29906  0.49807  1.0000
  C   C813      1.0  0.48744  0.25526  0.61909  1.0000
  H   H814      1.0  0.24451  0.05234  0.79440  1.0000
  S   S270      1.0  0.24420  0.26006  0.80222  1.0000
  H   H815      1.0  0.24332  0.22647  0.58502  1.0000
  C   C814      1.0  0.24382  0.31761  0.59283  1.0000
  C   C815      1.0  0.49241  0.12359  0.81133  1.0000
  C   C816      1.0  0.26726  0.05588  0.48921  1.0000
  Fe  Fe135     1.0  0.47818  0.48177  0.27763  1.0000
  C   C817      1.0  0.44332  0.58862  0.18771  1.0000
  S   S271      1.0  0.47317  0.50159  0.24596  1.0000
  N   N68       1.0  0.27185  0.52354  0.11132  1.0000
  S   S272      1.0  0.43545  0.47285  0.35193  1.0000
  S   S273      1.0  0.46066  0.45655  0.29651  1.0000
  Fe  Fe136     1.0  0.36689  0.54381  0.16001  1.0000
  S   S274      1.0  0.37417  0.57288  0.13740  1.0000
  S   S275      1.0  0.35667  0.51932  0.14989  1.0000
  Fe  Fe137     1.0  0.37978  0.55488  0.19597  1.0000
  S   S276      1.0  0.38781  0.58514  0.17603  1.0000
  S   S277      1.0  0.38246  0.54641  0.23009  1.0000
  Fe  Fe138     1.0  0.35836  0.58854  0.16465  1.0000
  S   S278      1.0  0.33263  0.61678  0.16117  1.0000
  Fe  Fe139     1.0  0.40264  0.56598  0.15122  1.0000
  S   S279      1.0  0.43489  0.56438  0.13171  1.0000
  S   S280      1.0  0.34898  0.55985  0.18652  1.0000
  S   S281      1.0  0.39672  0.53542  0.17190  1.0000
  H   H816      1.0  0.47542  0.54720  0.24008  1.0000
  S   S282      1.0  0.46525  0.56248  0.39952  1.0000
  C   C818      1.0  0.31251  0.62018  0.21186  1.0000
  H   H817      1.0  0.30666  0.65657  0.09063  1.0000
  S   S283      1.0  0.46186  0.50463  0.41028  1.0000
  C   C819      1.0  0.36729  0.57363  0.05319  1.0000
  C   C820      1.0  0.24915  0.63614  0.15430  1.0000
  Fe  Fe140     1.0  0.44381  0.36145  0.46811  1.0000
  S   S284      1.0  0.41885  0.35089  0.45925  1.0000
  Fe  Fe141     1.0  0.46176  0.46870  0.32426  1.0000
  Fe  Fe142     1.0  0.41902  0.40575  0.46810  1.0000
  S   S285      1.0  0.39195  0.39922  0.45923  1.0000
  H   H818      1.0  0.33499  0.51163  0.27251  1.0000
  C   C821      1.0  0.43811  0.56022  0.32972  1.0000
  Fe  Fe143     1.0  0.41640  0.38196  0.43677  1.0000
  S   S286      1.0  0.41510  0.38514  0.40319  1.0000
  S   S287      1.0  0.44323  0.39104  0.44360  1.0000
  S   S288      1.0  0.31136  0.60305  0.05725  1.0000
  S   S289      1.0  0.31283  0.57064  0.24225  1.0000
  S   S290      1.0  0.30619  0.57076  0.30309  1.0000
  H   H819      1.0  0.26323  0.64341  0.12137  1.0000
  H   H820      1.0  0.39097  0.55975  0.28482  1.0000
  S   S291      1.0  0.37236  0.56648  0.33278  1.0000
  S   S292      1.0  0.33383  0.60252  0.27054  1.0000
  H   H821      1.0  0.40181  0.62119  0.34556  1.0000
  C   C822      1.0  0.36714  0.33542  0.43926  1.0000
  H   H822      1.0  0.48025  0.60851  0.08225  1.0000
  Fe  Fe144     1.0  0.30710  0.62858  0.27815  1.0000
  H   H823      1.0  0.30020  0.61991  0.22640  1.0000
  C   C823      1.0  0.32112  0.51673  0.23757  1.0000
  H   H824      1.0  0.32702  0.55159  0.34137  1.0000
  H   H825      1.0  0.32957  0.50545  0.18921  1.0000
  S   S293      1.0  0.31517  0.54123  0.07059  1.0000
  H   H826      1.0  0.45681  0.51639  0.20849  1.0000
  H   H827      1.0  0.43305  0.50902  0.27499  1.0000
  H   H828      1.0  0.37094  0.56211  0.27033  1.0000
  H   H829      1.0  0.41569  0.51763  0.34265  1.0000
  H   H830      1.0  0.43875  0.49713  0.38127  1.0000
  C   C824      1.0  0.24511  0.40746  0.99134  1.0000
  C   C825      1.0  0.35352  0.50524  0.20524  1.0000
  H   H831      1.0  0.48209  0.62330  0.47733  1.0000
  Fe  Fe145     1.0  0.43283  0.58064  0.40943  1.0000
  C   C826      1.0  0.40298  0.59387  0.37066  1.0000
  H   H832      1.0  0.48376  0.34779  0.37546  1.0000
  C   C827      1.0  0.34954  0.55972  0.31049  1.0000
  S   S294      1.0  0.45866  0.65077  0.08158  1.0000
  S   S295      1.0  0.27619  0.58726  0.04178  1.0000
  H   H833      1.0  0.37094  0.62497  0.12307  1.0000
  N   N69       1.0  0.34946  0.37241  0.45401  1.0000
  H   H834      1.0  0.42268  0.54718  0.31313  1.0000
  C   C828      1.0  0.48157  0.39177  0.47487  1.0000
  H   H835      1.0  0.35641  0.56299  0.05511  1.0000
  H   H836      1.0  0.45382  0.58022  0.15730  1.0000
  H   H837      1.0  0.44494  0.53957  0.37963  1.0000
  C   C829      1.0  0.26363  0.64672  0.17772  1.0000
  N   N70       1.0  0.42956  0.52719  0.36296  1.0000
  H   H838      1.0  0.46014  0.32787  0.44210  1.0000
  S   S296      1.0  0.35811  0.62097  0.01617  1.0000
  C   C830      1.0  0.25578  0.55623  0.25198  1.0000
  H   H839      1.0  0.27191  0.52837  0.07898  1.0000
  N   N71       1.0  0.36100  0.57566  0.29752  1.0000
  C   C831      1.0  0.43229  0.62670  0.11022  1.0000
  H   H840      1.0  0.32250  0.58708  0.35222  1.0000
  C   C832      1.0  0.44023  0.54112  0.36497  1.0000
  H   H841      1.0  0.39758  0.52694  0.26838  1.0000
  S   S297      1.0  0.28284  0.61360  0.27407  1.0000
  C   C833      1.0  0.39739  0.57427  0.37847  1.0000
  C   C834      1.0  0.38710  0.56658  0.36716  1.0000
  C   C835      1.0  0.38206  0.57845  0.34805  1.0000
  C   C836      1.0  0.38712  0.59836  0.34050  1.0000
  C   C837      1.0  0.29097  0.53348  0.13160  1.0000
  H   H842      1.0  0.40134  0.56482  0.39303  1.0000
  H   H843      1.0  0.38341  0.55112  0.37306  1.0000
  C   C838      1.0  0.39745  0.60605  0.35183  1.0000
  H   H844      1.0  0.44752  0.55462  0.24712  1.0000
  C   C839      1.0  0.44736  0.48628  0.42672  1.0000
  C   C840      1.0  0.44083  0.45077  0.43736  1.0000
  C   C841      1.0  0.45145  0.46581  0.42319  1.0000
  H   H845      1.0  0.44432  0.43492  0.43487  1.0000
  H   H846      1.0  0.46306  0.46151  0.40975  1.0000
  C   C842      1.0  0.28989  0.56550  0.23830  1.0000
  C   C843      1.0  0.28909  0.56307  0.21841  1.0000
  C   C844      1.0  0.27147  0.55772  0.21518  1.0000
  H   H847      1.0  0.30226  0.56501  0.20551  1.0000
  H   H848      1.0  0.27104  0.55578  0.19981  1.0000
  C   C845      1.0  0.46537  0.60826  0.09312  1.0000
  C   C846      1.0  0.46007  0.58907  0.10412  1.0000
  C   C847      1.0  0.44082  0.58865  0.11803  1.0000
  C   C848      1.0  0.42689  0.60743  0.12118  1.0000
  N   N72       1.0  0.46009  0.56580  0.21514  1.0000
  H   H849      1.0  0.47093  0.57454  0.10179  1.0000
  H   H850      1.0  0.41213  0.60714  0.13219  1.0000
  C   C849      1.0  0.31445  0.60866  0.15200  1.0000
  C   C850      1.0  0.31657  0.61022  0.13046  1.0000
  C   C851      1.0  0.30228  0.60343  0.12310  1.0000
  C   C852      1.0  0.28600  0.59480  0.13725  1.0000
  C   C853      1.0  0.28409  0.59284  0.15883  1.0000
  C   C854      1.0  0.29822  0.59994  0.16619  1.0000
  H   H851      1.0  0.32917  0.61674  0.11943  1.0000
  H   H852      1.0  0.30376  0.60496  0.10639  1.0000
  H   H853      1.0  0.27149  0.58628  0.16979  1.0000
  H   H854      1.0  0.29651  0.59872  0.18283  1.0000
  C   C855      1.0  0.34679  0.52671  0.12666  1.0000
  C   C856      1.0  0.33978  0.54777  0.11755  1.0000
  C   C857      1.0  0.33069  0.55270  0.09970  1.0000
  C   C858      1.0  0.32860  0.53654  0.09111  1.0000
  C   C859      1.0  0.33614  0.51565  0.09998  1.0000
  C   C860      1.0  0.34518  0.51077  0.11762  1.0000
  H   H855      1.0  0.34055  0.56020  0.12468  1.0000
  H   H856      1.0  0.32448  0.56887  0.09325  1.0000
  H   H857      1.0  0.33448  0.50311  0.09349  1.0000
  H   H858      1.0  0.35054  0.49450  0.12455  1.0000
  Fe  Fe146     1.0  0.33085  0.58836  0.30638  1.0000
  C   C861      1.0  0.33488  0.56370  0.33099  1.0000
  H   H859      1.0  0.37640  0.57553  0.03676  1.0000
  C   C862      1.0  0.42910  0.44869  0.36592  1.0000
  C   C863      1.0  0.43324  0.43179  0.35587  1.0000
  C   C864      1.0  0.42839  0.41243  0.36726  1.0000
  C   C865      1.0  0.41992  0.40977  0.38883  1.0000
  C   C866      1.0  0.41613  0.42657  0.39897  1.0000
  C   C867      1.0  0.42047  0.44609  0.38747  1.0000
  H   H860      1.0  0.44003  0.43364  0.33927  1.0000
  H   H861      1.0  0.43153  0.39944  0.35938  1.0000
  H   H862      1.0  0.40974  0.42462  0.41566  1.0000
  H   H863      1.0  0.41749  0.45903  0.39538  1.0000
  C   C868      1.0  0.44738  0.51187  0.24216  1.0000
  C   C869      1.0  0.43055  0.51461  0.25906  1.0000
  C   C870      1.0  0.41054  0.52495  0.25528  1.0000
  C   C871      1.0  0.40736  0.53265  0.23463  1.0000
  C   C872      1.0  0.42411  0.52956  0.21781  1.0000
  C   C873      1.0  0.44398  0.51899  0.22159  1.0000
  C   C874      1.0  0.34441  0.60050  0.32325  1.0000
  C   C875      1.0  0.27555  0.50326  0.12219  1.0000
  H   H864      1.0  0.42188  0.53540  0.20185  1.0000
  C   C876      1.0  0.27305  0.56233  0.25504  1.0000
  Fe  Fe147     1.0  0.30756  0.57343  0.05074  1.0000
  H   H865      1.0  0.27364  0.56386  0.27052  1.0000
  C   C877      1.0  0.42381  0.52891  0.34439  1.0000
  H   H866      1.0  0.36204  0.51074  0.26001  1.0000
  S   S298      1.0  0.29854  0.62577  0.01119  1.0000
  C   C878      1.0  0.34570  0.51805  0.25816  1.0000
  H   H867      1.0  0.37274  0.38584  0.43003  1.0000
  S   S299      1.0  0.25666  0.64413  0.05612  1.0000
  N   N73       1.0  0.34141  0.51408  0.23936  1.0000
  C   C879      1.0  0.47668  0.32749  0.43653  1.0000
  H   H868      1.0  0.47800  0.60791  0.44900  1.0000
  Fe  Fe148     1.0  0.28149  0.59929  0.30815  1.0000
  C   C880      1.0  0.42477  0.51007  0.38070  1.0000
  H   H869      1.0  0.48317  0.53941  0.20662  1.0000
  C   C881      1.0  0.44575  0.58312  0.20861  1.0000
  C   C882      1.0  0.25485  0.55404  0.23202  1.0000
  C   C883      1.0  0.48265  0.61899  0.39085  1.0000
  S   S300      1.0  0.25199  0.59646  0.33203  1.0000
  H   H870      1.0  0.25091  0.54529  0.09332  1.0000
  H   H871      1.0  0.42850  0.50775  0.44624  1.0000
  H   H872      1.0  0.46364  0.57386  0.24252  1.0000
  C   C884      1.0  0.38024  0.64607  0.02445  1.0000
  H   H873      1.0  0.35755  0.58915  0.05567  1.0000
  C   C885      1.0  0.33232  0.58428  0.33731  1.0000
  H   H874      1.0  0.30750  0.63347  0.19935  1.0000
  C   C886      1.0  0.24986  0.54397  0.99722  1.0000
  C   C887      1.0  0.45557  0.57618  0.17353  1.0000
  C   C888      1.0  0.48166  0.61731  0.29479  1.0000
  C   C889      1.0  0.34450  0.64849  0.04362  1.0000
  C   C890      1.0  0.39349  0.57849  0.06990  1.0000
  C   C891      1.0  0.38277  0.54571  0.07970  1.0000
  C   C892      1.0  0.40711  0.57137  0.08401  1.0000
  C   C893      1.0  0.39596  0.53821  0.09417  1.0000
  C   C894      1.0  0.40827  0.55111  0.09622  1.0000
  H   H875      1.0  0.37363  0.50728  0.22445  1.0000
  S   S301      1.0  0.46101  0.60794  0.29125  1.0000
  C   C895      1.0  0.35151  0.64219  0.22589  1.0000
  H   H876      1.0  0.41663  0.58149  0.08563  1.0000
  H   H877      1.0  0.39643  0.52257  0.10390  1.0000
  H   H878      1.0  0.41860  0.54545  0.10737  1.0000
  C   C896      1.0  0.41442  0.65607  0.16658  1.0000
  H   H879      1.0  0.47936  0.54850  0.16947  1.0000
  H   H880      1.0  0.37338  0.53550  0.07812  1.0000
  Fe  Fe149     1.0  0.30912  0.58634  0.26927  1.0000
  H   H881      1.0  0.35498  0.65187  0.36739  1.0000
  C   C897      1.0  0.45145  0.62711  0.09597  1.0000
  C   C898      1.0  0.35878  0.59580  0.30307  1.0000
  H   H882      1.0  0.31433  0.60549  0.20626  1.0000
  C   C899      1.0  0.46844  0.62064  0.37827  1.0000
  C   C900      1.0  0.28417  0.65089  0.07624  1.0000
  C   C901      1.0  0.31653  0.51350  0.21962  1.0000
  C   C902      1.0  0.26052  0.52913  0.09412  1.0000
  H   H883      1.0  0.25337  0.41660  0.01616  1.0000
  H   H884      1.0  0.26361  0.64789  0.19351  1.0000
  Fe  Fe150     1.0  0.29478  0.59396  0.00891  1.0000
  N   N74       1.0  0.47109  0.63185  0.35806  1.0000
  N   N75       1.0  0.48693  0.39661  0.37772  1.0000
  H   H885      1.0  0.30403  0.50876  0.15485  1.0000
  C   C903      1.0  0.48301  0.63839  0.28726  1.0000
  S   S302      1.0  0.41569  0.43727  0.47532  1.0000
  C   C904      1.0  0.28708  0.49760  0.13808  1.0000
  H   H886      1.0  0.37262  0.64362  0.14995  1.0000
  H   H887      1.0  0.28980  0.48154  0.14676  1.0000
  H   H888      1.0  0.45799  0.64495  0.33045  1.0000
  H   H889      1.0  0.34504  0.40568  0.45101  1.0000
  S   S303      1.0  0.36018  0.65103  0.30264  1.0000
  Fe  Fe151     1.0  0.32766  0.60932  0.02363  1.0000
  C   C905      1.0  0.42128  0.47699  0.45771  1.0000
  H   H890      1.0  0.36811  0.60708  0.29350  1.0000
  C   C906      1.0  0.33287  0.50770  0.20338  1.0000
  H   H891      1.0  0.47397  0.45433  0.46180  1.0000
  H   H892      1.0  0.34349  0.61503  0.32788  1.0000
  C   C907      1.0  0.43195  0.49193  0.44368  1.0000
  S   S304      1.0  0.47519  0.34159  0.47178  1.0000
  H   H893      1.0  0.38179  0.58443  0.26848  1.0000
  H   H894      1.0  0.29687  0.54554  0.13506  1.0000
  C   C908      1.0  0.42789  0.54550  0.32755  1.0000
  N   N76       1.0  0.47538  0.42528  0.48430  1.0000
  H   H895      1.0  0.39326  0.63903  0.01352  1.0000
  H   H896      1.0  0.43201  0.60244  0.18256  1.0000
  H   H897      1.0  0.34353  0.53525  0.25682  1.0000
  N   N77       1.0  0.33212  0.62196  0.21619  1.0000
  C   C909      1.0  0.34855  0.60515  0.21687  1.0000
  H   H898      1.0  0.48328  0.38257  0.46320  1.0000
  C   C910      1.0  0.36694  0.60652  0.22197  1.0000
  C   C911      1.0  0.49031  0.36162  0.37288  1.0000
  C   C912      1.0  0.36828  0.62512  0.22671  1.0000
  N   N78       1.0  0.24910  0.63773  0.17421  1.0000
  H   H899      1.0  0.34736  0.59041  0.21390  1.0000
  H   H900      1.0  0.47431  0.42135  0.45412  1.0000
  H   H901      1.0  0.37986  0.59309  0.22264  1.0000
  C   C913      1.0  0.31091  0.65347  0.35219  1.0000
  H   H902      1.0  0.38208  0.62623  0.23143  1.0000
  C   C914      1.0  0.34147  0.35474  0.46342  1.0000
  C   C915      1.0  0.46957  0.44820  0.47895  1.0000
  C   C916      1.0  0.27960  0.53851  0.11567  1.0000
  H   H903      1.0  0.41169  0.50361  0.37930  1.0000
  H   H904      1.0  0.27744  0.55437  0.10644  1.0000
  Fe  Fe152     1.0  0.43176  0.56042  0.45538  1.0000
  S   S305      1.0  0.44499  0.65319  0.24282  1.0000
  C   C917      1.0  0.44449  0.55796  0.34849  1.0000
  C   C918      1.0  0.35754  0.50869  0.22337  1.0000
  H   H905      1.0  0.26506  0.55829  0.01314  1.0000
  C   C919      1.0  0.45635  0.63265  0.34503  1.0000
  S   S306      1.0  0.41759  0.60318  0.38356  1.0000
  H   H906      1.0  0.45914  0.61729  0.34037  1.0000
  C   C920      1.0  0.35000  0.33607  0.45603  1.0000
  H   H907      1.0  0.26926  0.49142  0.11883  1.0000
  S   S307      1.0  0.41124  0.62306  0.26866  1.0000
  H   H908      1.0  0.39257  0.59429  0.06044  1.0000
  C   C921      1.0  0.46177  0.56014  0.23729  1.0000
  Fe  Fe153     1.0  0.47260  0.56879  0.42787  1.0000
  H   H909      1.0  0.45213  0.56952  0.35045  1.0000
  C   C922      1.0  0.26176  0.55806  0.99827  1.0000
  H   H910      1.0  0.30833  0.52170  0.24994  1.0000
  Fe  Fe154     1.0  0.24323  0.57209  0.15098  1.0000
  H   H911      1.0  0.45526  0.61293  0.38479  1.0000
  H   H912      1.0  0.35234  0.54455  0.30634  1.0000
  C   C923      1.0  0.49077  0.60075  0.45713  1.0000
  H   H913      1.0  0.32864  0.35491  0.47697  1.0000
  H   H914      1.0  0.36629  0.50111  0.19247  1.0000
  N   N79       1.0  0.38144  0.56573  0.06804  1.0000
  H   H915      1.0  0.29170  0.63478  0.07643  1.0000
  C   C924      1.0  0.37698  0.57023  0.27933  1.0000
  S   S308      1.0  0.47669  0.49566  0.30517  1.0000
  Fe  Fe155     1.0  0.41645  0.64555  0.23770  1.0000
  C   C925      1.0  0.47005  0.55845  0.18035  1.0000
  H   H916      1.0  0.44088  0.57349  0.31700  1.0000
  H   H917      1.0  0.40955  0.48143  0.47101  1.0000
  C   C926      1.0  0.35411  0.65250  0.10532  1.0000
  C   C927      1.0  0.27835  0.65495  0.16096  1.0000
  Fe  Fe156     1.0  0.39693  0.36903  0.48272  1.0000
  C   C928      1.0  0.42623  0.45623  0.45504  1.0000
  H   H918      1.0  0.42185  0.64114  0.11312  1.0000
  S   S309      1.0  0.24961  0.53889  0.16868  1.0000
  Fe  Fe157     1.0  0.45306  0.53513  0.42148  1.0000
  H   H919      1.0  0.38405  0.60753  0.32549  1.0000
  Fe  Fe158     1.0  0.28196  0.61784  0.04470  1.0000
  C   C929      1.0  0.29489  0.51285  0.14274  1.0000
  C   C930      1.0  0.36114  0.63937  0.02939  1.0000
  Fe  Fe159     1.0  0.43793  0.63316  0.27501  1.0000
  S   S310      1.0  0.30350  0.61677  0.31275  1.0000
  S   S311      1.0  0.41866  0.63682  0.20680  1.0000
  H   H920      1.0  0.35319  0.64454  0.09352  1.0000
  C   C931      1.0  0.34048  0.39161  0.46240  1.0000
  H   H921      1.0  0.43612  0.59283  0.21957  1.0000
  S   S312      1.0  0.42017  0.55285  0.43008  1.0000
  S   S313      1.0  0.46334  0.53970  0.44877  1.0000
  H   H922      1.0  0.24960  0.51844  0.09651  1.0000
  H   H923      1.0  0.42017  0.51558  0.39580  1.0000
  S   S314      1.0  0.44153  0.59002  0.43563  1.0000
  S   S315      1.0  0.32600  0.57832  0.01769  1.0000
  H   H924      1.0  0.42561  0.64255  0.16188  1.0000
  H   H925      1.0  0.31595  0.64007  0.34466  1.0000
  C   C932      1.0  0.47219  0.55349  0.20133  1.0000
  C   C933      1.0  0.33345  0.64033  0.22051  1.0000
  H   H926      1.0  0.24405  0.53347  0.01140  1.0000
  H   H927      1.0  0.30039  0.51586  0.21818  1.0000
  H   H928      1.0  0.48056  0.61012  0.40689  1.0000
  C   C934      1.0  0.37532  0.35345  0.42989  1.0000
  H   H929      1.0  0.32312  0.39431  0.46613  1.0000
  C   C935      1.0  0.47850  0.37930  0.38080  1.0000
  S   S316      1.0  0.26756  0.58786  0.12743  1.0000
  C   C936      1.0  0.48778  0.64157  0.34986  1.0000
  C   C937      1.0  0.36620  0.37193  0.43747  1.0000
  H   H930      1.0  0.34158  0.63020  0.37838  1.0000
  H   H931      1.0  0.32972  0.64347  0.04763  1.0000
  H   H932      1.0  0.47145  0.64904  0.27892  1.0000
  C   C938      1.0  0.36417  0.64159  0.12180  1.0000
  H   H933      1.0  0.48376  0.42096  0.39398  1.0000
  C   C939      1.0  0.40806  0.65723  0.18786  1.0000
  H   H934      1.0  0.41978  0.52117  0.47667  1.0000
  C   C940      1.0  0.26350  0.64442  0.13716  1.0000
  H   H935      1.0  0.35218  0.65658  0.23002  1.0000
  H   H936      1.0  0.27338  0.65606  0.29648  1.0000
  H   H937      1.0  0.38876  0.35315  0.41691  1.0000
  Fe  Fe160     1.0  0.39165  0.65121  0.28129  1.0000
  C   C941      1.0  0.27816  0.65387  0.14058  1.0000
  H   H938      1.0  0.35125  0.63739  0.35036  1.0000
  C   C942      1.0  0.47681  0.41369  0.46977  1.0000
  H   H939      1.0  0.46962  0.42783  0.37289  1.0000
  H   H940      1.0  0.47733  0.45563  0.48706  1.0000
  H   H941      1.0  0.43994  0.63613  0.35384  1.0000
  C   C943      1.0  0.48785  0.33364  0.44802  1.0000
  C   C944      1.0  0.47452  0.41517  0.38596  1.0000
  C   C945      1.0  0.34375  0.64357  0.36495  1.0000
  H   H942      1.0  0.46257  0.37904  0.38941  1.0000
  H   H943      1.0  0.45142  0.58429  0.48426  1.0000
  H   H944      1.0  0.34604  0.39015  0.47702  1.0000
  C   C946      1.0  0.36506  0.65204  0.13694  1.0000
  H   H945      1.0  0.46020  0.41170  0.39751  1.0000
  H   H946      1.0  0.45241  0.45301  0.48399  1.0000
  H   H947      1.0  0.32026  0.65350  0.22047  1.0000
  H   H948      1.0  0.48998  0.65049  0.33387  1.0000
  S   S317      1.0  0.49186  0.44726  0.33018  1.0000
  Fe  Fe161     1.0  0.49233  0.43720  0.30075  1.0000
  H   H949      1.0  0.24313  0.55309  0.26517  1.0000
  N   N80       1.0  0.32357  0.65776  0.36290  1.0000
  C   C947      1.0  0.45177  0.58483  0.50057  1.0000
  H   H950      1.0  0.47248  0.44658  0.63765  1.0000
  H   H951      1.0  0.38819  0.41943  0.53753  1.0000
  C   C948      1.0  0.39085  0.42415  0.58583  1.0000
  C   C949      1.0  0.40150  0.45300  0.55890  1.0000
  C   C950      1.0  0.39833  0.44276  0.58001  1.0000
  H   H952      1.0  0.24452  0.34236  0.85347  1.0000
  C   C951      1.0  0.36184  0.33678  0.50683  1.0000
  C   C952      1.0  0.47415  0.54978  0.50300  1.0000
  C   C953      1.0  0.29319  0.34336  0.65674  1.0000
  S   S318      1.0  0.35271  0.32847  0.71207  1.0000
  H   H953      1.0  0.40197  0.44905  0.59172  1.0000
  Fe  Fe162     1.0  0.48476  0.43257  0.58809  1.0000
  C   C954      1.0  0.26945  0.57175  0.98009  1.0000
  N   N81       1.0  0.39729  0.44491  0.54403  1.0000
  H   H954      1.0  0.48891  0.34596  0.64965  1.0000
  S   S319      1.0  0.28434  0.59005  0.98048  1.0000
  H   H955      1.0  0.31343  0.34185  0.67755  1.0000
  H   H956      1.0  0.48830  0.36471  0.49909  1.0000
  H   H957      1.0  0.24813  0.44303  0.87124  1.0000
  N   N82       1.0  0.25121  0.41709  0.89691  1.0000
  H   H958      1.0  0.38855  0.41587  0.60212  1.0000
  C   C955      1.0  0.43977  0.48953  0.51812  1.0000
  H   H959      1.0  0.39905  0.47285  0.52041  1.0000
  C   C956      1.0  0.48435  0.38173  0.49511  1.0000
  H   H960      1.0  0.25385  0.44574  0.90363  1.0000
  H   H961      1.0  0.38992  0.45323  0.51347  1.0000
  N   N83       1.0  0.27298  0.34721  0.65418  1.0000
  H   H962      1.0  0.24736  0.35636  0.70233  1.0000
  H   H963      1.0  0.45289  0.60105  0.50048  1.0000
  C   C957      1.0  0.48276  0.39367  0.50988  1.0000
  H   H964      1.0  0.33158  0.34474  0.52656  1.0000
  C   C958      1.0  0.25321  0.55699  0.95983  1.0000
  C   C959      1.0  0.29742  0.34467  0.67563  1.0000
  Fe  Fe163     1.0  0.49134  0.47739  0.57198  1.0000
  H   H965      1.0  0.26246  0.33101  0.63703  1.0000
  Fe  Fe164     1.0  0.47191  0.45785  0.54789  1.0000
  S   S320      1.0  0.46277  0.46332  0.58068  1.0000
  S   S321      1.0  0.44891  0.46279  0.52753  1.0000
  H   H966      1.0  0.25410  0.38855  0.91979  1.0000
  C   C960      1.0  0.42525  0.53202  0.50179  1.0000
  H   H967      1.0  0.28402  0.34978  0.70709  1.0000
  H   H968      1.0  0.43213  0.48375  0.49134  1.0000
  H   H969      1.0  0.26106  0.42234  0.92253  1.0000
  C   C961      1.0  0.34210  0.33322  0.51802  1.0000
  H   H970      1.0  0.43214  0.53806  0.52908  1.0000
  H   H971      1.0  0.25032  0.55646  0.94489  1.0000
  H   H972      1.0  0.38221  0.40074  0.57486  1.0000
  H   H973      1.0  0.26112  0.40403  0.98289  1.0000
  S   S322      1.0  0.35718  0.34143  0.65043  1.0000
  C   C962      1.0  0.25217  0.38336  0.89026  1.0000
  C   C963      1.0  0.49034  0.53437  0.51041  1.0000
  C   C964      1.0  0.47826  0.35044  0.60230  1.0000
  H   H974      1.0  0.40756  0.46735  0.55445  1.0000
  N   N84       1.0  0.47917  0.34247  0.62297  1.0000
  Fe  Fe165     1.0  0.39111  0.34133  0.63567  1.0000
  S   S323      1.0  0.40295  0.36724  0.60995  1.0000
  H   H975      1.0  0.48733  0.36211  0.59308  1.0000
  C   C965      1.0  0.43212  0.52616  0.52086  1.0000
  H   H976      1.0  0.25649  0.35917  0.62916  1.0000
  C   C966      1.0  0.26034  0.35295  0.68950  1.0000
  C   C967      1.0  0.24932  0.42627  0.87667  1.0000
  H   H977      1.0  0.47671  0.58943  0.52366  1.0000
  C   C968      1.0  0.26856  0.34551  0.63450  1.0000
  H   H978      1.0  0.44551  0.50037  0.54333  1.0000
  C   C969      1.0  0.39070  0.42625  0.54948  1.0000
  H   H979      1.0  0.43683  0.58142  0.51097  1.0000
  S   S324      1.0  0.36881  0.36026  0.50651  1.0000
  H   H980      1.0  0.30620  0.33913  0.64421  1.0000
  C   C970      1.0  0.45370  0.39837  0.61587  1.0000
  C   C971      1.0  0.44390  0.38550  0.63358  1.0000
  C   C972      1.0  0.42842  0.37564  0.63202  1.0000
  C   C973      1.0  0.42275  0.37858  0.61269  1.0000
  C   C974      1.0  0.43282  0.39117  0.59496  1.0000
  C   C975      1.0  0.44805  0.40120  0.59658  1.0000
  H   H981      1.0  0.44816  0.38328  0.64858  1.0000
  H   H982      1.0  0.42069  0.36604  0.64580  1.0000
  H   H983      1.0  0.42886  0.39320  0.57986  1.0000
  H   H984      1.0  0.45549  0.41104  0.58284  1.0000
  C   C976      1.0  0.48757  0.45103  0.63421  1.0000
  H   H985      1.0  0.24870  0.33205  0.77219  1.0000
  C   C977      1.0  0.25276  0.39589  0.90374  1.0000
  S   S325      1.0  0.40235  0.32630  0.66576  1.0000
  C   C978      1.0  0.43224  0.49549  0.49954  1.0000
  H   H986      1.0  0.46395  0.35109  0.57680  1.0000
  C   C979      1.0  0.48918  0.47206  0.62709  1.0000
  N   N85       1.0  0.46940  0.56929  0.50774  1.0000
  C   C980      1.0  0.28088  0.34929  0.69216  1.0000
  C   C981      1.0  0.40100  0.45564  0.52195  1.0000
  H   H987      1.0  0.41719  0.44947  0.51406  1.0000
  C   C982      1.0  0.25002  0.43017  0.91179  1.0000
  S   S326      1.0  0.41851  0.55846  0.48984  1.0000
  C   C983      1.0  0.26507  0.57110  0.96089  1.0000
  H   H988      1.0  0.27111  0.58146  0.94669  1.0000
  C   C984      1.0  0.47809  0.41558  0.50421  1.0000
  C   C985      1.0  0.38724  0.41566  0.57048  1.0000
  S   S327      1.0  0.47333  0.41036  0.61791  1.0000
  C   C986      1.0  0.43976  0.50487  0.52886  1.0000
  C   C987      1.0  0.46508  0.34425  0.59301  1.0000
  C   C988      1.0  0.25665  0.35195  0.67024  1.0000
  H   H989      1.0  0.28270  0.34498  0.62169  1.0000
  C   C989      1.0  0.48037  0.57396  0.51992  1.0000
  H   H990      1.0  0.25285  0.36662  0.89588  1.0000
  S   S328      1.0  0.42219  0.37701  0.49357  1.0000
  C   C990      1.0  0.24830  0.41426  0.86287  1.0000
  H   H991      1.0  0.46527  0.54604  0.49356  1.0000
  S   S329      1.0  0.24919  0.33114  0.54993  1.0000
  H   H992      1.0  0.47536  0.48417  0.62491  1.0000
  C   C991      1.0  0.45281  0.32982  0.60500  1.0000
  H   H993      1.0  0.48542  0.38600  0.52551  1.0000
  H   H994      1.0  0.47672  0.42480  0.51579  1.0000
  H   H995      1.0  0.32469  0.32825  0.75191  1.0000
  S   S330      1.0  0.48983  0.50831  0.57979  1.0000
  C   C992      1.0  0.24961  0.39270  0.86980  1.0000
  S   S331      1.0  0.49195  0.42598  0.55557  1.0000
  C   C993      1.0  0.46761  0.32789  0.63471  1.0000
  C   C994      1.0  0.42527  0.51665  0.49124  1.0000
  H   H996      1.0  0.39034  0.32830  0.53943  1.0000
  H   H997      1.0  0.49233  0.36640  0.62696  1.0000
  C   C995      1.0  0.24546  0.54338  0.97803  1.0000
  H   H998      1.0  0.24577  0.42173  0.84715  1.0000
  H   H999      1.0  0.24808  0.38327  0.85954  1.0000
  H   H1000     1.0  0.44195  0.32551  0.59820  1.0000
  S   S332      1.0  0.29379  0.69928  0.09495  1.0000
  H   H1001     1.0  0.39788  0.72669  0.28606  1.0000
  C   C996      1.0  0.24992  0.86580  0.11008  1.0000
  C   C997      1.0  0.32479  0.67464  0.00293  1.0000
  S   S333      1.0  0.24932  0.72227  0.32102  1.0000
  H   H1002     1.0  0.46882  0.81566  0.12647  1.0000
  H   H1003     1.0  0.31371  0.75840  0.20272  1.0000
  C   C998      1.0  0.35603  0.67342  0.13520  1.0000
  C   C999      1.0  0.39846  0.73858  0.01602  1.0000
  Fe  Fe166     1.0  0.30181  0.75184  0.33761  1.0000
  S   S334      1.0  0.29559  0.75300  0.30620  1.0000
  S   S335      1.0  0.33183  0.73054  0.34491  1.0000
  Fe  Fe167     1.0  0.28204  0.78680  0.30633  1.0000
  S   S336      1.0  0.28541  0.81073  0.27651  1.0000
  Fe  Fe168     1.0  0.26423  0.74721  0.32438  1.0000
  S   S337      1.0  0.29100  0.78679  0.33625  1.0000
  S   S338      1.0  0.27100  0.74431  0.35595  1.0000
  Fe  Fe169     1.0  0.42212  0.67908  0.25685  1.0000
  C   C1000     1.0  0.43238  0.99127  0.03105  1.0000
  S   S339      1.0  0.42712  0.71219  0.24891  1.0000
  Fe  Fe170     1.0  0.42443  0.72617  0.06385  1.0000
  C   C1001     1.0  0.46144  0.69381  0.19129  1.0000
  Fe  Fe171     1.0  0.26224  0.77250  0.05869  1.0000
  C   C1002     1.0  0.28522  0.68453  0.35903  1.0000
  C   C1003     1.0  0.29183  0.67889  0.27825  1.0000
  Fe  Fe172     1.0  0.29114  0.77528  0.08485  1.0000
  S   S340      1.0  0.28415  0.74555  0.04566  1.0000
  H   H1004     1.0  0.25654  0.74932  0.01473  1.0000
  H   H1005     1.0  0.32497  0.71934  0.02927  1.0000
  C   C1004     1.0  0.47586  0.78515  0.07278  1.0000
  C   C1005     1.0  0.36526  0.67254  0.04592  1.0000
  S   S341      1.0  0.47856  0.90674  0.12306  1.0000
  C   C1006     1.0  0.35830  0.71282  0.99860  1.0000
  Fe  Fe173     1.0  0.35042  0.82634  0.16617  1.0000
  S   S342      1.0  0.36081  0.85188  0.17429  1.0000
  S   S343      1.0  0.31806  0.83042  0.16066  1.0000
  Fe  Fe174     1.0  0.39331  0.79766  0.16416  1.0000
  S   S344      1.0  0.40773  0.82058  0.17201  1.0000
  S   S345      1.0  0.40849  0.76462  0.16096  1.0000
  Fe  Fe175     1.0  0.37769  0.82558  0.19579  1.0000
  S   S346      1.0  0.37604  0.82460  0.22972  1.0000
  Fe  Fe176     1.0  0.38961  0.84467  0.14972  1.0000
  S   S347      1.0  0.40005  0.87113  0.12418  1.0000
  S   S348      1.0  0.36485  0.80064  0.18963  1.0000
  S   S349      1.0  0.37779  0.82111  0.13973  1.0000
  C   C1007     1.0  0.26891  0.80334  0.21387  1.0000
  C   C1008     1.0  0.26340  0.81727  0.19605  1.0000
  C   C1009     1.0  0.27851  0.82595  0.18022  1.0000
  C   C1010     1.0  0.29939  0.82097  0.18217  1.0000
  C   C1011     1.0  0.30493  0.80777  0.20057  1.0000
  C   C1012     1.0  0.28966  0.79884  0.21643  1.0000
  H   H1006     1.0  0.45061  0.66816  0.18644  1.0000
  H   H1007     1.0  0.27392  0.83630  0.16632  1.0000
  H   H1008     1.0  0.32090  0.80415  0.20247  1.0000
  H   H1009     1.0  0.29391  0.78851  0.23057  1.0000
  C   C1013     1.0  0.45616  0.89728  0.12436  1.0000
  C   C1014     1.0  0.45123  0.87977  0.13970  1.0000
  C   C1015     1.0  0.43388  0.87159  0.14004  1.0000
  C   C1016     1.0  0.42169  0.88077  0.12480  1.0000
  C   C1017     1.0  0.42664  0.89825  0.10955  1.0000
  C   C1018     1.0  0.44361  0.90666  0.10952  1.0000
  H   H1010     1.0  0.46092  0.87242  0.15121  1.0000
  H   H1011     1.0  0.43011  0.85811  0.15189  1.0000
  H   H1012     1.0  0.41728  0.90535  0.09771  1.0000
  H   H1013     1.0  0.44717  0.92020  0.09772  1.0000
  H   H1014     1.0  0.24618  0.83635  0.23811  1.0000
  H   H1015     1.0  0.48840  0.79823  0.04071  1.0000
  C   C1019     1.0  0.26515  0.80849  0.13950  1.0000
  C   C1020     1.0  0.27572  0.67188  0.29414  1.0000
  C   C1021     1.0  0.38571  0.69119  0.17838  1.0000
  H   H1016     1.0  0.37453  0.70470  0.18306  1.0000
  C   C1022     1.0  0.29801  0.68853  0.37034  1.0000
  C   C1023     1.0  0.42130  0.72662  0.22463  1.0000
  C   C1024     1.0  0.41470  0.71749  0.21154  1.0000
  C   C1025     1.0  0.41055  0.72925  0.19204  1.0000
  C   C1026     1.0  0.41267  0.75023  0.18574  1.0000
  C   C1027     1.0  0.41886  0.75947  0.19897  1.0000
  C   C1028     1.0  0.42349  0.74759  0.21821  1.0000
  H   H1017     1.0  0.41339  0.70123  0.21610  1.0000
  H   H1018     1.0  0.40597  0.72202  0.18173  1.0000
  H   H1019     1.0  0.42068  0.77563  0.19415  1.0000
  H   H1020     1.0  0.42886  0.75468  0.22811  1.0000
  C   C1029     1.0  0.31060  0.81503  0.26435  1.0000
  C   C1030     1.0  0.31418  0.82502  0.24320  1.0000
  C   C1031     1.0  0.33423  0.82819  0.23270  1.0000
  C   C1032     1.0  0.35068  0.82197  0.24348  1.0000
  C   C1033     1.0  0.34702  0.81247  0.26485  1.0000
  C   C1034     1.0  0.32701  0.80870  0.27524  1.0000
  H   H1021     1.0  0.30148  0.83002  0.23479  1.0000
  H   H1022     1.0  0.33687  0.83554  0.21625  1.0000
  H   H1023     1.0  0.35976  0.80754  0.27320  1.0000
  H   H1024     1.0  0.32427  0.80106  0.29163  1.0000
  S   S350      1.0  0.29433  0.79151  0.10875  1.0000
  C   C1035     1.0  0.26245  0.68545  0.30695  1.0000
  H   H1025     1.0  0.39374  0.94347  0.08919  1.0000
  N   N86       1.0  0.29229  0.84835  0.10743  1.0000
  C   C1036     1.0  0.40686  0.67269  0.15120  1.0000
  C   C1037     1.0  0.33953  0.70847  0.33307  1.0000
  C   C1038     1.0  0.32605  0.70331  0.32330  1.0000
  C   C1039     1.0  0.33255  0.68586  0.31366  1.0000
  C   C1040     1.0  0.35256  0.67342  0.31380  1.0000
  C   C1041     1.0  0.36599  0.67835  0.32379  1.0000
  C   C1042     1.0  0.35941  0.69572  0.33358  1.0000
  H   H1026     1.0  0.31032  0.71228  0.32369  1.0000
  N   N87       1.0  0.45004  0.71554  0.15346  1.0000
  H   H1027     1.0  0.36664  0.94380  0.10181  1.0000
  H   H1028     1.0  0.36982  0.69941  0.34137  1.0000
  C   C1043     1.0  0.46290  0.85994  0.08985  1.0000
  S   S351      1.0  0.41708  0.98002  0.07356  1.0000
  H   H1029     1.0  0.32728  0.67850  0.38047  1.0000
  C   C1044     1.0  0.29243  0.66322  0.08465  1.0000
  H   H1030     1.0  0.32540  0.66149  0.99600  1.0000
  C   C1045     1.0  0.47991  0.86792  0.09052  1.0000
  S   S352      1.0  0.42632  0.69883  0.04921  1.0000
  H   H1031     1.0  0.38178  0.89726  0.16321  1.0000
  H   H1032     1.0  0.25582  0.80501  0.09322  1.0000
  H   H1033     1.0  0.29591  0.70013  0.04172  1.0000
  Fe  Fe177     1.0  0.25922  0.77926  0.35141  1.0000
  H   H1034     1.0  0.35886  0.72142  0.01052  1.0000
  C   C1046     1.0  0.46692  0.77843  0.04255  1.0000
  C   C1047     1.0  0.34644  0.66528  0.05147  1.0000
  C   C1048     1.0  0.24991  0.82829  0.37303  1.0000
  N   N88       1.0  0.41352  0.77548  0.00600  1.0000
  C   C1049     1.0  0.47811  0.78824  0.05100  1.0000
  Fe  Fe178     1.0  0.47883  0.98331  0.10063  1.0000
  H   H1035     1.0  0.26050  0.86223  0.24805  1.0000
  C   C1050     1.0  0.25097  0.85243  0.25995  1.0000
  H   H1036     1.0  0.34078  0.73339  0.28804  1.0000
  H   H1037     1.0  0.27762  0.80474  0.14803  1.0000
  S   S353      1.0  0.26470  0.75836  0.09215  1.0000
  N   N89       1.0  0.37020  0.74207  0.27381  1.0000
  N   N90       1.0  0.35115  0.76558  0.14850  1.0000
  C   C1051     1.0  0.33039  0.77478  0.15028  1.0000
  C   C1052     1.0  0.35859  0.75319  0.16566  1.0000
  C   C1053     1.0  0.31664  0.77223  0.16978  1.0000
  C   C1054     1.0  0.34533  0.75051  0.18545  1.0000
  C   C1055     1.0  0.32422  0.76017  0.18748  1.0000
  Fe  Fe179     1.0  0.43281  0.67914  0.08013  1.0000
  H   H1038     1.0  0.32434  0.78423  0.13663  1.0000
  H   H1039     1.0  0.37489  0.74530  0.16409  1.0000
  H   H1040     1.0  0.48782  0.96204  0.15352  1.0000
  H   H1041     1.0  0.35147  0.74103  0.19904  1.0000
  H   H1042     1.0  0.26283  0.85413  0.37444  1.0000
  H   H1043     1.0  0.39693  0.66798  0.02827  1.0000
  H   H1044     1.0  0.36441  0.75641  0.11926  1.0000
  C   C1056     1.0  0.46426  0.71440  0.18318  1.0000
  H   H1045     1.0  0.32903  0.79705  0.03671  1.0000
  H   H1046     1.0  0.33296  0.67324  0.06118  1.0000
  H   H1047     1.0  0.45537  0.72131  0.12020  1.0000
  S   S354      1.0  0.24961  0.79139  0.23230  1.0000
  H   H1048     1.0  0.39740  0.75424  0.25713  1.0000
  H   H1049     1.0  0.40541  0.94875  0.99081  1.0000
  H   H1050     1.0  0.48293  0.88270  0.08046  1.0000
  H   H1051     1.0  0.34144  0.78287  0.23328  1.0000
  H   H1052     1.0  0.41233  0.67190  0.13479  1.0000
  S   S355      1.0  0.33489  0.76482  0.01324  1.0000
  C   C1057     1.0  0.41762  0.73998  0.00223  1.0000
  H   H1053     1.0  0.25554  0.96044  0.47030  1.0000
  H   H1054     1.0  0.47039  0.85659  0.99016  1.0000
  C   C1058     1.0  0.44374  0.72689  0.13363  1.0000
  N   N91       1.0  0.45877  0.84165  0.10307  1.0000
  H   H1055     1.0  0.37921  0.71074  0.28962  1.0000
  C   C1059     1.0  0.38096  0.75502  0.25806  1.0000
  C   C1060     1.0  0.47163  0.83059  0.11664  1.0000
  C   C1061     1.0  0.38084  0.72680  0.28950  1.0000
  C   C1062     1.0  0.45364  0.76524  0.05579  1.0000
  H   H1056     1.0  0.28311  0.72904  0.28508  1.0000
  H   H1057     1.0  0.42803  0.72454  0.13351  1.0000
  C   C1063     1.0  0.31721  0.67487  0.37219  1.0000
  C   C1064     1.0  0.37090  0.76957  0.24302  1.0000
  H   H1058     1.0  0.28987  0.66208  0.16367  1.0000
  C   C1065     1.0  0.30824  0.68000  0.01920  1.0000
  C   C1066     1.0  0.33868  0.75806  0.26068  1.0000
  H   H1059     1.0  0.39257  0.72418  0.02006  1.0000
  C   C1067     1.0  0.34856  0.81857  0.01786  1.0000
  Fe  Fe180     1.0  0.44984  0.97328  0.07833  1.0000
  C   C1068     1.0  0.38709  0.75566  0.02501  1.0000
  C   C1069     1.0  0.36527  0.76815  0.12788  1.0000
  C   C1070     1.0  0.26553  0.70588  0.30419  1.0000
  C   C1071     1.0  0.46243  0.77215  0.08599  1.0000
  H   H1060     1.0  0.29346  0.70251  0.37703  1.0000
  C   C1072     1.0  0.42176  0.79470  0.00123  1.0000
  C   C1073     1.0  0.44090  0.83338  0.10230  1.0000
  H   H1061     1.0  0.37396  0.73063  0.30529  1.0000
  C   C1074     1.0  0.45312  0.68408  0.18017  1.0000
  H   H1062     1.0  0.28918  0.85856  0.13582  1.0000
  C   C1075     1.0  0.24503  0.81827  0.14828  1.0000
  C   C1076     1.0  0.28248  0.84730  0.09235  1.0000
  S   S356      1.0  0.39396  0.67273  0.24979  1.0000
  H   H1063     1.0  0.46050  0.76985  0.10283  1.0000
  C   C1077     1.0  0.39504  0.77400  0.02002  1.0000
  H   H1064     1.0  0.32199  0.68192  0.30623  1.0000
  C   C1078     1.0  0.31415  0.83768  0.10717  1.0000
  C   C1079     1.0  0.29163  0.66681  0.35001  1.0000
  S   S357      1.0  0.43945  0.75358  0.04461  1.0000
  S   S358      1.0  0.38350  0.71161  0.13807  1.0000
  N   N92       1.0  0.34672  0.68412  0.11864  1.0000
  C   C1080     1.0  0.24739  0.85353  0.28114  1.0000
  H   H1065     1.0  0.43152  0.79360  0.01265  1.0000
  H   H1066     1.0  0.26431  0.82055  0.36426  1.0000
  H   H1067     1.0  0.45282  0.86865  0.07899  1.0000
  C   C1081     1.0  0.34546  0.78752  0.00764  1.0000
  C   C1082     1.0  0.33804  0.70671  0.11626  1.0000
  C   C1083     1.0  0.42498  0.75867  0.99738  1.0000
  H   H1068     1.0  0.29084  0.83881  0.07995  1.0000
  C   C1084     1.0  0.28142  0.85803  0.12372  1.0000
  C   C1085     1.0  0.38238  0.66245  0.03284  1.0000
  H   H1069     1.0  0.33777  0.68240  0.09108  1.0000
  H   H1070     1.0  0.34214  0.71367  0.12764  1.0000
  H   H1071     1.0  0.34443  0.71493  0.10021  1.0000
  H   H1072     1.0  0.32073  0.70965  0.11847  1.0000
  N   N93       1.0  0.38799  0.93821  0.12238  1.0000
  C   C1086     1.0  0.38031  0.92126  0.13504  1.0000
  C   C1087     1.0  0.40295  0.94527  0.12755  1.0000
  C   C1088     1.0  0.38744  0.91109  0.15358  1.0000
  C   C1089     1.0  0.41061  0.93532  0.14584  1.0000
  C   C1090     1.0  0.40279  0.91811  0.15890  1.0000
  C   C1091     1.0  0.38122  0.94819  0.10248  1.0000
  H   H1073     1.0  0.36916  0.91498  0.13055  1.0000
  H   H1074     1.0  0.40934  0.95842  0.11724  1.0000
  Fe  Fe181     1.0  0.47882  0.93798  0.10070  1.0000
  H   H1075     1.0  0.42288  0.94062  0.14957  1.0000
  H   H1076     1.0  0.40896  0.90989  0.17286  1.0000
  H   H1077     1.0  0.37821  0.96559  0.10026  1.0000
  H   H1078     1.0  0.44124  0.68760  0.15244  1.0000
  C   C1092     1.0  0.34537  0.67388  0.10402  1.0000
  C   C1093     1.0  0.34961  0.77111  0.24440  1.0000
  S   S359      1.0  0.38983  0.72921  0.07691  1.0000
  H   H1079     1.0  0.47019  0.72226  0.19200  1.0000
  H   H1080     1.0  0.38811  0.67562  0.21001  1.0000
  C   C1094     1.0  0.45148  0.76211  0.07756  1.0000
  S   S360      1.0  0.45401  0.96413  0.11156  1.0000
  S   S361      1.0  0.47311  0.94582  0.06785  1.0000
  H   H1081     1.0  0.32269  0.84712  0.11213  1.0000
  C   C1095     1.0  0.26903  0.80343  0.11978  1.0000
  C   C1096     1.0  0.45852  0.72508  0.16407  1.0000
  H   H1082     1.0  0.25588  0.70839  0.07856  1.0000
  C   C1097     1.0  0.47519  0.91126  0.00739  1.0000
  C   C1098     1.0  0.29434  0.69959  0.27491  1.0000
  C   C1099     1.0  0.39266  0.69039  0.15709  1.0000
  H   H1083     1.0  0.32199  0.75959  0.26218  1.0000
  C   C1100     1.0  0.26595  0.65919  0.06829  1.0000
  H   H1084     1.0  0.37357  0.70172  0.99598  1.0000
  C   C1101     1.0  0.26391  0.69241  0.07769  1.0000
  S   S362      1.0  0.24969  0.78130  0.32128  1.0000
  S   S363      1.0  0.28663  0.79174  0.05247  1.0000
  C   C1102     1.0  0.28123  0.71305  0.28791  1.0000
  H   H1085     1.0  0.30025  0.77986  0.17120  1.0000
  C   C1103     1.0  0.25544  0.67981  0.06961  1.0000
  H   H1086     1.0  0.34406  0.82873  0.02911  1.0000
  H   H1087     1.0  0.44638  0.82034  0.09359  1.0000
  N   N94       1.0  0.34107  0.70145  0.00581  1.0000
  C   C1104     1.0  0.33989  0.80069  0.02211  1.0000
  H   H1088     1.0  0.46867  0.78092  0.02571  1.0000
  C   C1105     1.0  0.39351  0.67474  0.19370  1.0000
  C   C1106     1.0  0.28252  0.68407  0.08510  1.0000
  H   H1089     1.0  0.42928  0.84569  0.09451  1.0000
  H   H1090     1.0  0.46107  0.94150  0.01553  1.0000
  Fe  Fe182     1.0  0.39944  0.70699  0.10542  1.0000
  H   H1091     1.0  0.38176  0.76584  0.12948  1.0000
  H   H1092     1.0  0.29586  0.67107  0.02501  1.0000
  Fe  Fe183     1.0  0.39254  0.70000  0.06489  1.0000
  H   H1093     1.0  0.24740  0.82115  0.19440  1.0000
  H   H1094     1.0  0.38131  0.66850  0.32440  1.0000
  H   H1095     1.0  0.44110  0.75223  0.08787  1.0000
  S   S364      1.0  0.37398  0.84553  0.99516  1.0000
  S   S365      1.0  0.36567  0.69635  0.05245  1.0000
  S   S366      1.0  0.31593  0.74887  0.07415  1.0000
  C   C1107     1.0  0.34118  0.68559  0.99640  1.0000
  Fe  Fe184     1.0  0.28911  0.73314  0.07870  1.0000
  H   H1096     1.0  0.37950  0.77997  0.23072  1.0000
  H   H1097     1.0  0.31462  0.82231  0.11832  1.0000
  S   S367      1.0  0.39926  0.67824  0.09461  1.0000
  H   H1098     1.0  0.35684  0.68143  0.14698  1.0000
  H   H1099     1.0  0.24777  0.97445  0.36969  1.0000
  H   H1100     1.0  0.25001  0.67997  0.31922  1.0000
  S   S368      1.0  0.43372  0.70616  0.09348  1.0000
  H   H1101     1.0  0.48185  0.81841  0.00295  1.0000
  C   C1108     1.0  0.34932  0.74345  0.27531  1.0000
  H   H1102     1.0  0.30664  0.70511  0.26250  1.0000
  H   H1103     1.0  0.36111  0.78421  0.11849  1.0000
  C   C1109     1.0  0.41476  0.98955  0.04731  1.0000
  Fe  Fe185     1.0  0.30908  0.76361  0.04216  1.0000
  H   H1104     1.0  0.40885  0.80871  0.00214  1.0000
  H   H1105     1.0  0.43256  0.82751  0.11844  1.0000
  C   C1110     1.0  0.36315  0.82326  0.99927  1.0000
  H   H1106     1.0  0.46018  0.74129  0.15818  1.0000
  C   C1111     1.0  0.44766  0.69520  0.16106  1.0000
  H   H1107     1.0  0.46528  0.68561  0.20638  1.0000
  H   H1108     1.0  0.37217  0.75472  0.03574  1.0000
  C   C1112     1.0  0.26122  0.85625  0.09329  1.0000
  H   H1109     1.0  0.25398  0.86458  0.28542  1.0000
  C   C1113     1.0  0.26006  0.86676  0.12538  1.0000
  H   H1110     1.0  0.44239  0.74409  0.13143  1.0000
  S   S369      1.0  0.41788  0.65992  0.28975  1.0000
  C   C1114     1.0  0.32478  0.70703  0.02156  1.0000
  H   H1111     1.0  0.32249  0.83486  0.09129  1.0000
  H   H1112     1.0  0.44787  0.98647  0.03458  1.0000
  C   C1115     1.0  0.30822  0.69631  0.02858  1.0000
  C   C1116     1.0  0.24908  0.84726  0.37886  1.0000
  C   C1117     1.0  0.25283  0.80854  0.10867  1.0000
  H   H1113     1.0  0.46094  0.90873  0.00463  1.0000
  H   H1114     1.0  0.24629  0.75419  0.27462  1.0000
  C   C1118     1.0  0.47526  0.92958  0.01351  1.0000
  C   C1119     1.0  0.24681  0.71954  0.02307  1.0000
  H   H1115     1.0  0.25130  0.87369  0.13877  1.0000
  H   H1116     1.0  0.38624  0.78715  0.02726  1.0000
  H   H1117     1.0  0.27057  0.69534  0.35690  1.0000
  H   H1118     1.0  0.25994  0.71112  0.03038  1.0000
  H   H1119     1.0  0.24516  0.79967  0.44423  1.0000
  S   S370      1.0  0.48896  0.79778  0.08415  1.0000
  H   H1120     1.0  0.25336  0.85485  0.08166  1.0000
  C   C1120     1.0  0.48884  0.83806  0.11762  1.0000
  C   C1121     1.0  0.24496  0.74092  0.01423  1.0000
  H   H1121     1.0  0.42689  0.72659  0.99560  1.0000
  H   H1122     1.0  0.24660  0.84452  0.32213  1.0000
  H   H1123     1.0  0.28949  0.66021  0.12751  1.0000
  H   H1124     1.0  0.26043  0.99059  0.48256  1.0000
  S   S371      1.0  0.30902  0.66184  0.26267  1.0000
  H   H1125     1.0  0.28194  0.66369  0.34097  1.0000
  C   C1122     1.0  0.24578  0.98510  0.48799  1.0000
  C   C1123     1.0  0.49286  0.85696  0.10458  1.0000
  H   H1126     1.0  0.38981  0.97493  0.98952  1.0000
  Fe  Fe186     1.0  0.45332  0.97506  0.82925  1.0000
  C   C1124     1.0  0.42599  0.95031  0.86941  1.0000
  C   C1125     1.0  0.39198  0.98483  0.92700  1.0000
  Fe  Fe187     1.0  0.46013  0.98227  0.78191  1.0000
  S   S372      1.0  0.43213  0.84521  0.97857  1.0000
  C   C1126     1.0  0.46216  0.95525  0.94768  1.0000
  C   C1127     1.0  0.40330  0.96484  0.98098  1.0000
  C   C1128     1.0  0.40164  0.94671  0.95405  1.0000
  N   N95       1.0  0.46861  0.88620  0.85557  1.0000
  H   H1127     1.0  0.39968  0.93240  0.92946  1.0000
  H   H1128     1.0  0.44749  0.93933  0.97768  1.0000
  C   C1129     1.0  0.47188  0.90416  0.85913  1.0000
  C   C1130     1.0  0.43090  0.93827  0.88844  1.0000
  H   H1129     1.0  0.46415  0.91941  0.85172  1.0000
  H   H1130     1.0  0.43142  0.79716  0.98506  1.0000
  H   H1131     1.0  0.47925  0.93494  0.90349  1.0000
  Fe  Fe188     1.0  0.44581  0.83309  0.94885  1.0000
  S   S373      1.0  0.41486  0.83660  0.94048  1.0000
  N   N96       1.0  0.39976  0.96510  0.96027  1.0000
  Fe  Fe189     1.0  0.43565  0.87676  0.95868  1.0000
  S   S374      1.0  0.40381  0.88410  0.95121  1.0000
  Fe  Fe190     1.0  0.40147  0.85129  0.96880  1.0000
  H   H1132     1.0  0.46140  0.96913  0.95333  1.0000
  Fe  Fe191     1.0  0.42019  0.86891  0.92372  1.0000
  S   S375      1.0  0.41440  0.88357  0.89136  1.0000
  S   S376      1.0  0.45242  0.86413  0.92970  1.0000
  H   H1133     1.0  0.46392  0.87920  0.82832  1.0000
  H   H1134     1.0  0.47584  0.85282  0.86193  1.0000
  C   C1131     1.0  0.48584  0.90313  0.87174  1.0000
  S   S377      1.0  0.45026  0.95602  0.80785  1.0000
  C   C1132     1.0  0.47227  0.93586  0.91967  1.0000
  S   S378      1.0  0.48208  0.97492  0.90983  1.0000
  S   S379      1.0  0.44122  0.98926  0.75674  1.0000
  C   C1133     1.0  0.45493  0.92031  0.95436  1.0000
  C   C1134     1.0  0.41377  0.92138  0.86428  1.0000
  H   H1135     1.0  0.38031  0.81345  0.97048  1.0000
  C   C1135     1.0  0.39376  0.96619  0.92056  1.0000
  S   S380      1.0  0.43116  0.97564  0.86024  1.0000
  C   C1136     1.0  0.47766  0.81096  0.90670  1.0000
  H   H1136     1.0  0.41398  0.95092  0.84244  1.0000
  Fe  Fe192     1.0  0.48434  0.94283  0.80628  1.0000
  C   C1137     1.0  0.39840  0.94700  0.93423  1.0000
  H   H1137     1.0  0.40713  0.91488  0.85490  1.0000
  C   C1138     1.0  0.41763  0.94177  0.85725  1.0000
  H   H1138     1.0  0.35426  0.68090  0.98416  1.0000
  H   H1139     1.0  0.44876  0.90376  0.83407  1.0000
  S   S381      1.0  0.44505  0.89944  0.97237  1.0000
  H   H1140     1.0  0.44148  0.87980  0.85008  1.0000
  C   C1139     1.0  0.48570  0.80130  0.92484  1.0000
  S   S382      1.0  0.47030  0.80346  0.94988  1.0000
  H   H1141     1.0  0.43140  0.90834  0.90992  1.0000
  H   H1142     1.0  0.43773  0.94475  0.89767  1.0000
  C   C1140     1.0  0.45427  0.93834  0.96148  1.0000
  C   C1141     1.0  0.47143  0.95396  0.92682  1.0000
  C   C1142     1.0  0.45495  0.88729  0.84135  1.0000
  H   H1143     1.0  0.36464  0.78191  0.97783  1.0000
  S   S383      1.0  0.48647  0.95946  0.83022  1.0000
  C   C1143     1.0  0.39491  0.98399  0.94708  1.0000
  H   H1144     1.0  0.46155  0.81929  0.90801  1.0000
  C   C1144     1.0  0.46370  0.91914  0.93335  1.0000
  H   H1145     1.0  0.41754  0.97114  0.97906  1.0000
  H   H1146     1.0  0.46418  0.90531  0.92769  1.0000
  C   C1145     1.0  0.41866  0.90930  0.88330  1.0000
  C   C1146     1.0  0.42734  0.91771  0.89535  1.0000
  C   C1147     1.0  0.48827  0.82554  0.98701  1.0000
  C   C1148     1.0  0.47850  0.86697  0.86479  1.0000
  C   C1149     1.0  0.37386  0.98402  0.84836  1.0000
  H   H1147     1.0  0.35619  0.72452  0.98393  1.0000
  H   H1148     1.0  0.31410  0.98715  0.67267  1.0000
  C   C1150     1.0  0.49037  0.80937  0.88681  1.0000
  H   H1149     1.0  0.39170  0.96661  0.90494  1.0000
  H   H1150     1.0  0.40572  0.93166  0.96434  1.0000
  H   H1151     1.0  0.44005  0.75960  0.98694  1.0000
  C   C1151     1.0  0.48168  0.84709  0.97987  1.0000
  H   H1152     1.0  0.37567  0.96691  0.84961  1.0000
  H   H1153     1.0  0.48885  0.91745  0.87390  1.0000
  H   H1154     1.0  0.48403  0.81624  0.87281  1.0000
  H   H1155     1.0  0.48473  0.87302  0.95362  1.0000
  C   C1152     1.0  0.48965  0.85631  0.95928  1.0000
  H   H1156     1.0  0.35777  0.99051  0.85626  1.0000
  H   H1157     1.0  0.38471  0.98663  0.85702  1.0000
  C   C1153     1.0  0.36905  0.80994  0.98486  1.0000
  C   C1154     1.0  0.49257  0.86532  0.87752  1.0000
  C   C1155     1.0  0.36014  0.79212  0.98902  1.0000
  N   N97       1.0  0.60869  0.21913  0.21217  1.0000
  C   C1156     1.0  0.65083  0.27206  0.17143  1.0000
  C   C1157     1.0  0.51524  0.03656  0.02943  1.0000
  C   C1158     1.0  0.69509  0.10601  0.13967  1.0000
  C   C1159     1.0  0.55960  0.15560  0.11084  1.0000
  N   N98       1.0  0.54563  0.13139  0.10007  1.0000
  S   S384      1.0  0.69437  0.05448  0.15843  1.0000
  C   C1160     1.0  0.71518  0.11243  0.34637  1.0000
  Fe  Fe193     1.0  0.67910  0.06587  0.18846  1.0000
  S   S385      1.0  0.64665  0.08548  0.19295  1.0000
  S   S386      1.0  0.70742  0.07522  0.19166  1.0000
  H   H1158     1.0  0.71780  0.21953  0.07343  1.0000
  C   C1161     1.0  0.67250  0.07880  0.25661  1.0000
  C   C1162     1.0  0.68250  0.99292  0.15442  1.0000
  S   S387      1.0  0.58301  0.08929  0.04282  1.0000
  C   C1163     1.0  0.72177  0.12781  0.03588  1.0000
  C   C1164     1.0  0.69674  0.24660  0.26304  1.0000
  C   C1165     1.0  0.64613  0.10521  0.27229  1.0000
  S   S388      1.0  0.57929  0.29085  0.39688  1.0000
  C   C1166     1.0  0.66246  0.23238  0.16073  1.0000
  Fe  Fe194     1.0  0.59914  0.28613  0.36541  1.0000
  S   S389      1.0  0.61908  0.25450  0.36082  1.0000
  C   C1167     1.0  0.63683  0.30251  0.24300  1.0000
  H   H1159     1.0  0.64664  0.28977  0.23557  1.0000
  H   H1160     1.0  0.64596  0.28727  0.17577  1.0000
  Fe  Fe195     1.0  0.64132  0.17753  0.10340  1.0000
  S   S390      1.0  0.67585  0.16776  0.09149  1.0000
  S   S391      1.0  0.62100  0.15518  0.10240  1.0000
  Fe  Fe196     1.0  0.64826  0.21394  0.11956  1.0000
  S   S392      1.0  0.68301  0.20689  0.10843  1.0000
  S   S393      1.0  0.63428  0.24240  0.13441  1.0000
  Fe  Fe197     1.0  0.67566  0.20206  0.07961  1.0000
  S   S394      1.0  0.69235  0.21343  0.04678  1.0000
  Fe  Fe198     1.0  0.67996  0.17348  0.12145  1.0000
  S   S395      1.0  0.70452  0.15096  0.13756  1.0000
  S   S396      1.0  0.64078  0.21182  0.08934  1.0000
  S   S397      1.0  0.64559  0.18058  0.13484  1.0000
  Fe  Fe199     1.0  0.66734  0.16465  0.28463  1.0000
  S   S398      1.0  0.63595  0.18387  0.27977  1.0000
  S   S399      1.0  0.66861  0.14327  0.31594  1.0000
  Fe  Fe200     1.0  0.68851  0.18053  0.24021  1.0000
  S   S400      1.0  0.65902  0.20128  0.23178  1.0000
  S   S401      1.0  0.71837  0.17660  0.21642  1.0000
  Fe  Fe201     1.0  0.65357  0.20948  0.26329  1.0000
  S   S402      1.0  0.64204  0.24315  0.26677  1.0000
  Fe  Fe202     1.0  0.64474  0.17348  0.24895  1.0000
  S   S403      1.0  0.62114  0.16331  0.23753  1.0000
  S   S404      1.0  0.68455  0.19099  0.27044  1.0000
  S   S405      1.0  0.67466  0.15206  0.25524  1.0000
  C   C1168     1.0  0.70772  0.15765  0.15996  1.0000
  C   C1169     1.0  0.72633  0.14899  0.16731  1.0000
  C   C1170     1.0  0.72975  0.15516  0.18436  1.0000
  C   C1171     1.0  0.71410  0.16922  0.19481  1.0000
  C   C1172     1.0  0.69512  0.17714  0.18801  1.0000
  C   C1173     1.0  0.69206  0.17168  0.17036  1.0000
  N   N99       1.0  0.67854  0.22050  0.34471  1.0000
  H   H1161     1.0  0.57882  0.00625  0.00619  1.0000
  H   H1162     1.0  0.68294  0.18788  0.19596  1.0000
  H   H1163     1.0  0.67753  0.17816  0.16494  1.0000
  C   C1174     1.0  0.62386  0.25121  0.33482  1.0000
  C   C1175     1.0  0.63184  0.23115  0.33021  1.0000
  C   C1176     1.0  0.63742  0.22851  0.30933  1.0000
  C   C1177     1.0  0.63439  0.24590  0.29304  1.0000
  C   C1178     1.0  0.62552  0.26581  0.29771  1.0000
  C   C1179     1.0  0.62054  0.26854  0.31853  1.0000
  H   H1164     1.0  0.63344  0.21761  0.34280  1.0000
  H   H1165     1.0  0.64389  0.21300  0.30590  1.0000
  H   H1166     1.0  0.62227  0.27908  0.28528  1.0000
  H   H1167     1.0  0.61416  0.28403  0.32198  1.0000
  C   C1180     1.0  0.49413  0.02576  0.01097  1.0000
  C   C1181     1.0  0.52638  0.03420  0.08495  1.0000
  S   S406      1.0  0.52125  0.30940  0.38815  1.0000
  C   C1182     1.0  0.67863  0.10347  0.11279  1.0000
  C   C1183     1.0  0.62281  0.02295  0.08260  1.0000
  C   C1184     1.0  0.66605  0.21139  0.36233  1.0000
  H   H1168     1.0  0.62835  0.19652  0.19510  1.0000
  H   H1169     1.0  0.52440  0.04657  0.13157  1.0000
  H   H1170     1.0  0.53458  0.03665  0.06877  1.0000
  H   H1171     1.0  0.74237  0.10931  0.25209  1.0000
  C   C1185     1.0  0.60950  0.15349  0.08194  1.0000
  C   C1186     1.0  0.60317  0.17105  0.06688  1.0000
  C   C1187     1.0  0.59148  0.16949  0.05283  1.0000
  C   C1188     1.0  0.58619  0.15034  0.05345  1.0000
  H   H1172     1.0  0.60097  0.20016  0.19516  1.0000
  C   C1189     1.0  0.60466  0.13423  0.08220  1.0000
  H   H1173     1.0  0.60663  0.18601  0.06654  1.0000
  H   H1174     1.0  0.58613  0.18331  0.04167  1.0000
  N   N100      1.0  0.71760  0.23890  0.23009  1.0000
  C   C1190     1.0  0.64077  0.10705  0.20528  1.0000
  C   C1191     1.0  0.61973  0.11645  0.21098  1.0000
  C   C1192     1.0  0.61409  0.13375  0.22068  1.0000
  C   C1193     1.0  0.62941  0.14192  0.22474  1.0000
  C   C1194     1.0  0.65058  0.13283  0.21873  1.0000
  C   C1195     1.0  0.65627  0.11532  0.20904  1.0000
  H   H1175     1.0  0.60769  0.11024  0.20801  1.0000
  H   H1176     1.0  0.59772  0.14072  0.22521  1.0000
  H   H1177     1.0  0.66255  0.13930  0.22143  1.0000
  H   H1178     1.0  0.67258  0.10834  0.20450  1.0000
  C   C1196     1.0  0.69547  0.12038  0.34121  1.0000
  N   N101      1.0  0.60237  0.02377  0.08253  1.0000
  H   H1179     1.0  0.70474  0.24436  0.01157  1.0000
  H   H1180     1.0  0.65522  0.11754  0.29440  1.0000
  H   H1181     1.0  0.55634  0.10297  0.08890  1.0000
  H   H1182     1.0  0.57392  0.01385  0.09943  1.0000
  H   H1183     1.0  0.68627  0.09696  0.31040  1.0000
  H   H1184     1.0  0.50783  0.01417  0.08070  1.0000
  C   C1197     1.0  0.74197  0.12037  0.23675  1.0000
  C   C1198     1.0  0.71123  0.13981  0.30790  1.0000
  C   C1199     1.0  0.69349  0.13395  0.32196  1.0000
  C   C1200     1.0  0.67968  0.24259  0.34165  1.0000
  Fe  Fe203     1.0  0.55529  0.31077  0.37852  1.0000
  H   H1185     1.0  0.73825  0.13775  0.15961  1.0000
  H   H1186     1.0  0.70975  0.15047  0.29309  1.0000
  H   H1187     1.0  0.52703  0.03860  0.01452  1.0000
  H   H1188     1.0  0.67474  0.12006  0.16472  1.0000
  S   S407      1.0  0.68479  0.03399  0.20915  1.0000
  S   S408      1.0  0.66715  0.32165  0.18868  1.0000
  S   S409      1.0  0.55172  0.06572  0.03067  1.0000
  C   C1201     1.0  0.69431  0.09625  0.29387  1.0000
  H   H1189     1.0  0.66691  0.21701  0.15679  1.0000
  S   S410      1.0  0.73565  0.28700  0.31270  1.0000
  C   C1202     1.0  0.72604  0.25835  0.01990  1.0000
  C   C1203     1.0  0.71284  0.24422  0.02362  1.0000
  C   C1204     1.0  0.70953  0.23042  0.04299  1.0000
  C   C1205     1.0  0.72001  0.23040  0.05854  1.0000
  C   C1206     1.0  0.50013  0.08548  0.99358  1.0000
  H   H1190     1.0  0.61538  0.21971  0.17922  1.0000
  C   C1207     1.0  0.59253  0.22117  0.24805  1.0000
  C   C1208     1.0  0.61573  0.24437  0.22781  1.0000
  C   C1209     1.0  0.60264  0.23733  0.24664  1.0000
  H   H1191     1.0  0.58273  0.21523  0.26277  1.0000
  H   H1192     1.0  0.62433  0.25638  0.22671  1.0000
  H   H1193     1.0  0.60075  0.24406  0.26025  1.0000
  N   N102      1.0  0.68777  0.27558  0.08292  1.0000
  C   C1210     1.0  0.70422  0.28548  0.07373  1.0000
  S   S411      1.0  0.72326  0.04011  0.24160  1.0000
  C   C1211     1.0  0.52080  0.03962  0.12038  1.0000
  C   C1212     1.0  0.73099  0.13193  0.31317  1.0000
  H   H1194     1.0  0.57221  0.04556  0.99603  1.0000
  N   N103      1.0  0.67976  0.09412  0.28199  1.0000
  H   H1195     1.0  0.73630  0.17338  0.10817  1.0000
  Fe  Fe204     1.0  0.56119  0.11968  0.03427  1.0000
  S   S412      1.0  0.61368  0.31401  0.36021  1.0000
  H   H1196     1.0  0.49733  0.02492  0.14322  1.0000
  H   H1197     1.0  0.52976  0.14410  0.07450  1.0000
  H   H1198     1.0  0.51207  0.27364  0.45810  1.0000
  C   C1213     1.0  0.67562  0.11531  0.15022  1.0000
  H   H1199     1.0  0.71735  0.11261  0.04065  1.0000
  H   H1200     1.0  0.70898  0.10379  0.14594  1.0000
  C   C1214     1.0  0.68613  0.08063  0.26834  1.0000
  H   H1201     1.0  0.68453  0.27188  0.05316  1.0000
  C   C1215     1.0  0.53754  0.14731  0.08528  1.0000
  H   H1202     1.0  0.68211  0.24688  0.27446  1.0000
  H   H1203     1.0  0.71580  0.29248  0.11756  1.0000
  H   H1204     1.0  0.71173  0.09289  0.11263  1.0000
  C   C1216     1.0  0.69662  0.10015  0.12081  1.0000
  H   H1205     1.0  0.68175  0.11588  0.35213  1.0000
  H   H1206     1.0  0.74084  0.14028  0.10058  1.0000
  H   H1207     1.0  0.64109  0.00289  0.00403  1.0000
  H   H1208     1.0  0.63993  0.04123  0.03049  1.0000
  H   H1209     1.0  0.56381  0.12257  0.12383  1.0000
  H   H1210     1.0  0.73831  0.12296  0.00499  1.0000
  H   H1211     1.0  0.67768  0.06804  0.24581  1.0000
  C   C1217     1.0  0.69115  0.27767  0.11705  1.0000
  S   S413      1.0  0.53195  0.10767  0.05180  1.0000
  Fe  Fe205     1.0  0.55382  0.07683  0.05854  1.0000
  Fe  Fe206     1.0  0.53160  0.09743  0.02239  1.0000
  S   S414      1.0  0.69339  0.29802  0.22604  1.0000
  C   C1218     1.0  0.73936  0.18720  0.01712  1.0000
  H   H1212     1.0  0.65702  0.22042  0.37414  1.0000
  C   C1219     1.0  0.55664  0.13529  0.11270  1.0000
  S   S415      1.0  0.55831  0.11317  0.00381  1.0000
  C   C1220     1.0  0.70807  0.28756  0.10783  1.0000
  H   H1213     1.0  0.58941  0.11777  0.06864  1.0000
  S   S416      1.0  0.73808  0.22846  0.30915  1.0000
  H   H1214     1.0  0.66833  0.25258  0.33195  1.0000
  C   C1221     1.0  0.67106  0.23655  0.17590  1.0000
  H   H1215     1.0  0.66042  0.27876  0.07137  1.0000
  C   C1222     1.0  0.71578  0.14164  0.04970  1.0000
  C   C1223     1.0  0.66399  0.19063  0.36493  1.0000
  C   C1224     1.0  0.63772  0.12833  0.15341  1.0000
  S   S417      1.0  0.56920  0.14970  0.03727  1.0000
  N   N104      1.0  0.49495  0.03668  0.02526  1.0000
  H   H1216     1.0  0.62857  0.01716  0.09711  1.0000
  H   H1217     1.0  0.68206  0.22433  0.18364  1.0000
  C   C1225     1.0  0.64711  0.00296  0.14783  1.0000
  Fe  Fe207     1.0  0.72235  0.30446  0.20240  1.0000
  H   H1218     1.0  0.53453  0.18014  0.07063  1.0000
  H   H1219     1.0  0.58831  0.19923  0.23196  1.0000
  C   C1226     1.0  0.65937  0.11282  0.12377  1.0000
  H   H1220     1.0  0.62901  0.24024  0.19628  1.0000
  Fe  Fe208     1.0  0.72363  0.06049  0.16379  1.0000
  C   C1227     1.0  0.59504  0.03132  0.06430  1.0000
  H   H1221     1.0  0.72797  0.26939  0.00505  1.0000
  H   H1222     1.0  0.74118  0.19258  0.03080  1.0000
  Fe  Fe209     1.0  0.71457  0.04265  0.21046  1.0000
  H   H1223     1.0  0.56909  0.15850  0.12025  1.0000
  H   H1224     1.0  0.65298  0.02806  0.06397  1.0000
  H   H1225     1.0  0.65953  0.01896  0.16462  1.0000
  C   C1228     1.0  0.51783  0.28248  0.46607  1.0000
  H   H1226     1.0  0.55427  0.18756  0.09364  1.0000
  C   C1229     1.0  0.68117  0.27169  0.10427  1.0000
  H   H1227     1.0  0.64543  0.11533  0.11751  1.0000
  C   C1230     1.0  0.50859  0.31913  0.41097  1.0000
  H   H1228     1.0  0.64164  0.08993  0.24964  1.0000
  C   C1231     1.0  0.58811  0.01729  0.10228  1.0000
  H   H1229     1.0  0.57887  0.03190  0.06414  1.0000
  C   C1232     1.0  0.66010  0.10645  0.28396  1.0000
  H   H1230     1.0  0.67285  0.16331  0.35087  1.0000
  H   H1231     1.0  0.62909  0.14063  0.14251  1.0000
  H   H1232     1.0  0.67954  0.09880  0.09824  1.0000
  H   H1233     1.0  0.69536  0.18012  0.31900  1.0000
  C   C1233     1.0  0.64736  0.24780  0.15151  1.0000
  C   C1234     1.0  0.67460  0.17930  0.34927  1.0000
  H   H1234     1.0  0.60265  0.04301  0.03091  1.0000
  S   S418      1.0  0.67261  0.25970  0.20350  1.0000
  H   H1235     1.0  0.68572  0.27479  0.13398  1.0000
  S   S419      1.0  0.60453  0.06895  0.98966  1.0000
  C   C1235     1.0  0.63123  0.01192  0.99247  1.0000
  C   C1236     1.0  0.55133  0.17192  0.09586  1.0000
  C   C1237     1.0  0.73670  0.25831  0.03522  1.0000
  S   S420      1.0  0.54999  0.05908  0.09184  1.0000
  N   N105      1.0  0.50521  0.29038  0.48292  1.0000
  H   H1236     1.0  0.61814  0.02285  0.00033  1.0000
  H   H1237     1.0  0.70180  0.07112  0.26643  1.0000
  C   C1238     1.0  0.50069  0.01824  0.11272  1.0000
  C   C1239     1.0  0.61832  0.31356  0.23653  1.0000
  Fe  Fe210     1.0  0.68427  0.28923  0.19994  1.0000
  C   C1240     1.0  0.71479  0.29134  0.08603  1.0000
  S   S421      1.0  0.71465  0.29240  0.17772  1.0000
  H   H1238     1.0  0.66800  0.26406  0.11146  1.0000
  N   N106      1.0  0.65812  0.11882  0.14211  1.0000
  H   H1239     1.0  0.70724  0.22328  0.21164  1.0000
  H   H1240     1.0  0.51419  0.04972  0.03711  1.0000
  H   H1241     1.0  0.70783  0.08276  0.29436  1.0000
  H   H1242     1.0  0.65380  0.18358  0.37875  1.0000
  H   H1243     1.0  0.52847  0.10935  0.09847  1.0000
  S   S422      1.0  0.50098  0.09784  0.01366  1.0000
  H   H1244     1.0  0.63072  0.11536  0.27349  1.0000
  C   C1241     1.0  0.67667  0.26944  0.07002  1.0000
  C   C1242     1.0  0.59574  0.21221  0.23054  1.0000
  H   H1245     1.0  0.63025  0.27978  0.14951  1.0000
  C   C1243     1.0  0.59326  0.13261  0.06796  1.0000
  H   H1246     1.0  0.60940  0.12055  0.09379  1.0000
  S   S423      1.0  0.72122  0.29659  0.37033  1.0000
  C   C1244     1.0  0.72744  0.31442  0.38178  1.0000
  H   H1247     1.0  0.67576  0.24777  0.35689  1.0000
  C   C1245     1.0  0.73358  0.13360  0.01586  1.0000
  H   H1248     1.0  0.62827  0.11610  0.16111  1.0000
  C   C1246     1.0  0.66504  0.25627  0.18153  1.0000
  H   H1249     1.0  0.74006  0.09584  0.17052  1.0000
  H   H1250     1.0  0.70937  0.28886  0.05678  1.0000
  H   H1251     1.0  0.62771  0.32103  0.30139  1.0000
  C   C1247     1.0  0.64185  0.26774  0.15666  1.0000
  C   C1248     1.0  0.53103  0.04338  0.09934  1.0000
  C   C1249     1.0  0.61353  0.20838  0.19453  1.0000
  H   H1252     1.0  0.67610  0.25249  0.07534  1.0000
  H   H1253     1.0  0.70665  0.13736  0.06532  1.0000
  C   C1250     1.0  0.61852  0.23505  0.21065  1.0000
  C   C1251     1.0  0.69918  0.23946  0.24456  1.0000
  H   H1254     1.0  0.71717  0.17177  0.05409  1.0000
  H   H1255     1.0  0.73495  0.21924  0.20858  1.0000
  C   C1252     1.0  0.50550  0.02735  0.12698  1.0000
  C   C1253     1.0  0.54393  0.10982  0.10113  1.0000
  C   C1254     1.0  0.71317  0.25353  0.26647  1.0000
  C   C1255     1.0  0.54017  0.16780  0.08302  1.0000
  H   H1256     1.0  0.65942  0.99963  0.20407  1.0000
  S   S424      1.0  0.73288  0.02831  0.18276  1.0000
  H   H1257     1.0  0.73726  0.28726  0.42920  1.0000
  H   H1258     1.0  0.69858  0.21680  0.31514  1.0000
  C   C1256     1.0  0.68893  0.20951  0.32925  1.0000
  C   C1257     1.0  0.72174  0.16112  0.04324  1.0000
  H   H1259     1.0  0.70027  0.11094  0.28663  1.0000
  Fe  Fe211     1.0  0.57829  0.08183  0.01389  1.0000
  C   C1258     1.0  0.68718  0.18876  0.33132  1.0000
  Fe  Fe212     1.0  0.70226  0.02314  0.17917  1.0000
  N   N107      1.0  0.73369  0.16651  0.02372  1.0000
  S   S425      1.0  0.57387  0.30344  0.34751  1.0000
  H   H1260     1.0  0.52071  0.02148  0.03981  1.0000
  H   H1261     1.0  0.61386  0.30973  0.22376  1.0000
  C   C1259     1.0  0.65233  0.09107  0.25876  1.0000
  C   C1260     1.0  0.62939  0.03655  0.04519  1.0000
  C   C1261     1.0  0.51133  0.02142  0.09171  1.0000
  C   C1262     1.0  0.60844  0.03772  0.04538  1.0000
  H   H1262     1.0  0.54556  0.09962  0.11669  1.0000
  H   H1263     1.0  0.68615  0.23453  0.24180  1.0000
  H   H1264     1.0  0.63937  0.13589  0.16565  1.0000
  H   H1265     1.0  0.71665  0.10174  0.36121  1.0000
  H   H1266     1.0  0.69574  0.24509  0.33381  1.0000
  H   H1267     1.0  0.71161  0.25914  0.28068  1.0000
  C   C1263     1.0  0.73360  0.24611  0.23312  1.0000
  C   C1264     1.0  0.54553  0.29810  0.46821  1.0000
  C   C1265     1.0  0.63667  0.02919  0.06393  1.0000
  H   H1268     1.0  0.63170  0.01291  0.15010  1.0000
  H   H1269     1.0  0.74139  0.15501  0.24958  1.0000
  C   C1266     1.0  0.72019  0.23108  0.21091  1.0000
  C   C1267     1.0  0.73947  0.15311  0.01000  1.0000
  H   H1270     1.0  0.72021  0.24433  0.19715  1.0000
  Fe  Fe213     1.0  0.59160  0.32036  0.39016  1.0000
  C   C1268     1.0  0.73381  0.24423  0.05456  1.0000
  H   H1271     1.0  0.65698  0.29927  0.26416  1.0000
  C   C1269     1.0  0.53815  0.28625  0.45843  1.0000
  H   H1272     1.0  0.72682  0.19886  0.01007  1.0000
  C   C1270     1.0  0.66287  0.00642  0.15612  1.0000
  H   H1273     1.0  0.58311  0.03001  0.11138  1.0000
  H   H1274     1.0  0.72803  0.29888  0.07863  1.0000
  H   H1275     1.0  0.54788  0.28055  0.44466  1.0000
  H   H1276     1.0  0.74188  0.24428  0.06654  1.0000
  C   C1271     1.0  0.64259  0.30792  0.25921  1.0000
  C   C1272     1.0  0.73303  0.11792  0.33226  1.0000
  H   H1277     1.0  0.56105  0.30159  0.46217  1.0000
  S   S426      1.0  0.70122  0.99386  0.16846  1.0000
  C   C1273     1.0  0.53264  0.30582  0.48555  1.0000
  H   H1278     1.0  0.50840  0.01736  0.00254  1.0000
  H   H1279     1.0  0.73617  0.04878  0.27567  1.0000
  H   H1280     1.0  0.67889  0.31935  0.38000  1.0000
  H   H1281     1.0  0.59581  0.00285  0.11188  1.0000
  H   H1282     1.0  0.72654  0.13137  0.23736  1.0000
  C   C1274     1.0  0.73166  0.25346  0.25136  1.0000
  H   H1283     1.0  0.70110  0.31244  0.40773  1.0000
  C   C1275     1.0  0.71470  0.31938  0.40061  1.0000
  N   N108      1.0  0.63015  0.32376  0.26881  1.0000
  S   S427      1.0  0.60078  0.99305  0.04026  1.0000
  C   C1276     1.0  0.57050  0.99593  0.01873  1.0000
  H   H1284     1.0  0.54700  0.99736  0.00159  1.0000
  H   H1285     1.0  0.60250  0.32302  0.45858  1.0000
  H   H1286     1.0  0.65323  0.32426  0.28524  1.0000
  S   S428      1.0  0.66928  0.09006  0.92614  1.0000
  C   C1277     1.0  0.51158  0.02341  0.84104  1.0000
  H   H1287     1.0  0.52001  0.05235  0.82259  1.0000
  S   S429      1.0  0.69881  0.04274  0.96416  1.0000
  H   H1288     1.0  0.50244  0.30810  0.50605  1.0000
  Fe  Fe214     1.0  0.69573  0.01346  0.95587  1.0000
  H   H1289     1.0  0.58638  0.10879  0.96223  1.0000
  H   H1290     1.0  0.69816  0.05503  0.84055  1.0000
  S   S430      1.0  0.72301  0.01496  0.87921  1.0000
  C   C1278     1.0  0.50480  0.10499  0.91637  1.0000
  Fe  Fe215     1.0  0.71738  0.02458  0.91047  1.0000
  S   S431      1.0  0.65751  0.00424  0.78828  1.0000
  H   H1291     1.0  0.49851  0.99684  0.85935  1.0000
  H   H1292     1.0  0.56802  0.11770  0.93269  1.0000
  C   C1279     1.0  0.49504  0.01324  0.85173  1.0000
  C   C1280     1.0  0.65736  0.01571  0.88191  1.0000
  Fe  Fe216     1.0  0.57045  0.06339  0.89454  1.0000
  S   S432      1.0  0.57322  0.09717  0.88767  1.0000
  S   S433      1.0  0.56752  0.04143  0.92591  1.0000
  Fe  Fe217     1.0  0.57111  0.06380  0.84954  1.0000
  S   S434      1.0  0.57497  0.09702  0.83814  1.0000
  S   S435      1.0  0.56696  0.04500  0.82861  1.0000
  Fe  Fe218     1.0  0.59749  0.08836  0.85981  1.0000
  S   S436      1.0  0.62769  0.09964  0.84940  1.0000
  Fe  Fe219     1.0  0.55041  0.10272  0.86659  1.0000
  S   S437      1.0  0.52339  0.12977  0.86202  1.0000
  S   S438      1.0  0.59636  0.05417  0.86822  1.0000
  S   S439      1.0  0.54499  0.06986  0.87657  1.0000
  H   H1293     1.0  0.66918  0.04271  0.82351  1.0000
  H   H1294     1.0  0.62139  0.14005  0.89141  1.0000
  H   H1295     1.0  0.63310  0.09635  0.96156  1.0000
  C   C1281     1.0  0.66569  0.03532  0.83999  1.0000
  C   C1282     1.0  0.60480  0.99363  0.95989  1.0000
  N   N109      1.0  0.67079  0.04278  0.85478  1.0000
  C   C1283     1.0  0.61339  0.13367  0.90702  1.0000
  C   C1284     1.0  0.54000  0.08635  0.76855  1.0000
  H   H1296     1.0  0.67155  0.03864  0.88705  1.0000
  H   H1297     1.0  0.51212  0.09277  0.81319  1.0000
  H   H1298     1.0  0.57514  0.08393  0.79778  1.0000
  C   C1285     1.0  0.59332  0.12994  0.91012  1.0000
  N   N110      1.0  0.62284  0.99807  0.98453  1.0000
  H   H1299     1.0  0.51385  0.14671  0.76793  1.0000
  H   H1300     1.0  0.63678  0.12257  0.95882  1.0000
  C   C1286     1.0  0.65630  0.01782  0.84583  1.0000
  H   H1301     1.0  0.63927  0.13073  0.92138  1.0000
  H   H1302     1.0  0.51020  0.11935  0.90658  1.0000
  N   N111      1.0  0.53845  0.12041  0.77488  1.0000
  Fe  Fe220     1.0  0.53353  0.31191  0.55829  1.0000
  H   H1303     1.0  0.61458  0.02192  0.95874  1.0000
  C   C1287     1.0  0.62489  0.11302  0.96095  1.0000
  H   H1304     1.0  0.71486  0.00235  0.84469  1.0000
  Fe  Fe221     1.0  0.69056  0.05882  0.93289  1.0000
  C   C1288     1.0  0.55572  0.07766  0.78012  1.0000
  S   S440      1.0  0.60968  0.32024  0.54384  1.0000
  H   H1305     1.0  0.50612  0.24539  0.57390  1.0000
  S   S441      1.0  0.55797  0.31402  0.52853  1.0000
  H   H1306     1.0  0.65582  0.12178  0.85577  1.0000
  C   C1289     1.0  0.58345  0.12113  0.93015  1.0000
  H   H1307     1.0  0.52705  0.14842  0.78707  1.0000
  H   H1308     1.0  0.52768  0.01493  0.83999  1.0000
  H   H1309     1.0  0.50219  0.09553  0.88123  1.0000
  C   C1290     1.0  0.55404  0.11205  0.78604  1.0000
  H   H1310     1.0  0.50216  0.10582  0.93317  1.0000
  S   S442      1.0  0.51936  0.28305  0.57194  1.0000
  C   C1291     1.0  0.52949  0.14298  0.77215  1.0000
  H   H1311     1.0  0.51925  0.11453  0.75706  1.0000
  H   H1312     1.0  0.65279  0.01163  0.83396  1.0000
  C   C1292     1.0  0.59387  0.11621  0.94684  1.0000
  H   H1313     1.0  0.68168  0.06710  0.86166  1.0000
  H   H1314     1.0  0.51739  0.09101  0.91388  1.0000
  H   H1315     1.0  0.53416  0.07642  0.76188  1.0000
  H   H1316     1.0  0.53419  0.02721  0.91276  1.0000
  C   C1293     1.0  0.53917  0.01401  0.90479  1.0000
  C   C1294     1.0  0.51137  0.12748  0.84255  1.0000
  C   C1295     1.0  0.51704  0.10902  0.83468  1.0000
  C   C1296     1.0  0.50744  0.10702  0.81931  1.0000
  H   H1317     1.0  0.55943  0.12192  0.79321  1.0000
  C   C1297     1.0  0.55705  0.01285  0.88871  1.0000
  H   H1318     1.0  0.53806  0.31533  0.49307  1.0000
  H   H1319     1.0  0.52890  0.09624  0.84032  1.0000
  H   H1320     1.0  0.51383  0.99880  0.92289  1.0000
  H   H1321     1.0  0.58559  0.13361  0.89693  1.0000
  C   C1298     1.0  0.52783  0.99803  0.91058  1.0000
  C   C1299     1.0  0.57769  0.04929  0.94354  1.0000
  C   C1300     1.0  0.57020  0.04357  0.96518  1.0000
  C   C1301     1.0  0.57818  0.04990  0.97939  1.0000
  C   C1302     1.0  0.59430  0.06113  0.97203  1.0000
  C   C1303     1.0  0.60237  0.06610  0.95046  1.0000
  C   C1304     1.0  0.59371  0.06066  0.93618  1.0000
  H   H1322     1.0  0.55799  0.03452  0.97096  1.0000
  H   H1323     1.0  0.56227  0.06091  0.78251  1.0000
  H   H1324     1.0  0.61508  0.07446  0.94478  1.0000
  H   H1325     1.0  0.59972  0.06487  0.91951  1.0000
  C   C1305     1.0  0.61416  0.00599  0.96714  1.0000
  H   H1326     1.0  0.54003  0.15190  0.75960  1.0000
  C   C1306     1.0  0.65209  0.00799  0.86695  1.0000
  C   C1307     1.0  0.51836  0.07763  0.98017  1.0000
  H   H1327     1.0  0.65488  0.00778  0.89826  1.0000
  C   C1308     1.0  0.49602  0.14397  0.83487  1.0000
  H   H1328     1.0  0.67366  0.07333  0.83703  1.0000
  C   C1309     1.0  0.53166  0.10793  0.76587  1.0000
  C   C1310     1.0  0.50725  0.04447  0.83111  1.0000
  C   C1311     1.0  0.51712  0.06820  0.96418  1.0000
  C   C1312     1.0  0.49953  0.27873  0.56173  1.0000
  N   N112      1.0  0.61359  0.11986  0.94365  1.0000
  S   S443      1.0  0.68384  0.03038  0.92670  1.0000
  H   H1329     1.0  0.67223  0.11804  0.88599  1.0000
  C   C1313     1.0  0.68163  0.06042  0.84813  1.0000
  C   C1314     1.0  0.62338  0.12845  0.92405  1.0000
  C   C1315     1.0  0.56292  0.09059  0.78877  1.0000
  H   H1330     1.0  0.53121  0.06276  0.95347  1.0000
  C   C1316     1.0  0.59175  0.03619  0.81421  1.0000
  C   C1317     1.0  0.59494  0.01899  0.80500  1.0000
  C   C1318     1.0  0.61518  0.00970  0.79609  1.0000
  C   C1319     1.0  0.63215  0.01831  0.79550  1.0000
  C   C1320     1.0  0.62880  0.03658  0.80330  1.0000
  C   C1321     1.0  0.60860  0.04531  0.81307  1.0000
  H   H1331     1.0  0.58181  0.01237  0.80559  1.0000
  S   S444      1.0  0.72351  0.05469  0.91444  1.0000
  H   H1332     1.0  0.64191  0.04333  0.80272  1.0000
  H   H1333     1.0  0.60619  0.05885  0.81994  1.0000
  C   C1322     1.0  0.66687  0.03314  0.87548  1.0000
  H   H1334     1.0  0.61403  0.11426  0.97630  1.0000
  H   H1335     1.0  0.59780  0.00014  0.94617  1.0000
  C   C1323     1.0  0.65909  0.09140  0.90422  1.0000
  C   C1324     1.0  0.64660  0.07744  0.90478  1.0000
  C   C1325     1.0  0.63672  0.08003  0.88801  1.0000
  C   C1326     1.0  0.63993  0.09611  0.87041  1.0000
  C   C1327     1.0  0.65316  0.10945  0.86947  1.0000
  C   C1328     1.0  0.66246  0.10732  0.88651  1.0000
  H   H1336     1.0  0.64417  0.06497  0.91835  1.0000
  H   H1337     1.0  0.62680  0.06947  0.88855  1.0000
  H   H1338     1.0  0.56579  0.02528  0.88437  1.0000
  C   C1329     1.0  0.49586  0.25832  0.56589  1.0000
  H   H1339     1.0  0.50197  0.22749  0.63854  1.0000
  C   C1330     1.0  0.49781  0.06597  0.96171  1.0000
  S   S445      1.0  0.55272  0.32076  0.57635  1.0000
  H   H1340     1.0  0.53340  0.07915  0.98185  1.0000
  Fe  Fe222     1.0  0.73165  0.03672  0.94545  1.0000
  C   C1331     1.0  0.51246  0.30170  0.49281  1.0000
  S   S446      1.0  0.52274  0.99833  0.79896  1.0000
  N   N113      1.0  0.56341  0.99624  0.87871  1.0000
  H   H1341     1.0  0.57651  0.99689  0.84644  1.0000
  H   H1342     1.0  0.59001  0.00834  0.85901  1.0000
  S   S447      1.0  0.49741  0.05488  0.94057  1.0000
  S   S448      1.0  0.72921  0.00589  0.93940  1.0000
  H   H1343     1.0  0.50048  0.26313  0.61568  1.0000
  H   H1344     1.0  0.64117  0.02110  0.97943  1.0000
  H   H1345     1.0  0.66224  0.99825  0.94280  1.0000
  H   H1346     1.0  0.59434  0.32245  0.58894  1.0000
  H   H1347     1.0  0.61775  0.99571  0.78987  1.0000
  C   C1332     1.0  0.58163  0.99541  0.86131  1.0000
  H   H1348     1.0  0.64550  0.99397  0.87163  1.0000
  C   C1333     1.0  0.71063  0.99498  0.87845  1.0000
  C   C1334     1.0  0.70862  0.99230  0.85903  1.0000
  H   H1349     1.0  0.56750  0.99273  0.78858  1.0000
  H   H1350     1.0  0.74261  0.08319  0.94662  1.0000
  C   C1335     1.0  0.63692  0.35356  0.36341  1.0000
  H   H1351     1.0  0.69336  0.32678  0.34168  1.0000
  C   C1336     1.0  0.60740  0.54455  0.46562  1.0000
  H   H1352     1.0  0.53139  0.54900  0.32451  1.0000
  S   S449      1.0  0.65843  0.35389  0.23275  1.0000
  C   C1337     1.0  0.53130  0.53207  0.33100  1.0000
  H   H1353     1.0  0.71130  0.37985  0.19928  1.0000
  C   C1338     1.0  0.51076  0.36176  0.36172  1.0000
  C   C1339     1.0  0.59831  0.64754  0.43821  1.0000
  C   C1340     1.0  0.66997  0.56731  0.32001  1.0000
  C   C1341     1.0  0.54951  0.35794  0.44790  1.0000
  Fe  Fe223     1.0  0.67918  0.33113  0.21260  1.0000
  C   C1342     1.0  0.68092  0.56904  0.33431  1.0000
  Fe  Fe224     1.0  0.67560  0.40979  0.31407  1.0000
  S   S450      1.0  0.66330  0.40049  0.34879  1.0000
  S   S451      1.0  0.69440  0.38404  0.29638  1.0000
  Fe  Fe225     1.0  0.65580  0.45583  0.31371  1.0000
  S   S452      1.0  0.64153  0.44991  0.34814  1.0000
  S   S453      1.0  0.65041  0.48867  0.29441  1.0000
  Fe  Fe226     1.0  0.67261  0.42942  0.35169  1.0000
  S   S454      1.0  0.68399  0.43163  0.37985  1.0000
  Fe  Fe227     1.0  0.63347  0.42205  0.34197  1.0000
  S   S455      1.0  0.60265  0.41163  0.35374  1.0000
  S   S456      1.0  0.68774  0.43692  0.31752  1.0000
  S   S457      1.0  0.64509  0.42964  0.30717  1.0000
  H   H1354     1.0  0.65266  0.54845  0.31252  1.0000
  S   S458      1.0  0.50069  0.40276  0.30049  1.0000
  H   H1355     1.0  0.63668  0.38666  0.32290  1.0000
  H   H1356     1.0  0.51094  0.62734  0.39218  1.0000
  S   S459      1.0  0.53319  0.48311  0.31577  1.0000
  H   H1357     1.0  0.56943  0.56238  0.45683  1.0000
  S   S460      1.0  0.59244  0.58325  0.36199  1.0000
  Fe  Fe228     1.0  0.57397  0.57502  0.34317  1.0000
  S   S461      1.0  0.57350  0.54120  0.34705  1.0000
  S   S462      1.0  0.67555  0.54434  0.41398  1.0000
  H   H1358     1.0  0.52007  0.34810  0.35554  1.0000
  H   H1359     1.0  0.57026  0.65664  0.40038  1.0000
  C   C1343     1.0  0.50532  0.58324  0.45123  1.0000
  C   C1344     1.0  0.62743  0.36759  0.42218  1.0000
  H   H1360     1.0  0.65346  0.47366  0.46496  1.0000
  S   S463      1.0  0.61019  0.59511  0.46609  1.0000
  Fe  Fe229     1.0  0.50694  0.47291  0.30857  1.0000
  S   S464      1.0  0.67563  0.60538  0.39930  1.0000
  S   S465      1.0  0.59112  0.35654  0.31559  1.0000
  C   C1345     1.0  0.72296  0.38939  0.24189  1.0000
  C   C1346     1.0  0.65421  0.51561  0.34435  1.0000
  H   H1361     1.0  0.61943  0.59210  0.42236  1.0000
  H   H1362     1.0  0.60793  0.36647  0.47507  1.0000
  H   H1363     1.0  0.53479  0.36787  0.44489  1.0000
  H   H1364     1.0  0.63613  0.63752  0.39591  1.0000
  C   C1347     1.0  0.64489  0.61098  0.34451  1.0000
  C   C1348     1.0  0.64171  0.59521  0.36246  1.0000
  C   C1349     1.0  0.65155  0.59304  0.37915  1.0000
  C   C1350     1.0  0.66442  0.60680  0.37803  1.0000
  C   C1351     1.0  0.66751  0.62263  0.36015  1.0000
  C   C1352     1.0  0.65805  0.62449  0.34328  1.0000
  H   H1365     1.0  0.63232  0.58418  0.36324  1.0000
  H   H1366     1.0  0.64885  0.58099  0.39304  1.0000
  H   H1367     1.0  0.67738  0.63338  0.35927  1.0000
  S   S466      1.0  0.54441  0.59704  0.35396  1.0000
  C   C1353     1.0  0.68256  0.55340  0.35228  1.0000
  H   H1368     1.0  0.69557  0.50011  0.48404  1.0000
  C   C1354     1.0  0.52615  0.39028  0.30385  1.0000
  C   C1355     1.0  0.54126  0.40187  0.30217  1.0000
  C   C1356     1.0  0.56142  0.39143  0.30532  1.0000
  C   C1357     1.0  0.56632  0.36948  0.31057  1.0000
  C   C1358     1.0  0.55117  0.35794  0.31241  1.0000
  C   C1359     1.0  0.53122  0.36831  0.30874  1.0000
  C   C1360     1.0  0.56444  0.35007  0.43145  1.0000
  C   C1361     1.0  0.58009  0.55484  0.44458  1.0000
  H   H1369     1.0  0.55484  0.34098  0.31647  1.0000
  H   H1370     1.0  0.51955  0.35932  0.31007  1.0000
  C   C1362     1.0  0.69090  0.45548  0.37942  1.0000
  C   C1363     1.0  0.69037  0.46104  0.39838  1.0000
  C   C1364     1.0  0.69758  0.47900  0.39834  1.0000
  H   H1371     1.0  0.68469  0.45126  0.41319  1.0000
  H   H1372     1.0  0.69741  0.48291  0.41307  1.0000
  C   C1365     1.0  0.58230  0.43115  0.34457  1.0000
  C   C1366     1.0  0.56607  0.42575  0.33884  1.0000
  C   C1367     1.0  0.55064  0.44155  0.33020  1.0000
  C   C1368     1.0  0.55130  0.46273  0.32761  1.0000
  C   C1369     1.0  0.56705  0.46799  0.33410  1.0000
  C   C1370     1.0  0.58253  0.45227  0.34250  1.0000
  H   H1373     1.0  0.56572  0.40938  0.34062  1.0000
  H   H1374     1.0  0.53849  0.43733  0.32528  1.0000
  H   H1375     1.0  0.56728  0.48430  0.33247  1.0000
  H   H1376     1.0  0.59447  0.45642  0.34779  1.0000
  C   C1371     1.0  0.62847  0.50397  0.30764  1.0000
  C   C1372     1.0  0.61389  0.49408  0.32293  1.0000
  C   C1373     1.0  0.59733  0.50568  0.33515  1.0000
  C   C1374     1.0  0.59474  0.52744  0.33153  1.0000
  C   C1375     1.0  0.60886  0.53764  0.31563  1.0000
  C   C1376     1.0  0.62572  0.52586  0.30357  1.0000
  H   H1377     1.0  0.61528  0.47745  0.32509  1.0000
  H   H1378     1.0  0.58659  0.49777  0.34759  1.0000
  H   H1379     1.0  0.60686  0.55450  0.31264  1.0000
  H   H1380     1.0  0.63673  0.53363  0.29132  1.0000
  C   C1377     1.0  0.61483  0.40248  0.40370  1.0000
  S   S467      1.0  0.70018  0.34880  0.46689  1.0000
  C   C1378     1.0  0.65065  0.39129  0.40804  1.0000
  H   H1381     1.0  0.73728  0.45007  0.37425  1.0000
  S   S468      1.0  0.55113  0.61566  0.40132  1.0000
  C   C1379     1.0  0.63629  0.36452  0.48527  1.0000
  H   H1382     1.0  0.56552  0.60739  0.47016  1.0000
  H   H1383     1.0  0.62440  0.35231  0.43081  1.0000
  Fe  Fe230     1.0  0.68005  0.53292  0.44715  1.0000
  C   C1380     1.0  0.66848  0.36177  0.25069  1.0000
  C   C1381     1.0  0.68718  0.35069  0.25689  1.0000
  C   C1382     1.0  0.69458  0.35728  0.27144  1.0000
  C   C1383     1.0  0.68366  0.37529  0.27947  1.0000
  C   C1384     1.0  0.66476  0.38608  0.27357  1.0000
  C   C1385     1.0  0.65714  0.37925  0.25937  1.0000
  C   C1386     1.0  0.51715  0.53809  0.38712  1.0000
  H   H1384     1.0  0.70902  0.34854  0.27619  1.0000
  H   H1385     1.0  0.65615  0.39990  0.27962  1.0000
  H   H1386     1.0  0.64255  0.38778  0.25477  1.0000
  S   S469      1.0  0.63310  0.61372  0.32324  1.0000
  C   C1387     1.0  0.51116  0.51907  0.39731  1.0000
  H   H1387     1.0  0.55742  0.56372  0.42456  1.0000
  C   C1388     1.0  0.61379  0.53638  0.43090  1.0000
  H   H1388     1.0  0.53669  0.57557  0.48617  1.0000
  H   H1389     1.0  0.66788  0.57984  0.30642  1.0000
  Fe  Fe231     1.0  0.56415  0.60775  0.36969  1.0000
  C   C1389     1.0  0.51301  0.61108  0.30896  1.0000
  C   C1390     1.0  0.73579  0.36101  0.21531  1.0000
  H   H1390     1.0  0.62109  0.36112  0.36966  1.0000
  H   H1391     1.0  0.60237  0.41430  0.39758  1.0000
  H   H1392     1.0  0.59114  0.33821  0.24172  1.0000
  C   C1391     1.0  0.74260  0.44210  0.38868  1.0000
  H   H1393     1.0  0.52454  0.60052  0.31734  1.0000
  H   H1394     1.0  0.71288  0.49490  0.34561  1.0000
  H   H1395     1.0  0.59592  0.40511  0.47543  1.0000
  N   N114      1.0  0.73908  0.37264  0.24509  1.0000
  C   C1392     1.0  0.56799  0.60824  0.41903  1.0000
  H   H1396     1.0  0.54279  0.61552  0.44473  1.0000
  C   C1393     1.0  0.51438  0.63219  0.30134  1.0000
  H   H1397     1.0  0.57739  0.42866  0.27559  1.0000
  H   H1398     1.0  0.67621  0.36231  0.42836  1.0000
  C   C1394     1.0  0.49936  0.64579  0.29049  1.0000
  C   C1395     1.0  0.52339  0.54231  0.36524  1.0000
  Fe  Fe232     1.0  0.72151  0.54697  0.43838  1.0000
  N   N115      1.0  0.60020  0.54542  0.44656  1.0000
  H   H1399     1.0  0.64270  0.33675  0.39399  1.0000
  Fe  Fe233     1.0  0.58676  0.33178  0.34489  1.0000
  S   S470      1.0  0.71805  0.51198  0.37846  1.0000
  H   H1400     1.0  0.52821  0.55706  0.35747  1.0000
  H   H1401     1.0  0.53493  0.37986  0.34957  1.0000
  C   C1396     1.0  0.52412  0.58290  0.47795  1.0000
  H   H1402     1.0  0.62974  0.52894  0.43260  1.0000
  H   H1403     1.0  0.66069  0.63662  0.32939  1.0000
  S   S471      1.0  0.60331  0.32881  0.41477  1.0000
  H   H1404     1.0  0.72164  0.33354  0.09047  1.0000
  C   C1397     1.0  0.61826  0.64189  0.42627  1.0000
  Fe  Fe234     1.0  0.71238  0.40236  0.46607  1.0000
  H   H1405     1.0  0.69595  0.33705  0.25048  1.0000
  Fe  Fe235     1.0  0.70928  0.52941  0.40535  1.0000
  C   C1398     1.0  0.51188  0.50439  0.38559  1.0000
  C   C1399     1.0  0.70630  0.48567  0.36039  1.0000
  C   C1400     1.0  0.70615  0.49103  0.37932  1.0000
  S   S472      1.0  0.68825  0.56252  0.44955  1.0000
  H   H1406     1.0  0.72207  0.46728  0.48272  1.0000
  N   N116      1.0  0.58507  0.48255  0.27934  1.0000
  C   C1401     1.0  0.56936  0.48151  0.27039  1.0000
  C   C1402     1.0  0.59783  0.46457  0.28736  1.0000
  C   C1403     1.0  0.56659  0.46214  0.26866  1.0000
  C   C1404     1.0  0.59522  0.44489  0.28625  1.0000
  C   C1405     1.0  0.57960  0.44375  0.27665  1.0000
  C   C1406     1.0  0.58764  0.50290  0.28137  1.0000
  H   H1407     1.0  0.55863  0.49565  0.26487  1.0000
  H   H1408     1.0  0.60990  0.46541  0.29495  1.0000
  H   H1409     1.0  0.62298  0.42106  0.47971  1.0000
  H   H1410     1.0  0.60500  0.43063  0.29309  1.0000
  H   H1411     1.0  0.51690  0.54954  0.39609  1.0000
  H   H1412     1.0  0.58054  0.51602  0.26987  1.0000
  H   H1413     1.0  0.58010  0.50559  0.29745  1.0000
  H   H1414     1.0  0.60452  0.50338  0.27842  1.0000
  C   C1407     1.0  0.73809  0.34081  0.40214  1.0000
  C   C1408     1.0  0.55949  0.61018  0.43981  1.0000
  S   S473      1.0  0.70869  0.33820  0.19035  1.0000
  Fe  Fe236     1.0  0.69815  0.32553  0.16773  1.0000
  C   C1409     1.0  0.51842  0.50904  0.36375  1.0000
  H   H1415     1.0  0.49563  0.58733  0.31153  1.0000
  C   C1410     1.0  0.57245  0.33988  0.47203  1.0000
  H   H1416     1.0  0.55420  0.46138  0.26147  1.0000
  H   H1417     1.0  0.61505  0.37372  0.33511  1.0000
  H   H1418     1.0  0.56125  0.35408  0.41579  1.0000
  C   C1411     1.0  0.68316  0.45323  0.46893  1.0000
  C   C1412     1.0  0.62062  0.64232  0.40490  1.0000
  C   C1413     1.0  0.66479  0.34762  0.33442  1.0000
  H   H1419     1.0  0.59581  0.55427  0.47612  1.0000
  C   C1414     1.0  0.49666  0.60365  0.30566  1.0000
  Fe  Fe237     1.0  0.60059  0.60727  0.33311  1.0000
  H   H1420     1.0  0.68753  0.58282  0.33181  1.0000
  S   S474      1.0  0.64579  0.38271  0.46337  1.0000
  S   S475      1.0  0.57345  0.63264  0.34227  1.0000
  C   C1415     1.0  0.61169  0.33432  0.26293  1.0000
  H   H1421     1.0  0.69077  0.55475  0.36369  1.0000
  C   C1416     1.0  0.57244  0.60555  0.45428  1.0000
  C   C1417     1.0  0.74236  0.32693  0.13333  1.0000
  S   S476      1.0  0.50997  0.46119  0.27936  1.0000
  H   H1422     1.0  0.63772  0.42225  0.39227  1.0000
  H   H1423     1.0  0.51901  0.49750  0.35476  1.0000
  H   H1424     1.0  0.59581  0.37906  0.41715  1.0000
  S   S477      1.0  0.56595  0.34081  0.37434  1.0000
  C   C1418     1.0  0.61114  0.38272  0.41462  1.0000
  N   N117      1.0  0.66329  0.53411  0.34112  1.0000
  C   C1419     1.0  0.67338  0.53607  0.35558  1.0000
  H   H1425     1.0  0.67452  0.52418  0.36976  1.0000
  H   H1426     1.0  0.65918  0.50309  0.35754  1.0000
  C   C1420     1.0  0.52179  0.57422  0.46191  1.0000
  C   C1421     1.0  0.67743  0.33413  0.34789  1.0000
  H   H1427     1.0  0.53738  0.41882  0.29840  1.0000
  H   H1428     1.0  0.54752  0.52306  0.32705  1.0000
  C   C1422     1.0  0.55343  0.35269  0.46829  1.0000
  C   C1423     1.0  0.58687  0.54627  0.41041  1.0000
  Fe  Fe238     1.0  0.55609  0.61992  0.32551  1.0000
  Fe  Fe239     1.0  0.72388  0.36575  0.44387  1.0000
  C   C1424     1.0  0.71273  0.39224  0.22538  1.0000
  H   H1429     1.0  0.59630  0.59977  0.39669  1.0000
  H   H1430     1.0  0.63173  0.63629  0.43370  1.0000
  H   H1431     1.0  0.57304  0.40029  0.30436  1.0000
  C   C1425     1.0  0.73954  0.58726  0.46103  1.0000
  H   H1432     1.0  0.60644  0.63092  0.37230  1.0000
  H   H1433     1.0  0.53266  0.56031  0.45792  1.0000
  Fe  Fe240     1.0  0.67916  0.38066  0.46397  1.0000
  S   S478      1.0  0.53370  0.64241  0.30645  1.0000
  H   H1434     1.0  0.66604  0.39485  0.40541  1.0000
  C   C1426     1.0  0.69188  0.48693  0.48022  1.0000
  H   H1435     1.0  0.51791  0.33769  0.44966  1.0000
  C   C1427     1.0  0.70281  0.45179  0.47316  1.0000
  N   N118      1.0  0.52391  0.52788  0.35384  1.0000
  H   H1436     1.0  0.71740  0.40022  0.25259  1.0000
  S   S479      1.0  0.72278  0.42971  0.47035  1.0000
  H   H1437     1.0  0.67112  0.35060  0.31770  1.0000
  C   C1428     1.0  0.60734  0.53666  0.41258  1.0000
  C   C1429     1.0  0.60560  0.32953  0.24657  1.0000
  C   C1430     1.0  0.71925  0.37796  0.21200  1.0000
  H   H1438     1.0  0.52112  0.52726  0.32317  1.0000
  H   H1439     1.0  0.65827  0.34535  0.44086  1.0000
  H   H1440     1.0  0.61056  0.52809  0.47440  1.0000
  H   H1441     1.0  0.61815  0.52955  0.40015  1.0000
  N   N119      1.0  0.64474  0.35692  0.34221  1.0000
  H   H1442     1.0  0.58162  0.54668  0.39629  1.0000
  H   H1443     1.0  0.67995  0.44035  0.46416  1.0000
  S   S480      1.0  0.65725  0.51418  0.46955  1.0000
  Fe  Fe241     1.0  0.68728  0.57225  0.41516  1.0000
  C   C1431     1.0  0.66120  0.54963  0.32368  1.0000
  C   C1432     1.0  0.66812  0.47197  0.46957  1.0000
  H   H1444     1.0  0.69898  0.46404  0.34570  1.0000
  H   H1445     1.0  0.73588  0.41786  0.36764  1.0000
  C   C1433     1.0  0.60268  0.59694  0.42726  1.0000
  C   C1434     1.0  0.49974  0.62873  0.38259  1.0000
  S   S481      1.0  0.70202  0.39711  0.43895  1.0000
  H   H1446     1.0  0.65943  0.50866  0.33003  1.0000
  H   H1447     1.0  0.63685  0.52008  0.34769  1.0000
  C   C1435     1.0  0.51003  0.60083  0.48344  1.0000
  H   H1448     1.0  0.51339  0.41090  0.36355  1.0000
  C   C1436     1.0  0.63465  0.40690  0.40055  1.0000
  H   H1449     1.0  0.72355  0.40365  0.39205  1.0000
  N   N120      1.0  0.60357  0.64807  0.39568  1.0000
  S   S482      1.0  0.58435  0.59700  0.31323  1.0000
  C   C1437     1.0  0.59407  0.59926  0.44803  1.0000
  C   C1438     1.0  0.58960  0.60131  0.41274  1.0000
  C   C1439     1.0  0.69840  0.46819  0.36041  1.0000
  H   H1450     1.0  0.60170  0.34666  0.27080  1.0000
  H   H1451     1.0  0.57544  0.33550  0.48766  1.0000
  C   C1440     1.0  0.66404  0.35542  0.42562  1.0000
  H   H1452     1.0  0.67124  0.34567  0.41358  1.0000
  H   H1453     1.0  0.63386  0.36478  0.31355  1.0000
  C   C1441     1.0  0.67283  0.48905  0.47454  1.0000
  C   C1442     1.0  0.63200  0.37122  0.32773  1.0000
  H   H1454     1.0  0.74101  0.34964  0.20518  1.0000
  H   H1455     1.0  0.56534  0.65671  0.43810  1.0000
  H   H1456     1.0  0.69954  0.40515  0.22329  1.0000
  C   C1443     1.0  0.66940  0.33013  0.36944  1.0000
  C   C1444     1.0  0.72000  0.33258  0.41077  1.0000
  C   C1445     1.0  0.60630  0.64710  0.37357  1.0000
  C   C1446     1.0  0.70693  0.46841  0.47934  1.0000
  S   S483      1.0  0.70080  0.33723  0.13302  1.0000
  H   H1457     1.0  0.73618  0.61943  0.46347  1.0000
  H   H1458     1.0  0.62204  0.55077  0.46146  1.0000
  S   S484      1.0  0.71343  0.51631  0.43843  1.0000
  H   H1459     1.0  0.63181  0.34617  0.28528  1.0000
  S   S485      1.0  0.72103  0.55842  0.40392  1.0000
  N   N121      1.0  0.64690  0.37194  0.41872  1.0000
  C   C1447     1.0  0.57317  0.55556  0.42642  1.0000
  C   C1448     1.0  0.58364  0.33756  0.43524  1.0000
  S   S486      1.0  0.50409  0.57310  0.42978  1.0000
  H   H1460     1.0  0.51582  0.64748  0.35518  1.0000
  C   C1449     1.0  0.61686  0.35963  0.48730  1.0000
  C   C1450     1.0  0.73334  0.32982  0.09998  1.0000
  H   H1461     1.0  0.72738  0.59085  0.45210  1.0000
  C   C1451     1.0  0.64908  0.33994  0.37729  1.0000
  H   H1462     1.0  0.71057  0.33567  0.42567  1.0000
  S   S487      1.0  0.73605  0.37236  0.46913  1.0000
  H   H1463     1.0  0.50577  0.51579  0.41425  1.0000
  C   C1452     1.0  0.50239  0.64009  0.36194  1.0000
  C   C1453     1.0  0.73844  0.40861  0.38334  1.0000
  C   C1454     1.0  0.50686  0.39701  0.36645  1.0000
  H   H1464     1.0  0.50705  0.48964  0.39337  1.0000
  C   C1455     1.0  0.58769  0.33269  0.45551  1.0000
  C   C1456     1.0  0.72726  0.33133  0.12116  1.0000
  C   C1457     1.0  0.51912  0.37955  0.35845  1.0000
  H   H1465     1.0  0.73763  0.32826  0.14958  1.0000
  H   H1466     1.0  0.59619  0.64635  0.45500  1.0000
  C   C1458     1.0  0.63607  0.32893  0.28612  1.0000
  C   C1459     1.0  0.50932  0.33290  0.44078  1.0000
  H   H1467     1.0  0.62126  0.65146  0.36421  1.0000
  C   C1460     1.0  0.58100  0.65332  0.42872  1.0000
  C   C1461     1.0  0.58390  0.65327  0.40735  1.0000
  C   C1462     1.0  0.49318  0.60953  0.47311  1.0000
  H   H1468     1.0  0.53633  0.32513  0.41672  1.0000
  C   C1463     1.0  0.51970  0.32579  0.42217  1.0000
  H   H1469     1.0  0.59347  0.65802  0.36636  1.0000
  S   S488      1.0  0.53430  0.36182  0.48901  1.0000
  C   C1464     1.0  0.56888  0.39701  0.61886  1.0000
  S   S489      1.0  0.57733  0.64478  0.54753  1.0000
  C   C1465     1.0  0.59258  0.64329  0.56605  1.0000
  H   H1470     1.0  0.58852  0.34902  0.57445  1.0000
  N   N122      1.0  0.52654  0.46208  0.62342  1.0000
  S   S490      1.0  0.58295  0.40706  0.63166  1.0000
  Fe  Fe242     1.0  0.57226  0.57177  0.54020  1.0000
  H   H1471     1.0  0.66125  0.61497  0.67798  1.0000
  H   H1472     1.0  0.61222  0.46451  0.50401  1.0000
  H   H1473     1.0  0.57809  0.39454  0.49795  1.0000
  H   H1474     1.0  0.53261  0.48648  0.56687  1.0000
  H   H1475     1.0  0.64916  0.33381  0.53080  1.0000
  S   S491      1.0  0.56609  0.57585  0.50825  1.0000
  H   H1476     1.0  0.59106  0.35616  0.62210  1.0000
  Fe  Fe243     1.0  0.72876  0.53156  0.71500  1.0000
  S   S492      1.0  0.72022  0.56453  0.69759  1.0000
  H   H1477     1.0  0.73387  0.56954  0.78931  1.0000
  Fe  Fe244     1.0  0.71258  0.51340  0.68532  1.0000
  S   S493      1.0  0.70330  0.54524  0.66574  1.0000
  S   S494      1.0  0.70773  0.48353  0.67860  1.0000
  H   H1478     1.0  0.65654  0.35645  0.60841  1.0000
  Fe  Fe245     1.0  0.69086  0.55556  0.69659  1.0000
  S   S495      1.0  0.65847  0.57460  0.70396  1.0000
  Fe  Fe246     1.0  0.54277  0.60455  0.51522  1.0000
  S   S496      1.0  0.69804  0.52340  0.71623  1.0000
  Fe  Fe247     1.0  0.63937  0.45140  0.61437  1.0000
  S   S497      1.0  0.66132  0.44277  0.58516  1.0000
  S   S498      1.0  0.64286  0.47896  0.62647  1.0000
  Fe  Fe248     1.0  0.61150  0.42089  0.61522  1.0000
  S   S499      1.0  0.63157  0.40987  0.58663  1.0000
  H   H1479     1.0  0.56638  0.49817  0.55878  1.0000
  Fe  Fe249     1.0  0.65832  0.40967  0.60064  1.0000
  S   S500      1.0  0.68611  0.38301  0.60049  1.0000
  Fe  Fe250     1.0  0.63246  0.44380  0.57404  1.0000
  S   S501      1.0  0.62916  0.45694  0.54080  1.0000
  S   S502      1.0  0.63831  0.41792  0.63086  1.0000
  S   S503      1.0  0.61033  0.45521  0.60167  1.0000
  C   C1466     1.0  0.60499  0.45432  0.53762  1.0000
  C   C1467     1.0  0.60097  0.45855  0.51740  1.0000
  C   C1468     1.0  0.58301  0.45387  0.51435  1.0000
  C   C1469     1.0  0.56875  0.44545  0.53154  1.0000
  C   C1470     1.0  0.57208  0.44249  0.55189  1.0000
  C   C1471     1.0  0.59033  0.44670  0.55492  1.0000
  C   C1472     1.0  0.50184  0.53912  0.52253  1.0000
  H   H1480     1.0  0.66521  0.63967  0.55571  1.0000
  H   H1481     1.0  0.56112  0.43593  0.56518  1.0000
  H   H1482     1.0  0.59327  0.44347  0.57059  1.0000
  C   C1473     1.0  0.69183  0.48284  0.66146  1.0000
  C   C1474     1.0  0.67929  0.50104  0.65221  1.0000
  C   C1475     1.0  0.66502  0.49960  0.64079  1.0000
  C   C1476     1.0  0.66311  0.48000  0.63843  1.0000
  C   C1477     1.0  0.67624  0.46186  0.64694  1.0000
  C   C1478     1.0  0.69052  0.46330  0.65838  1.0000
  H   H1483     1.0  0.68012  0.51618  0.65438  1.0000
  H   H1484     1.0  0.65499  0.51374  0.63420  1.0000
  H   H1485     1.0  0.67499  0.44667  0.64524  1.0000
  H   H1486     1.0  0.70022  0.44913  0.66538  1.0000
  Fe  Fe251     1.0  0.54109  0.34750  0.52135  1.0000
  H   H1487     1.0  0.58651  0.40486  0.58741  1.0000
  C   C1479     1.0  0.68853  0.36740  0.54527  1.0000
  C   C1480     1.0  0.68230  0.37753  0.56242  1.0000
  C   C1481     1.0  0.69237  0.36993  0.57947  1.0000
  C   C1482     1.0  0.70818  0.35188  0.57959  1.0000
  S   S504      1.0  0.51535  0.34472  0.55019  1.0000
  H   H1488     1.0  0.67007  0.39143  0.56221  1.0000
  H   H1489     1.0  0.73825  0.59824  0.86899  1.0000
  C   C1483     1.0  0.64706  0.61272  0.75455  1.0000
  C   C1484     1.0  0.63141  0.60360  0.75256  1.0000
  C   C1485     1.0  0.63506  0.59218  0.73680  1.0000
  C   C1486     1.0  0.65464  0.58913  0.72342  1.0000
  C   C1487     1.0  0.67046  0.59816  0.72541  1.0000
  C   C1488     1.0  0.66656  0.61028  0.74081  1.0000
  H   H1490     1.0  0.61634  0.60542  0.76319  1.0000
  H   H1491     1.0  0.62278  0.58531  0.73529  1.0000
  H   H1492     1.0  0.68557  0.59606  0.71498  1.0000
  H   H1493     1.0  0.67869  0.61740  0.74226  1.0000
  Fe  Fe252     1.0  0.57287  0.61759  0.53554  1.0000
  C   C1489     1.0  0.53929  0.38117  0.62203  1.0000
  H   H1494     1.0  0.54815  0.38744  0.64802  1.0000
  C   C1490     1.0  0.53328  0.54341  0.56920  1.0000
  N   N123      1.0  0.70136  0.60443  0.62751  1.0000
  H   H1495     1.0  0.66300  0.35854  0.49956  1.0000
  C   C1491     1.0  0.64793  0.35509  0.50096  1.0000
  C   C1492     1.0  0.52505  0.44149  0.63075  1.0000
  C   C1493     1.0  0.71661  0.63638  0.83210  1.0000
  C   C1494     1.0  0.65571  0.46412  0.70404  1.0000
  H   H1496     1.0  0.69306  0.57033  0.76068  1.0000
  H   H1497     1.0  0.64660  0.45803  0.71967  1.0000
  C   C1495     1.0  0.55210  0.52960  0.56365  1.0000
  H   H1498     1.0  0.69938  0.60886  0.67698  1.0000
  C   C1496     1.0  0.64324  0.35299  0.60463  1.0000
  H   H1499     1.0  0.60672  0.39099  0.55560  1.0000
  S   S505      1.0  0.59842  0.58969  0.52905  1.0000
  S   S506      1.0  0.54862  0.43605  0.52703  1.0000
  C   C1497     1.0  0.69228  0.43034  0.52753  1.0000
  C   C1498     1.0  0.71869  0.62361  0.85171  1.0000
  H   H1500     1.0  0.72706  0.32819  0.56243  1.0000
  H   H1501     1.0  0.54667  0.48416  0.61570  1.0000
  C   C1499     1.0  0.55194  0.38821  0.63123  1.0000
  C   C1500     1.0  0.55186  0.50892  0.56315  1.0000
  S   S507      1.0  0.54698  0.59916  0.54860  1.0000
  C   C1501     1.0  0.53276  0.50229  0.56774  1.0000
  H   H1502     1.0  0.50601  0.56318  0.53622  1.0000
  H   H1503     1.0  0.72120  0.61761  0.60020  1.0000
  H   H1504     1.0  0.53336  0.55927  0.56990  1.0000
  S   S508      1.0  0.68708  0.38956  0.49042  1.0000
  C   C1502     1.0  0.50892  0.47733  0.62174  1.0000
  C   C1503     1.0  0.63091  0.64465  0.52476  1.0000
  C   C1504     1.0  0.58732  0.40713  0.49147  1.0000
  S   S509      1.0  0.56015  0.36025  0.53616  1.0000
  N   N124      1.0  0.70197  0.57744  0.78618  1.0000
  C   C1505     1.0  0.68203  0.58728  0.79362  1.0000
  C   C1506     1.0  0.71812  0.57770  0.79491  1.0000
  C   C1507     1.0  0.67795  0.59837  0.80974  1.0000
  C   C1508     1.0  0.72927  0.39835  0.56225  1.0000
  C   C1509     1.0  0.69436  0.59898  0.81855  1.0000
  C   C1510     1.0  0.70603  0.56575  0.76939  1.0000
  H   H1505     1.0  0.66913  0.58675  0.78702  1.0000
  H   H1506     1.0  0.51444  0.52734  0.52841  1.0000
  H   H1507     1.0  0.66217  0.60664  0.81514  1.0000
  H   H1508     1.0  0.70386  0.42490  0.56386  1.0000
  C   C1511     1.0  0.49696  0.55910  0.52717  1.0000
  H   H1509     1.0  0.57625  0.42251  0.49047  1.0000
  C   C1512     1.0  0.60416  0.62426  0.57507  1.0000
  H   H1510     1.0  0.73169  0.39744  0.57783  1.0000
  N   N125      1.0  0.70934  0.41426  0.53524  1.0000
  C   C1513     1.0  0.70815  0.60431  0.64505  1.0000
  H   H1511     1.0  0.70603  0.62523  0.86520  1.0000
  C   C1514     1.0  0.61701  0.62400  0.58877  1.0000
  H   H1512     1.0  0.64692  0.42083  0.50214  1.0000
  H   H1513     1.0  0.71025  0.59697  0.59692  1.0000
  H   H1514     1.0  0.61062  0.52728  0.51628  1.0000
  H   H1515     1.0  0.50457  0.41916  0.64106  1.0000
  H   H1516     1.0  0.61494  0.52256  0.67042  1.0000
  H   H1517     1.0  0.58040  0.45632  0.49861  1.0000
  H   H1518     1.0  0.72740  0.58865  0.81813  1.0000
  C   C1515     1.0  0.73669  0.64853  0.67171  1.0000
  H   H1519     1.0  0.67486  0.60857  0.61387  1.0000
  H   H1520     1.0  0.63180  0.63839  0.71436  1.0000
  S   S510      1.0  0.63549  0.64145  0.61033  1.0000
  C   C1516     1.0  0.59714  0.39796  0.52589  1.0000
  H   H1521     1.0  0.53902  0.42950  0.63191  1.0000
  C   C1517     1.0  0.61065  0.39719  0.53890  1.0000
  S   S511      1.0  0.51207  0.61186  0.50403  1.0000
  S   S512      1.0  0.56585  0.62593  0.50300  1.0000
  H   H1522     1.0  0.67785  0.43143  0.54001  1.0000
  H   H1523     1.0  0.58256  0.39266  0.53280  1.0000
  C   C1518     1.0  0.62038  0.33661  0.52102  1.0000
  Fe  Fe253     1.0  0.66163  0.64940  0.77245  1.0000
  H   H1524     1.0  0.64908  0.61421  0.64640  1.0000
  S   S513      1.0  0.69333  0.65462  0.82981  1.0000
  H   H1525     1.0  0.66306  0.50086  0.57776  1.0000
  C   C1519     1.0  0.71764  0.65546  0.66502  1.0000
  C   C1520     1.0  0.70506  0.34991  0.54497  1.0000
  C   C1521     1.0  0.54375  0.38204  0.60038  1.0000
  S   S514      1.0  0.71503  0.33832  0.52278  1.0000
  N   N126      1.0  0.62913  0.50697  0.53725  1.0000
  C   C1522     1.0  0.62080  0.50253  0.55829  1.0000
  C   C1523     1.0  0.64944  0.50936  0.53039  1.0000
  C   C1524     1.0  0.63282  0.50049  0.57308  1.0000
  C   C1525     1.0  0.66206  0.50706  0.54478  1.0000
  C   C1526     1.0  0.65362  0.50262  0.56629  1.0000
  S   S515      1.0  0.52607  0.37438  0.58979  1.0000
  Fe  Fe254     1.0  0.70983  0.35891  0.49179  1.0000
  H   H1526     1.0  0.72469  0.60225  0.64463  1.0000
  C   C1527     1.0  0.65384  0.64730  0.54586  1.0000
  H   H1527     1.0  0.67817  0.50889  0.53926  1.0000
  H   H1528     1.0  0.63914  0.40530  0.54023  1.0000
  H   H1529     1.0  0.65405  0.65026  0.70151  1.0000
  H   H1530     1.0  0.73141  0.64425  0.79953  1.0000
  C   C1528     1.0  0.71447  0.34188  0.56242  1.0000
  C   C1529     1.0  0.56115  0.39020  0.58788  1.0000
  C   C1530     1.0  0.61865  0.64273  0.59339  1.0000
  H   H1531     1.0  0.69693  0.44585  0.52236  1.0000
  H   H1532     1.0  0.70810  0.54862  0.77608  1.0000
  S   S516      1.0  0.57589  0.53812  0.55741  1.0000
  C   C1531     1.0  0.62334  0.35763  0.61703  1.0000
  N   N127      1.0  0.64849  0.48687  0.69804  1.0000
  C   C1532     1.0  0.65624  0.50013  0.70512  1.0000
  C   C1533     1.0  0.63353  0.49471  0.68605  1.0000
  C   C1534     1.0  0.64928  0.52188  0.69992  1.0000
  C   C1535     1.0  0.62634  0.51641  0.68044  1.0000
  C   C1536     1.0  0.63432  0.53004  0.68743  1.0000
  H   H1533     1.0  0.50960  0.34116  0.62707  1.0000
  H   H1534     1.0  0.66826  0.49393  0.71443  1.0000
  C   C1537     1.0  0.60640  0.35275  0.61219  1.0000
  H   H1535     1.0  0.65558  0.53237  0.70538  1.0000
  C   C1538     1.0  0.64629  0.63507  0.53658  1.0000
  H   H1536     1.0  0.62908  0.54692  0.68309  1.0000
  H   H1537     1.0  0.72047  0.56872  0.75771  1.0000
  H   H1538     1.0  0.63071  0.33240  0.56939  1.0000
  N   N128      1.0  0.60912  0.34391  0.59519  1.0000
  H   H1539     1.0  0.68047  0.37308  0.53240  1.0000
  Fe  Fe255     1.0  0.53673  0.35385  0.56577  1.0000
  H   H1540     1.0  0.62759  0.48424  0.68015  1.0000
  C   C1539     1.0  0.71335  0.41376  0.55433  1.0000
  C   C1540     1.0  0.64005  0.34106  0.51877  1.0000
  H   H1541     1.0  0.65595  0.51306  0.51369  1.0000
  C   C1541     1.0  0.57362  0.39786  0.59711  1.0000
  H   H1542     1.0  0.56430  0.39154  0.57105  1.0000
  H   H1543     1.0  0.52575  0.37524  0.63178  1.0000
  H   H1544     1.0  0.65409  0.45587  0.69232  1.0000
  H   H1545     1.0  0.55344  0.46494  0.59934  1.0000
  C   C1542     1.0  0.50560  0.43562  0.63618  1.0000
  H   H1546     1.0  0.73090  0.59038  0.61110  1.0000
  H   H1547     1.0  0.69141  0.60766  0.83097  1.0000
  H   H1548     1.0  0.51004  0.49365  0.61567  1.0000
  C   C1543     1.0  0.61603  0.51020  0.52189  1.0000
  C   C1544     1.0  0.71664  0.60227  0.60792  1.0000
  C   C1545     1.0  0.69386  0.60813  0.66344  1.0000
  H   H1549     1.0  0.61612  0.65105  0.74519  1.0000
  H   H1550     1.0  0.62582  0.60917  0.59572  1.0000
  Fe  Fe256     1.0  0.57513  0.32648  0.54565  1.0000
  H   H1551     1.0  0.60324  0.60977  0.57145  1.0000
  H   H1552     1.0  0.49980  0.54729  0.57904  1.0000
  C   C1546     1.0  0.51396  0.51615  0.57348  1.0000
  Fe  Fe257     1.0  0.51785  0.44358  0.54903  1.0000
  C   C1547     1.0  0.72130  0.40003  0.52335  1.0000
  S   S517      1.0  0.51291  0.44719  0.58230  1.0000
  H   H1553     1.0  0.59391  0.34214  0.50691  1.0000
  H   H1554     1.0  0.68823  0.42675  0.51397  1.0000
  Fe  Fe258     1.0  0.58933  0.59666  0.49773  1.0000
  S   S518      1.0  0.74026  0.52747  0.74495  1.0000
  C   C1548     1.0  0.73293  0.63426  0.81469  1.0000
  H   H1555     1.0  0.62100  0.36505  0.63029  1.0000
  C   C1549     1.0  0.73729  0.38437  0.53079  1.0000
  H   H1556     1.0  0.62495  0.50268  0.50844  1.0000
  C   C1550     1.0  0.62882  0.40520  0.53028  1.0000
  C   C1551     1.0  0.64592  0.34388  0.58738  1.0000
  H   H1557     1.0  0.67263  0.46027  0.70464  1.0000
  H   H1558     1.0  0.71588  0.34583  0.59282  1.0000
  C   C1552     1.0  0.62855  0.33951  0.58281  1.0000
  C   C1553     1.0  0.68040  0.60802  0.62783  1.0000
  C   C1554     1.0  0.66569  0.61145  0.64612  1.0000
  S   S519      1.0  0.69538  0.64158  0.77459  1.0000
  Fe  Fe259     1.0  0.73372  0.55080  0.66876  1.0000
  C   C1555     1.0  0.67251  0.61182  0.66389  1.0000
  C   C1556     1.0  0.51429  0.53659  0.57446  1.0000
  S   S520      1.0  0.64159  0.62669  0.77471  1.0000
  H   H1559     1.0  0.62596  0.49735  0.58971  1.0000
  C   C1557     1.0  0.71457  0.58846  0.81122  1.0000
  H   H1560     1.0  0.71823  0.40032  0.50825  1.0000
  C   C1558     1.0  0.73688  0.60836  0.85385  1.0000
  H   H1561     1.0  0.66136  0.34019  0.57764  1.0000
  C   C1559     1.0  0.60890  0.34585  0.50526  1.0000
  H   H1562     1.0  0.57656  0.34247  0.60174  1.0000
  H   H1563     1.0  0.65174  0.61817  0.53918  1.0000
  C   C1560     1.0  0.59123  0.33927  0.58992  1.0000
  H   H1564     1.0  0.55844  0.45748  0.62565  1.0000
  H   H1565     1.0  0.60475  0.50050  0.56376  1.0000
  C   C1561     1.0  0.63323  0.41390  0.50889  1.0000
  H   H1566     1.0  0.62416  0.63523  0.51832  1.0000
  H   H1567     1.0  0.60206  0.50299  0.52892  1.0000
  C   C1562     1.0  0.54728  0.46747  0.61570  1.0000
  S   S521      1.0  0.49827  0.47492  0.53831  1.0000
  S   S522      1.0  0.71580  0.65017  0.64137  1.0000
  C   C1563     1.0  0.73885  0.65356  0.68994  1.0000
  N   N129      1.0  0.60186  0.40601  0.50482  1.0000
  H   H1568     1.0  0.63087  0.65722  0.69021  1.0000
  C   C1564     1.0  0.61948  0.41421  0.49632  1.0000
  C   C1565     1.0  0.63666  0.65322  0.70508  1.0000
  H   H1569     1.0  0.74260  0.62831  0.74459  1.0000
  C   C1566     1.0  0.74121  0.38350  0.55042  1.0000
  H   H1570     1.0  0.49385  0.51884  0.50686  1.0000
  C   C1567     1.0  0.49320  0.34918  0.63224  1.0000
  H   H1571     1.0  0.52582  0.90333  0.11566  1.0000
  C   C1568     1.0  0.69178  0.87484  0.01743  1.0000
  C   C1569     1.0  0.50328  0.95386  0.14708  1.0000
  C   C1570     1.0  0.65247  0.85505  0.04774  1.0000
  H   H1572     1.0  0.59678  0.88442  0.04103  1.0000
  H   H1573     1.0  0.65246  0.83917  0.02360  1.0000
  C   C1571     1.0  0.68772  0.90423  0.04212  1.0000
  H   H1574     1.0  0.55753  0.92550  0.12194  1.0000
  H   H1575     1.0  0.61615  0.85743  0.01975  1.0000
  C   C1572     1.0  0.49384  0.93246  0.01697  1.0000
  H   H1576     1.0  0.50031  0.66216  0.28468  1.0000
  H   H1577     1.0  0.62300  0.96089  0.18034  1.0000
  H   H1578     1.0  0.66653  0.89639  0.00440  1.0000
  Fe  Fe260     1.0  0.55993  0.81527  0.04970  1.0000
  S   S523      1.0  0.55510  0.84808  0.03099  1.0000
  S   S524      1.0  0.59398  0.80051  0.04663  1.0000
  Fe  Fe261     1.0  0.51341  0.81621  0.06397  1.0000
  C   C1573     1.0  0.71863  0.94457  0.00727  1.0000
  H   H1579     1.0  0.65387  0.98128  0.22876  1.0000
  Fe  Fe262     1.0  0.53080  0.83870  0.02031  1.0000
  H   H1580     1.0  0.71611  0.85637  0.03375  1.0000
  Fe  Fe263     1.0  0.53033  0.85573  0.05844  1.0000
  S   S525      1.0  0.52815  0.88721  0.06588  1.0000
  S   S526      1.0  0.53725  0.80502  0.03707  1.0000
  S   S527      1.0  0.53688  0.82354  0.07847  1.0000
  C   C1574     1.0  0.66359  0.98317  0.21264  1.0000
  C   C1575     1.0  0.49360  0.89620  0.00465  1.0000
  H   H1581     1.0  0.65136  0.89154  0.07133  1.0000
  C   C1576     1.0  0.67666  0.89345  0.01540  1.0000
  H   H1582     1.0  0.68626  0.92683  0.17925  1.0000
  H   H1583     1.0  0.52609  0.88765  0.00628  1.0000
  S   S528      1.0  0.69479  0.85578  0.00268  1.0000
  H   H1584     1.0  0.69167  0.95090  0.19884  1.0000
  H   H1585     1.0  0.49908  0.82918  0.12829  1.0000
  C   C1577     1.0  0.62338  0.86107  0.03074  1.0000
  H   H1586     1.0  0.71296  0.88255  0.05505  1.0000
  Fe  Fe264     1.0  0.65455  0.93762  0.07161  1.0000
  S   S529      1.0  0.64229  0.92729  0.10612  1.0000
  S   S530      1.0  0.68676  0.92271  0.05682  1.0000
  Fe  Fe265     1.0  0.61510  0.96920  0.06532  1.0000
  S   S531      1.0  0.59933  0.96152  0.09916  1.0000
  H   H1587     1.0  0.51763  0.98033  0.14234  1.0000
  Fe  Fe266     1.0  0.63043  0.96178  0.10602  1.0000
  H   H1588     1.0  0.52757  0.92635  0.03349  1.0000
  Fe  Fe267     1.0  0.61271  0.92800  0.09596  1.0000
  S   S532      1.0  0.59694  0.90000  0.10807  1.0000
  S   S533      1.0  0.64501  0.97198  0.07211  1.0000
  S   S534      1.0  0.62607  0.93582  0.06154  1.0000
  C   C1578     1.0  0.62284  0.97775  0.99491  1.0000
  H   H1589     1.0  0.61399  0.89287  0.06537  1.0000
  C   C1579     1.0  0.54882  0.96948  0.05117  1.0000
  C   C1580     1.0  0.54148  0.97783  0.03251  1.0000
  H   H1590     1.0  0.51731  0.89322  0.14317  1.0000
  S   S535      1.0  0.50498  0.84932  0.04615  1.0000
  Fe  Fe268     1.0  0.49607  0.96697  0.06073  1.0000
  C   C1581     1.0  0.61256  0.87626  0.04258  1.0000
  N   N130      1.0  0.66037  0.96864  0.20130  1.0000
  H   H1591     1.0  0.65175  0.93194  0.16970  1.0000
  H   H1592     1.0  0.53709  0.93327  0.00555  1.0000
  H   H1593     1.0  0.72040  0.90527  0.00445  1.0000
  H   H1594     1.0  0.54312  0.90636  0.01978  1.0000
  H   H1595     1.0  0.68025  0.98060  0.21376  1.0000
  C   C1582     1.0  0.67091  0.97360  0.13449  1.0000
  H   H1596     1.0  0.54460  0.89292  0.13263  1.0000
  S   S536      1.0  0.62951  0.98052  0.13045  1.0000
  H   H1597     1.0  0.51129  0.78778  0.99831  1.0000
  H   H1598     1.0  0.67408  0.96071  0.12648  1.0000
  C   C1583     1.0  0.56713  0.97399  0.05353  1.0000
  C   C1584     1.0  0.57791  0.98732  0.03737  1.0000
  C   C1585     1.0  0.53091  0.92098  0.01840  1.0000
  H   H1599     1.0  0.57278  0.96731  0.06794  1.0000
  C   C1586     1.0  0.54869  0.89017  0.07601  1.0000
  C   C1587     1.0  0.55306  0.91020  0.07284  1.0000
  C   C1588     1.0  0.56842  0.91327  0.08190  1.0000
  C   C1589     1.0  0.57900  0.89640  0.09480  1.0000
  C   C1590     1.0  0.57485  0.87631  0.09774  1.0000
  C   C1591     1.0  0.55996  0.87314  0.08815  1.0000
  H   H1600     1.0  0.54439  0.92340  0.06348  1.0000
  H   H1601     1.0  0.57157  0.92879  0.07942  1.0000
  H   H1602     1.0  0.58308  0.86314  0.10760  1.0000
  H   H1603     1.0  0.55673  0.85762  0.09071  1.0000
  H   H1604     1.0  0.70166  0.96623  0.14181  1.0000
  H   H1605     1.0  0.64136  0.87055  0.09074  1.0000
  C   C1592     1.0  0.54227  0.93331  0.12914  1.0000
  H   H1606     1.0  0.55269  0.96195  0.12625  1.0000
  C   C1593     1.0  0.70271  0.88559  0.04412  1.0000
  S   S537      1.0  0.50438  0.95627  0.09264  1.0000
  H   H1607     1.0  0.72706  0.95750  0.00474  1.0000
  N   N131      1.0  0.51173  0.91740  0.01470  1.0000
  H   H1608     1.0  0.67852  0.94378  0.98964  1.0000
  C   C1594     1.0  0.63783  0.95808  0.18513  1.0000
  C   C1595     1.0  0.63238  0.82349  0.99360  1.0000
  C   C1596     1.0  0.65402  0.94185  0.17909  1.0000
  H   H1609     1.0  0.64301  0.76414  0.01069  1.0000
  C   C1597     1.0  0.67449  0.90810  0.02791  1.0000
  C   C1598     1.0  0.65095  0.87459  0.07473  1.0000
  C   C1599     1.0  0.53966  0.95392  0.13161  1.0000
  C   C1600     1.0  0.67632  0.95266  0.19556  1.0000
  H   H1610     1.0  0.66814  0.84669  0.04950  1.0000
  H   H1611     1.0  0.54625  0.80660  0.99521  1.0000
  C   C1601     1.0  0.68653  0.97675  0.14324  1.0000
  N   N132      1.0  0.52579  0.92323  0.13553  1.0000
  C   C1602     1.0  0.52857  0.90213  0.13159  1.0000
  C   C1603     1.0  0.55251  0.99088  0.01613  1.0000
  C   C1604     1.0  0.51186  0.89952  0.00840  1.0000
  C   C1605     1.0  0.64359  0.85060  0.03310  1.0000
  H   H1612     1.0  0.57739  0.80971  0.00938  1.0000
  C   C1606     1.0  0.50643  0.93327  0.14429  1.0000
  S   S538      1.0  0.51839  0.97237  0.02964  1.0000
  H   H1613     1.0  0.66728  0.86571  0.07460  1.0000
  C   C1607     1.0  0.67338  0.93902  0.18440  1.0000
  H   H1614     1.0  0.54069  0.95915  0.06369  1.0000
  C   C1608     1.0  0.64127  0.97137  0.19636  1.0000
  C   C1609     1.0  0.60480  0.80953  0.02026  1.0000
  C   C1610     1.0  0.59276  0.81342  0.00505  1.0000
  H   H1615     1.0  0.72383  0.93211  0.02039  1.0000
  C   C1611     1.0  0.52003  0.96420  0.14068  1.0000
  H   H1616     1.0  0.66300  0.92259  0.02619  1.0000
  C   C1612     1.0  0.62482  0.81413  0.01447  1.0000
  C   C1613     1.0  0.62222  0.88078  0.05656  1.0000
  N   N133      1.0  0.64179  0.87005  0.05920  1.0000
  H   H1617     1.0  0.63418  0.81091  0.02623  1.0000
  C   C1614     1.0  0.70452  0.87082  0.03204  1.0000
  H   H1618     1.0  0.50594  0.86320  0.10533  1.0000
  H   H1619     1.0  0.61125  0.76257  0.99939  1.0000
  H   H1620     1.0  0.62987  0.97142  0.00861  1.0000
  H   H1621     1.0  0.70160  0.95077  0.01221  1.0000
  H   H1622     1.0  0.49389  0.94679  0.02158  1.0000
  C   C1615     1.0  0.64171  0.76981  0.99436  1.0000
  C   C1616     1.0  0.65091  0.98633  0.13729  1.0000
  H   H1623     1.0  0.61419  0.94865  0.99605  1.0000
  H   H1624     1.0  0.62880  0.98433  0.20048  1.0000
  H   H1625     1.0  0.49376  0.88204  0.99961  1.0000
  C   C1617     1.0  0.72215  0.91590  0.98936  1.0000
  H   H1626     1.0  0.64773  0.82733  0.98915  1.0000
  H   H1627     1.0  0.49320  0.92555  0.14878  1.0000
  H   H1628     1.0  0.70404  0.98375  0.91194  1.0000
  H   H1629     1.0  0.67119  0.77993  0.98458  1.0000
  C   C1618     1.0  0.57368  0.95674  0.83361  1.0000
  H   H1630     1.0  0.58498  0.81067  0.78559  1.0000
  C   C1619     1.0  0.71669  0.77156  0.54676  1.0000
  N   N134      1.0  0.72241  0.93647  0.98804  1.0000
  N   N135      1.0  0.57909  0.91133  0.79377  1.0000
  S   S539      1.0  0.69010  0.69218  0.77452  1.0000
  S   S540      1.0  0.63063  0.72397  0.77487  1.0000
  Fe  Fe269     1.0  0.69702  0.67167  0.75080  1.0000
  S   S541      1.0  0.72514  0.67138  0.72449  1.0000
  S   S542      1.0  0.68244  0.66550  0.59845  1.0000
  H   H1631     1.0  0.66409  0.92278  0.97340  1.0000
  C   C1620     1.0  0.73309  0.82908  0.60497  1.0000
  Fe  Fe270     1.0  0.65018  0.70436  0.63403  1.0000
  S   S543      1.0  0.68366  0.70473  0.61867  1.0000
  S   S544      1.0  0.63353  0.72947  0.65296  1.0000
  Fe  Fe271     1.0  0.67455  0.70055  0.59045  1.0000
  S   S545      1.0  0.68263  0.71809  0.55736  1.0000
  H   H1632     1.0  0.58490  0.67676  0.56423  1.0000
  N   N136      1.0  0.63736  0.78602  0.95296  1.0000
  S   S546      1.0  0.64044  0.70280  0.60481  1.0000
  S   S547      1.0  0.65498  0.66931  0.64581  1.0000
  C   C1621     1.0  0.72175  0.66485  0.70202  1.0000
  S   S548      1.0  0.55690  0.82336  0.88537  1.0000
  N   N137      1.0  0.61743  0.78005  0.75269  1.0000
  Fe  Fe272     1.0  0.60664  0.79693  0.85059  1.0000
  S   S549      1.0  0.60806  0.81710  0.87203  1.0000
  S   S550      1.0  0.63735  0.78319  0.83137  1.0000
  Fe  Fe273     1.0  0.58452  0.80007  0.89509  1.0000
  S   S551      1.0  0.58609  0.78805  0.92901  1.0000
  Fe  Fe274     1.0  0.58030  0.83840  0.86016  1.0000
  S   S552      1.0  0.57473  0.87350  0.85315  1.0000
  S   S553      1.0  0.58513  0.77802  0.87477  1.0000
  S   S554      1.0  0.58091  0.81989  0.83648  1.0000
  Fe  Fe275     1.0  0.68176  0.78685  0.71090  1.0000
  S   S555      1.0  0.65789  0.81670  0.70628  1.0000
  S   S556      1.0  0.67819  0.75392  0.71287  1.0000
  Fe  Fe276     1.0  0.71575  0.80966  0.71003  1.0000
  S   S557      1.0  0.69528  0.84160  0.70426  1.0000
  H   H1633     1.0  0.73025  0.70152  0.54335  1.0000
  Fe  Fe277     1.0  0.67103  0.82692  0.72901  1.0000
  S   S558      1.0  0.65117  0.84264  0.75572  1.0000
  Fe  Fe278     1.0  0.68426  0.82865  0.68224  1.0000
  S   S559      1.0  0.68134  0.84287  0.64904  1.0000
  S   S560      1.0  0.69223  0.79553  0.73614  1.0000
  S   S561      1.0  0.70738  0.79813  0.68555  1.0000
  C   C1622     1.0  0.55256  0.98036  0.88453  1.0000
  S   S562      1.0  0.65234  0.91881  0.84434  1.0000
  C   C1623     1.0  0.60476  0.97287  0.97035  1.0000
  C   C1624     1.0  0.61386  0.96483  0.98796  1.0000
  H   H1634     1.0  0.64771  0.80244  0.92159  1.0000
  H   H1635     1.0  0.59524  0.97069  0.80761  1.0000
  Fe  Fe279     1.0  0.69435  0.86715  0.92617  1.0000
  H   H1636     1.0  0.65902  0.80616  0.65912  1.0000
  C   C1625     1.0  0.55263  0.95595  0.84213  1.0000
  S   S563      1.0  0.59286  0.94147  0.84778  1.0000
  H   H1637     1.0  0.54835  0.94566  0.85706  1.0000
  H   H1638     1.0  0.52082  0.96816  0.83860  1.0000
  C   C1626     1.0  0.66163  0.85890  0.76563  1.0000
  C   C1627     1.0  0.68254  0.86089  0.75863  1.0000
  C   C1628     1.0  0.69080  0.87282  0.76777  1.0000
  Fe  Fe280     1.0  0.65953  0.90066  0.94385  1.0000
  H   H1639     1.0  0.59242  0.91337  0.81841  1.0000
  C   C1629     1.0  0.64894  0.86937  0.78148  1.0000
  H   H1640     1.0  0.69248  0.85284  0.74651  1.0000
  H   H1641     1.0  0.58939  0.85992  0.92726  1.0000
  H   H1642     1.0  0.63280  0.86778  0.78707  1.0000
  C   C1630     1.0  0.70707  0.83999  0.63461  1.0000
  C   C1631     1.0  0.61830  0.66672  0.73711  1.0000
  H   H1643     1.0  0.60778  0.67625  0.58815  1.0000
  C   C1632     1.0  0.54612  0.83390  0.97031  1.0000
  H   H1644     1.0  0.49692  0.78282  0.98125  1.0000
  C   C1633     1.0  0.71206  0.83428  0.61501  1.0000
  H   H1645     1.0  0.72455  0.82584  0.77770  1.0000
  S   S564      1.0  0.64298  0.93440  0.93867  1.0000
  C   C1634     1.0  0.68963  0.75593  0.84877  1.0000
  H   H1646     1.0  0.69976  0.83319  0.60792  1.0000
  C   C1635     1.0  0.55187  0.88325  0.84295  1.0000
  C   C1636     1.0  0.54137  0.86950  0.83926  1.0000
  C   C1637     1.0  0.52448  0.87734  0.82903  1.0000
  C   C1638     1.0  0.51766  0.89899  0.82288  1.0000
  C   C1639     1.0  0.52765  0.91280  0.82727  1.0000
  C   C1640     1.0  0.54475  0.90490  0.83728  1.0000
  H   H1647     1.0  0.54636  0.85276  0.84400  1.0000
  H   H1648     1.0  0.51678  0.86656  0.82577  1.0000
  S   S565      1.0  0.68465  0.94851  0.81425  1.0000
  H   H1649     1.0  0.55294  0.91552  0.83997  1.0000
  C   C1641     1.0  0.57082  0.80593  0.94462  1.0000
  C   C1642     1.0  0.56418  0.79862  0.96611  1.0000
  H   H1650     1.0  0.60500  0.75686  0.74627  1.0000
  H   H1651     1.0  0.54716  0.88911  0.77849  1.0000
  C   C1643     1.0  0.55278  0.84127  0.94877  1.0000
  C   C1644     1.0  0.56513  0.82728  0.93591  1.0000
  H   H1652     1.0  0.67628  0.76932  0.85120  1.0000
  H   H1653     1.0  0.70159  0.76219  0.83558  1.0000
  H   H1654     1.0  0.54830  0.85775  0.94202  1.0000
  H   H1655     1.0  0.57041  0.83303  0.91934  1.0000
  Fe  Fe281     1.0  0.64878  0.66769  0.61474  1.0000
  H   H1656     1.0  0.72242  0.71037  0.51840  1.0000
  Fe  Fe282     1.0  0.65619  0.97136  0.80562  1.0000
  C   C1645     1.0  0.69457  0.73921  0.55478  1.0000
  C   C1646     1.0  0.69063  0.75702  0.53916  1.0000
  H   H1657     1.0  0.53564  0.78164  0.90185  1.0000
  C   C1647     1.0  0.72049  0.75388  0.56263  1.0000
  C   C1648     1.0  0.70910  0.73786  0.56694  1.0000
  H   H1658     1.0  0.67935  0.75818  0.52978  1.0000
  C   C1649     1.0  0.72579  0.92202  0.95178  1.0000
  H   H1659     1.0  0.71214  0.72411  0.57905  1.0000
  C   C1650     1.0  0.64786  0.73749  0.66708  1.0000
  C   C1651     1.0  0.64000  0.75657  0.67396  1.0000
  C   C1652     1.0  0.65007  0.76244  0.68687  1.0000
  C   C1653     1.0  0.66759  0.74884  0.69366  1.0000
  C   C1654     1.0  0.67559  0.72991  0.68654  1.0000
  C   C1655     1.0  0.66604  0.72447  0.67293  1.0000
  H   H1660     1.0  0.62585  0.76666  0.66959  1.0000
  H   H1661     1.0  0.64375  0.77703  0.69233  1.0000
  H   H1662     1.0  0.68910  0.71929  0.69177  1.0000
  H   H1663     1.0  0.67227  0.70978  0.66766  1.0000
  C   C1656     1.0  0.63273  0.73915  0.79171  1.0000
  C   C1657     1.0  0.61459  0.74918  0.80376  1.0000
  C   C1658     1.0  0.61592  0.76234  0.81639  1.0000
  C   C1659     1.0  0.63537  0.76597  0.81653  1.0000
  C   C1660     1.0  0.65352  0.75608  0.80435  1.0000
  C   C1661     1.0  0.65224  0.74245  0.79219  1.0000
  H   H1664     1.0  0.59946  0.74673  0.80338  1.0000
  H   H1665     1.0  0.60184  0.76997  0.82571  1.0000
  H   H1666     1.0  0.66858  0.75906  0.80418  1.0000
  H   H1667     1.0  0.66625  0.73512  0.78258  1.0000
  Fe  Fe283     1.0  0.55932  0.80305  0.86287  1.0000
  H   H1668     1.0  0.73038  0.70147  0.74621  1.0000
  C   C1662     1.0  0.50643  0.79017  0.92302  1.0000
  H   H1669     1.0  0.54582  0.95437  0.77393  1.0000
  C   C1663     1.0  0.61393  0.70320  0.73817  1.0000
  H   H1670     1.0  0.72327  0.90033  0.81347  1.0000
  H   H1671     1.0  0.72733  0.95386  0.93550  1.0000
  C   C1664     1.0  0.72458  0.94990  0.96894  1.0000
  N   N138      1.0  0.64647  0.66853  0.54319  1.0000
  H   H1672     1.0  0.72632  0.77350  0.62771  1.0000
  S   S566      1.0  0.72023  0.78471  0.85957  1.0000
  C   C1665     1.0  0.55398  0.90127  0.78051  1.0000
  H   H1673     1.0  0.50080  0.84999  0.88429  1.0000
  H   H1674     1.0  0.68929  0.68017  0.70478  1.0000
  H   H1675     1.0  0.63895  0.69329  0.69003  1.0000
  H   H1676     1.0  0.74100  0.83052  0.80452  1.0000
  H   H1677     1.0  0.64042  0.71706  0.85442  1.0000
  H   H1678     1.0  0.72677  0.91648  0.93767  1.0000
  H   H1679     1.0  0.60797  0.77659  0.96238  1.0000
  C   C1666     1.0  0.66301  0.98179  0.94933  1.0000
  C   C1667     1.0  0.54475  0.92237  0.77464  1.0000
  C   C1668     1.0  0.65458  0.94879  0.94928  1.0000
  C   C1669     1.0  0.54223  0.98178  0.81214  1.0000
  Fe  Fe284     1.0  0.65318  0.85667  0.95063  1.0000
  H   H1680     1.0  0.68926  0.83635  0.90469  1.0000
  C   C1670     1.0  0.61668  0.76693  0.73859  1.0000
  H   H1681     1.0  0.66508  0.69394  0.83145  1.0000
  C   C1671     1.0  0.70256  0.98187  0.89690  1.0000
  H   H1682     1.0  0.69706  0.81160  0.77111  1.0000
  C   C1672     1.0  0.57046  0.93204  0.78756  1.0000
  C   C1673     1.0  0.61860  0.80595  0.77854  1.0000
  S   S567      1.0  0.68937  0.89724  0.79541  1.0000
  H   H1683     1.0  0.73239  0.75250  0.57130  1.0000
  C   C1674     1.0  0.70137  0.77332  0.53542  1.0000
  C   C1675     1.0  0.65401  0.97012  0.94076  1.0000
  H   H1684     1.0  0.60093  0.88864  0.81057  1.0000
  H   H1685     1.0  0.65215  0.74556  0.86251  1.0000
  N   N139      1.0  0.68297  0.73877  0.84413  1.0000
  S   S568      1.0  0.63826  0.96980  0.83875  1.0000
  H   H1686     1.0  0.58422  0.78777  0.76223  1.0000
  C   C1676     1.0  0.60923  0.90217  0.92539  1.0000
  C   C1677     1.0  0.59933  0.88192  0.89912  1.0000
  C   C1678     1.0  0.60041  0.88437  0.93400  1.0000
  C   C1679     1.0  0.59559  0.87413  0.92075  1.0000
  H   H1687     1.0  0.61361  0.90963  0.93573  1.0000
  H   H1688     1.0  0.63243  0.78311  0.92394  1.0000
  H   H1689     1.0  0.59798  0.87806  0.95079  1.0000
  C   C1680     1.0  0.57122  0.89598  0.79018  1.0000
  N   N140      1.0  0.70925  0.82789  0.80929  1.0000
  C   C1681     1.0  0.69207  0.82495  0.82486  1.0000
  C   C1682     1.0  0.71112  0.82315  0.79019  1.0000
  C   C1683     1.0  0.67619  0.81701  0.82149  1.0000
  C   C1684     1.0  0.69565  0.81498  0.78638  1.0000
  C   C1685     1.0  0.67799  0.81212  0.80206  1.0000
  H   H1690     1.0  0.72334  0.89203  0.97259  1.0000
  H   H1691     1.0  0.69057  0.82872  0.84001  1.0000
  C   C1686     1.0  0.62018  0.82738  0.97847  1.0000
  H   H1692     1.0  0.66246  0.81483  0.83376  1.0000
  C   C1687     1.0  0.69266  0.96618  0.89590  1.0000
  C   C1688     1.0  0.69814  0.97700  0.85810  1.0000
  H   H1693     1.0  0.69442  0.88529  0.83950  1.0000
  C   C1689     1.0  0.69065  0.70944  0.82717  1.0000
  C   C1690     1.0  0.72386  0.90833  0.97132  1.0000
  C   C1691     1.0  0.50388  0.84392  0.94604  1.0000
  H   H1694     1.0  0.50767  0.88256  0.89016  1.0000
  N   N141      1.0  0.62828  0.67048  0.71648  1.0000
  H   H1695     1.0  0.60871  0.71585  0.74679  1.0000
  H   H1696     1.0  0.56831  0.78210  0.97288  1.0000
  C   C1692     1.0  0.65640  0.71923  0.84824  1.0000
  H   H1697     1.0  0.68681  0.95583  0.91017  1.0000
  C   C1693     1.0  0.72100  0.83866  0.88935  1.0000
  C   C1694     1.0  0.51033  0.82248  0.95377  1.0000
  H   H1698     1.0  0.57775  0.87954  0.79547  1.0000
  H   H1699     1.0  0.52415  0.78433  0.97224  1.0000
  H   H1700     1.0  0.62010  0.80788  0.93169  1.0000
  S   S569      1.0  0.65151  0.66764  0.79807  1.0000
  S   S570      1.0  0.72108  0.86043  0.89934  1.0000
  H   H1701     1.0  0.52167  0.81306  0.94346  1.0000
  S   S571      1.0  0.74155  0.77483  0.80448  1.0000
  H   H1702     1.0  0.74245  0.85606  0.68349  1.0000
  C   C1695     1.0  0.63107  0.69028  0.70640  1.0000
  H   H1703     1.0  0.66557  0.80644  0.79906  1.0000
  C   C1696     1.0  0.62393  0.70694  0.71708  1.0000
  N   N142      1.0  0.71557  0.90016  0.84632  1.0000
  H   H1704     1.0  0.69348  0.88245  0.86697  1.0000
  H   H1705     1.0  0.51015  0.85082  0.92998  1.0000
  H   H1706     1.0  0.62641  0.72255  0.70911  1.0000
  H   H1707     1.0  0.72950  0.93183  0.86996  1.0000
  C   C1697     1.0  0.73579  0.92338  0.82077  1.0000
  H   H1708     1.0  0.72742  0.75124  0.69194  1.0000
  C   C1698     1.0  0.72098  0.80508  0.87136  1.0000
  C   C1699     1.0  0.72479  0.90709  0.82593  1.0000
  H   H1709     1.0  0.61920  0.81585  0.78879  1.0000
  C   C1700     1.0  0.50908  0.79100  0.98188  1.0000
  C   C1701     1.0  0.66314  0.73534  0.85272  1.0000
  S   S572      1.0  0.73150  0.79119  0.53966  1.0000
  H   H1710     1.0  0.68224  0.75087  0.60719  1.0000
  N   N143      1.0  0.67367  0.78881  0.63499  1.0000
  C   C1702     1.0  0.66945  0.77560  0.62480  1.0000
  C   C1703     1.0  0.69381  0.78811  0.63606  1.0000
  C   C1704     1.0  0.68564  0.76111  0.61548  1.0000
  C   C1705     1.0  0.71037  0.77378  0.62699  1.0000
  C   C1706     1.0  0.73752  0.93238  0.83666  1.0000
  C   C1707     1.0  0.65681  0.80474  0.64373  1.0000
  H   H1711     1.0  0.65352  0.77616  0.62380  1.0000
  H   H1712     1.0  0.69717  0.79885  0.64377  1.0000
  Fe  Fe285     1.0  0.68550  0.66258  0.79795  1.0000
  S   S573      1.0  0.68209  0.98708  0.97875  1.0000
  H   H1713     1.0  0.72175  0.85466  0.80598  1.0000
  H   H1714     1.0  0.65699  0.82026  0.63288  1.0000
  H   H1715     1.0  0.64123  0.80079  0.64631  1.0000
  C   C1708     1.0  0.55177  0.81255  0.97886  1.0000
  C   C1709     1.0  0.72620  0.94295  0.95054  1.0000
  H   H1716     1.0  0.59115  0.82512  0.97244  1.0000
  C   C1710     1.0  0.65500  0.78687  0.95898  1.0000
  H   H1717     1.0  0.70709  0.87394  0.76258  1.0000
  C   C1711     1.0  0.53697  0.96847  0.83149  1.0000
  C   C1712     1.0  0.68999  0.96398  0.87659  1.0000
  S   S574      1.0  0.49429  0.96707  0.77837  1.0000
  H   H1718     1.0  0.69640  0.75034  0.86313  1.0000
  S   S575      1.0  0.66156  0.88023  0.92143  1.0000
  C   C1713     1.0  0.72300  0.84132  0.64374  1.0000
  H   H1719     1.0  0.61063  0.91115  0.79366  1.0000
  C   C1714     1.0  0.59670  0.90583  0.80453  1.0000
  C   C1715     1.0  0.51144  0.79927  0.88499  1.0000
  C   C1716     1.0  0.67810  0.88336  0.78354  1.0000
  C   C1717     1.0  0.65707  0.88173  0.79027  1.0000
  H   H1720     1.0  0.61263  0.77697  0.72374  1.0000
  H   H1721     1.0  0.61874  0.93659  0.88022  1.0000
  H   H1722     1.0  0.68920  0.80679  0.88874  1.0000
  H   H1723     1.0  0.59559  0.87411  0.88863  1.0000
  N   N144      1.0  0.61286  0.90974  0.90416  1.0000
  C   C1718     1.0  0.60819  0.89976  0.89104  1.0000
  H   H1724     1.0  0.61138  0.90545  0.87418  1.0000
  C   C1719     1.0  0.67196  0.97235  0.96694  1.0000
  C   C1720     1.0  0.62301  0.92784  0.89543  1.0000
  C   C1721     1.0  0.59392  0.66198  0.57100  1.0000
  C   C1722     1.0  0.61107  0.68298  0.74829  1.0000
  C   C1723     1.0  0.57903  0.97000  0.81429  1.0000
  C   C1724     1.0  0.62333  0.66626  0.52229  1.0000
  S   S576      1.0  0.62942  0.83838  0.95228  1.0000
  Fe  Fe286     1.0  0.62633  0.94408  0.83307  1.0000
  Fe  Fe287     1.0  0.68794  0.66977  0.62843  1.0000
  C   C1725     1.0  0.55306  0.93790  0.77811  1.0000
  H   H1725     1.0  0.69833  0.78701  0.52319  1.0000
  C   C1726     1.0  0.73881  0.83048  0.87556  1.0000
  C   C1727     1.0  0.63130  0.67805  0.53169  1.0000
  H   H1726     1.0  0.65201  0.79760  0.76909  1.0000
  H   H1727     1.0  0.67137  0.67686  0.55136  1.0000
  H   H1728     1.0  0.57685  0.94412  0.79022  1.0000
  H   H1729     1.0  0.64944  0.69794  0.54811  1.0000
  C   C1728     1.0  0.67204  0.95110  0.97578  1.0000
  H   H1730     1.0  0.61832  0.93903  0.90625  1.0000
  H   H1731     1.0  0.52298  0.92950  0.82204  1.0000
  S   S577      1.0  0.64182  0.94759  0.79892  1.0000
  H   H1732     1.0  0.53082  0.92660  0.76797  1.0000
  H   H1733     1.0  0.64723  0.88956  0.80261  1.0000
  S   S578      1.0  0.52801  0.79969  0.86010  1.0000
  H   H1734     1.0  0.73697  0.82416  0.59007  1.0000
  Fe  Fe288     1.0  0.65663  0.69560  0.77269  1.0000
  H   H1735     1.0  0.71540  0.86788  0.85144  1.0000
  C   C1729     1.0  0.69683  0.72580  0.83185  1.0000
  C   C1730     1.0  0.59915  0.79004  0.76353  1.0000
  S   S579      1.0  0.67653  0.94472  0.87623  1.0000
  Fe  Fe289     1.0  0.66891  0.92414  0.81054  1.0000
  H   H1736     1.0  0.55782  0.96706  0.87681  1.0000
  H   H1737     1.0  0.68571  0.67195  0.67201  1.0000
  C   C1731     1.0  0.73886  0.81363  0.86675  1.0000
  Fe  Fe290     1.0  0.66569  0.94525  0.84699  1.0000
  S   S580      1.0  0.69338  0.89006  0.94580  1.0000
  C   C1732     1.0  0.66380  0.93922  0.96667  1.0000
  H   H1738     1.0  0.64678  0.97754  0.92737  1.0000
  H   H1739     1.0  0.69633  0.97535  0.84310  1.0000
  H   H1740     1.0  0.62481  0.69472  0.53028  1.0000
  S   S581      1.0  0.66394  0.67780  0.74672  1.0000
  H   H1741     1.0  0.64029  0.92249  0.89304  1.0000
  C   C1733     1.0  0.70310  0.81332  0.88511  1.0000
  C   C1734     1.0  0.63441  0.79524  0.93142  1.0000
  C   C1735     1.0  0.67023  0.70632  0.83526  1.0000
  C   C1736     1.0  0.70413  0.88309  0.85127  1.0000
  H   H1742     1.0  0.71272  0.72817  0.82544  1.0000
  S   S582      1.0  0.64806  0.87817  0.97281  1.0000
  H   H1743     1.0  0.65076  0.77465  0.74611  1.0000
  C   C1737     1.0  0.63626  0.78281  0.75442  1.0000
  C   C1738     1.0  0.59945  0.80306  0.77669  1.0000
  C   C1739     1.0  0.63710  0.79572  0.76741  1.0000
  S   S583      1.0  0.68607  0.84177  0.95373  1.0000
  H   H1744     1.0  0.52600  0.96841  0.90495  1.0000
  H   H1745     1.0  0.63200  0.75610  0.73482  1.0000
  C   C1740     1.0  0.70312  0.83002  0.89416  1.0000
  C   C1741     1.0  0.53463  0.98100  0.90049  1.0000
  H   H1746     1.0  0.72758  0.85606  0.71896  1.0000
  C   C1742     1.0  0.49636  0.88357  0.88086  1.0000
  H   H1747     1.0  0.66692  0.79453  0.94793  1.0000
  H   H1748     1.0  0.72952  0.74489  0.51391  1.0000
  H   H1749     1.0  0.70161  0.69923  0.81733  1.0000
  H   H1750     1.0  0.51261  0.78225  0.93695  1.0000
  C   C1743     1.0  0.56331  0.98246  0.80356  1.0000
  C   C1744     1.0  0.72511  0.83750  0.81249  1.0000
  C   C1745     1.0  0.70046  0.66667  0.67709  1.0000
  H   H1751     1.0  0.73948  0.86913  0.73169  1.0000
  H   H1752     1.0  0.71032  0.90314  0.87824  1.0000
  Fe  Fe291     1.0  0.49438  0.98480  0.80255  1.0000
  H   H1753     1.0  0.71713  0.71819  0.71341  1.0000
  C   C1746     1.0  0.72752  0.72521  0.71823  1.0000
  H   H1754     1.0  0.61061  0.67361  0.51402  1.0000
  C   C1747     1.0  0.51945  0.78970  0.90314  1.0000
  H   H1755     1.0  0.71892  0.74904  0.60946  1.0000
  H   H1756     1.0  0.71922  0.84567  0.65888  1.0000
  C   C1748     1.0  0.71763  0.90855  0.86204  1.0000
  C   C1749     1.0  0.70621  0.76017  0.61667  1.0000
  C   C1750     1.0  0.72855  0.92481  0.85745  1.0000
  C   C1751     1.0  0.70246  0.67117  0.69573  1.0000
  H   H1757     1.0  0.64744  0.67716  0.57103  1.0000
  Fe  Fe292     1.0  0.68206  0.86578  0.97314  1.0000
  N   N145      1.0  0.50269  0.81361  0.97410  1.0000
  H   H1758     1.0  0.72443  0.96626  0.96796  1.0000
  C   C1752     1.0  0.62200  0.77703  0.96712  1.0000
  C   C1753     1.0  0.74227  0.85589  0.72360  1.0000
  C   C1754     1.0  0.65401  0.68073  0.55391  1.0000
  H   H1759     1.0  0.59284  0.98023  0.86413  1.0000
  H   H1760     1.0  0.60374  0.67980  0.76482  1.0000
  C   C1755     1.0  0.60698  0.66175  0.58447  1.0000
  C   C1756     1.0  0.73335  0.74377  0.70616  1.0000
  H   H1761     1.0  0.72541  0.83482  0.82940  1.0000
  C   C1757     1.0  0.73485  0.71588  0.73671  1.0000
  C   C1758     1.0  0.73604  0.70329  0.52610  1.0000
  C   C1759     1.0  0.62386  0.76892  0.98804  1.0000
  H   H1762     1.0  0.59809  0.96290  0.96460  1.0000
  H   H1763     1.0  0.74261  0.68736  0.52253  1.0000
  S   S584      1.0  0.52979  0.85118  0.98618  1.0000
  S   S585      1.0  0.49736  0.90832  0.80886  1.0000
  C   C1760     1.0  0.60052  0.82214  0.98416  1.0000
  C   C1761     1.0  0.65748  0.77869  0.97973  1.0000
  H   H1764     1.0  0.74260  0.92919  0.80451  1.0000
  Fe  Fe293     1.0  0.81239  0.09423  0.04272  1.0000
  S   S586      1.0  0.82061  0.06227  0.06238  1.0000
  H   H1765     1.0  0.86484  0.16541  0.10277  1.0000
  C   C1762     1.0  0.82034  0.21876  0.99603  1.0000
  C   C1763     1.0  0.75776  0.21124  0.29538  1.0000
  C   C1764     1.0  0.77785  0.12443  0.21998  1.0000
  S   S587      1.0  0.95506  0.06843  0.38416  1.0000
  C   C1765     1.0  0.77778  0.17387  0.06917  1.0000
  H   H1766     1.0  0.78027  0.11020  0.21416  1.0000
  S   S588      1.0  0.81746  0.12255  0.05078  1.0000
  H   H1767     1.0  0.84733  0.30204  0.03587  1.0000
  H   H1768     1.0  0.98058  0.13346  0.40694  1.0000
  S   S589      1.0  0.83206  0.10505  0.26545  1.0000
  C   C1766     1.0  0.78280  0.20658  0.07405  1.0000
  C   C1767     1.0  0.77204  0.19565  0.06662  1.0000
  Fe  Fe294     1.0  0.87768  0.06624  0.14406  1.0000
  H   H1769     1.0  0.88999  0.06892  0.37442  1.0000
  S   S590      1.0  0.80982  0.16635  0.26077  1.0000
  Fe  Fe295     1.0  0.78799  0.25951  0.32984  1.0000
  S   S591      1.0  0.78297  0.25977  0.29820  1.0000
  S   S592      1.0  0.81854  0.24330  0.33914  1.0000
  H   H1770     1.0  0.94000  0.04102  0.47681  1.0000
  H   H1771     1.0  0.85581  0.23220  0.00431  1.0000
  C   C1768     1.0  0.84862  0.01139  0.26980  1.0000
  Fe  Fe296     1.0  0.76785  0.29341  0.29803  1.0000
  S   S593      1.0  0.79857  0.14915  0.00866  1.0000
  S   S594      1.0  0.75779  0.25008  0.34733  1.0000
  S   S595      1.0  0.77578  0.29405  0.32825  1.0000
  Fe  Fe297     1.0  0.88369  0.09321  0.17080  1.0000
  S   S596      1.0  0.90045  0.11674  0.17333  1.0000
  S   S597      1.0  0.86478  0.09996  0.14603  1.0000
  S   S598      1.0  0.94701  0.15123  0.08184  1.0000
  C   C1769     1.0  0.78710  0.02834  0.14497  1.0000
  Fe  Fe298     1.0  0.92811  0.19876  0.25871  1.0000
  S   S599      1.0  0.90242  0.19680  0.24421  1.0000
  S   S600      1.0  0.93242  0.23111  0.25692  1.0000
  Fe  Fe299     1.0  0.94086  0.15163  0.27231  1.0000
  S   S601      1.0  0.91633  0.14578  0.25862  1.0000
  Fe  Fe300     1.0  0.92591  0.17083  0.23121  1.0000
  S   S602      1.0  0.93181  0.16512  0.19851  1.0000
  Fe  Fe301     1.0  0.89534  0.17230  0.27301  1.0000
  S   S603      1.0  0.86172  0.17145  0.28787  1.0000
  S   S604      1.0  0.95240  0.17447  0.24355  1.0000
  S   S605      1.0  0.91907  0.17635  0.28893  1.0000
  S   S606      1.0  0.90220  0.19829  0.08957  1.0000
  S   S607      1.0  0.90469  0.23722  0.12354  1.0000
  Fe  Fe302     1.0  0.89940  0.21687  0.05738  1.0000
  S   S608      1.0  0.86918  0.21753  0.04808  1.0000
  C   C1770     1.0  0.92605  0.18670  0.17814  1.0000
  C   C1771     1.0  0.91332  0.20588  0.18208  1.0000
  C   C1772     1.0  0.90703  0.22174  0.16532  1.0000
  C   C1773     1.0  0.91375  0.21850  0.14463  1.0000
  C   C1774     1.0  0.93346  0.18402  0.15741  1.0000
  H   H1772     1.0  0.90785  0.20832  0.19801  1.0000
  H   H1773     1.0  0.89689  0.23638  0.16843  1.0000
  C   C1775     1.0  0.91446  0.12568  0.14824  1.0000
  C   C1776     1.0  0.92366  0.11206  0.13421  1.0000
  C   C1777     1.0  0.93467  0.11960  0.11406  1.0000
  C   C1778     1.0  0.92647  0.15429  0.12178  1.0000
  C   C1779     1.0  0.91610  0.14672  0.14209  1.0000
  H   H1774     1.0  0.92239  0.09574  0.13887  1.0000
  H   H1775     1.0  0.92738  0.17055  0.11688  1.0000
  H   H1776     1.0  0.90889  0.15733  0.15278  1.0000
  H   H1777     1.0  0.91696  0.05972  0.24273  1.0000
  H   H1778     1.0  0.81293  0.03031  0.24955  1.0000
  C   C1780     1.0  0.83031  0.22263  0.32576  1.0000
  C   C1781     1.0  0.85197  0.21533  0.32279  1.0000
  C   C1782     1.0  0.86169  0.19961  0.31114  1.0000
  C   C1783     1.0  0.84975  0.19096  0.30263  1.0000
  C   C1784     1.0  0.82800  0.19780  0.30612  1.0000
  C   C1785     1.0  0.81829  0.21368  0.31760  1.0000
  H   H1779     1.0  0.86131  0.22210  0.32919  1.0000
  H   H1780     1.0  0.87841  0.19415  0.30887  1.0000
  H   H1781     1.0  0.81868  0.19100  0.29971  1.0000
  H   H1782     1.0  0.80148  0.21886  0.32024  1.0000
  S   S609      1.0  0.76360  0.16046  0.06044  1.0000
  H   H1783     1.0  0.83181  0.02904  0.10894  1.0000
  C   C1786     1.0  0.93569  0.14089  0.10771  1.0000
  C   C1787     1.0  0.78973  0.18348  0.27417  1.0000
  C   C1788     1.0  0.78905  0.20512  0.26841  1.0000
  C   C1789     1.0  0.77317  0.21896  0.27907  1.0000
  H   H1784     1.0  0.80093  0.21117  0.25582  1.0000
  H   H1785     1.0  0.77269  0.23564  0.27441  1.0000
  C   C1790     1.0  0.76494  0.08197  0.14790  1.0000
  Fe  Fe303     1.0  0.80358  0.09119  0.27039  1.0000
  H   H1786     1.0  0.76334  0.10772  0.18592  1.0000
  H   H1787     1.0  0.91477  0.06154  0.29711  1.0000
  C   C1791     1.0  0.89201  0.09809  0.35232  1.0000
  C   C1792     1.0  0.88651  0.11060  0.33358  1.0000
  C   C1793     1.0  0.87534  0.10368  0.32243  1.0000
  C   C1794     1.0  0.86992  0.08395  0.32974  1.0000
  C   C1795     1.0  0.87515  0.07158  0.34864  1.0000
  C   C1796     1.0  0.88597  0.07868  0.35997  1.0000
  H   H1788     1.0  0.89128  0.12556  0.32738  1.0000
  Fe  Fe304     1.0  0.83149  0.09189  0.29991  1.0000
  H   H1789     1.0  0.87111  0.05627  0.35441  1.0000
  C   C1797     1.0  0.78650  0.07871  0.13960  1.0000
  C   C1798     1.0  0.91991  0.00693  0.25513  1.0000
  C   C1799     1.0  0.92747  0.19992  0.14078  1.0000
  C   C1800     1.0  0.89640  0.02393  0.23087  1.0000
  S   S610      1.0  0.85936  0.07312  0.31429  1.0000
  H   H1790     1.0  0.87169  0.11328  0.30774  1.0000
  C   C1801     1.0  0.86503  0.03026  0.28496  1.0000
  N   N146      1.0  0.87328  0.14357  0.08251  1.0000
  C   C1802     1.0  0.79456  0.13460  0.21581  1.0000
  H   H1791     1.0  0.96366  0.16115  0.29914  1.0000
  H   H1792     1.0  0.84988  0.14638  0.06521  1.0000
  C   C1803     1.0  0.92693  0.26893  0.19109  1.0000
  H   H1793     1.0  0.77051  0.02959  0.14621  1.0000
  C   C1804     1.0  0.92638  0.26761  0.22766  1.0000
  C   C1805     1.0  0.93132  0.24564  0.23136  1.0000
  C   C1806     1.0  0.93455  0.23537  0.21476  1.0000
  C   C1807     1.0  0.93273  0.24702  0.19456  1.0000
  S   S611      1.0  0.80004  0.07753  0.24425  1.0000
  C   C1808     1.0  0.93782  0.06681  0.33432  1.0000
  H   H1794     1.0  0.93861  0.21843  0.21738  1.0000
  H   H1795     1.0  0.93537  0.23903  0.18175  1.0000
  C   C1809     1.0  0.94583  0.10886  0.19365  1.0000
  C   C1810     1.0  0.92895  0.29814  0.01267  1.0000
  S   S612      1.0  0.90651  0.10718  0.36556  1.0000
  C   C1811     1.0  0.93361  0.04898  0.34931  1.0000
  H   H1796     1.0  0.95454  0.10949  0.35342  1.0000
  C   C1812     1.0  0.83987  0.06157  0.07592  1.0000
  C   C1813     1.0  0.83606  0.07435  0.09060  1.0000
  C   C1814     1.0  0.85101  0.07219  0.10266  1.0000
  C   C1815     1.0  0.86990  0.05761  0.09964  1.0000
  C   C1816     1.0  0.87375  0.04518  0.08472  1.0000
  C   C1817     1.0  0.85866  0.04693  0.07311  1.0000
  H   H1797     1.0  0.82143  0.08554  0.09298  1.0000
  H   H1798     1.0  0.84812  0.08200  0.11402  1.0000
  H   H1799     1.0  0.88839  0.03399  0.08229  1.0000
  H   H1800     1.0  0.86160  0.03697  0.06187  1.0000
  C   C1818     1.0  0.84421  0.17683  0.03090  1.0000
  C   C1819     1.0  0.84673  0.19293  0.03942  1.0000
  C   C1820     1.0  0.86668  0.19683  0.03756  1.0000
  H   H1801     1.0  0.82875  0.17388  0.03267  1.0000
  H   H1802     1.0  0.83316  0.20228  0.04770  1.0000
  S   S613      1.0  0.75756  0.10700  0.33897  1.0000
  H   H1803     1.0  0.94600  0.07729  0.33743  1.0000
  Fe  Fe305     1.0  0.77909  0.27168  0.04586  1.0000
  H   H1804     1.0  0.84321  0.29280  0.23522  1.0000
  H   H1805     1.0  0.89074  0.00946  0.47293  1.0000
  C   C1821     1.0  0.80684  0.32279  0.17083  1.0000
  H   H1806     1.0  0.87840  0.17446  0.07634  1.0000
  H   H1807     1.0  0.78370  0.02693  0.17811  1.0000
  H   H1808     1.0  0.96246  0.04880  0.18257  1.0000
  H   H1809     1.0  0.87871  0.23212  0.28127  1.0000
  H   H1810     1.0  0.83868  0.28512  0.14904  1.0000
  N   N147      1.0  0.95050  0.07123  0.20216  1.0000
  S   S614      1.0  0.92724  0.09666  0.41887  1.0000
  Fe  Fe306     1.0  0.95645  0.99897  0.28938  1.0000
  Fe  Fe307     1.0  0.75157  0.25314  0.31540  1.0000
  H   H1811     1.0  0.80960  0.12823  0.20681  1.0000
  N   N148      1.0  0.82806  0.14104  0.35230  1.0000
  C   C1822     1.0  0.80938  0.15276  0.34777  1.0000
  C   C1823     1.0  0.83000  0.12007  0.36095  1.0000
  C   C1824     1.0  0.79176  0.14369  0.35272  1.0000
  C   C1825     1.0  0.81276  0.11045  0.36596  1.0000
  C   C1826     1.0  0.79349  0.12242  0.36200  1.0000
  C   C1827     1.0  0.84644  0.15068  0.34667  1.0000
  H   H1812     1.0  0.80806  0.16918  0.34011  1.0000
  H   H1813     1.0  0.84498  0.11062  0.36387  1.0000
  H   H1814     1.0  0.77702  0.15290  0.34884  1.0000
  H   H1815     1.0  0.81442  0.09376  0.37253  1.0000
  N   N149      1.0  0.84713  0.32222  0.09401  1.0000
  H   H1816     1.0  0.85749  0.14290  0.35743  1.0000
  H   H1817     1.0  0.85475  0.14924  0.33041  1.0000
  H   H1818     1.0  0.84194  0.16759  0.34747  1.0000
  H   H1819     1.0  0.95965  0.08909  0.24113  1.0000
  H   H1820     1.0  0.89454  0.27587  0.09017  1.0000
  H   H1821     1.0  0.98574  0.16774  0.32026  1.0000
  H   H1822     1.0  0.75797  0.27663  0.44388  1.0000
  H   H1823     1.0  0.77861  0.02478  0.10995  1.0000
  H   H1824     1.0  0.80615  0.31377  0.28921  1.0000
  H   H1825     1.0  0.86268  0.11062  0.05774  1.0000
  C   C1828     1.0  0.96599  0.29464  0.05685  1.0000
  H   H1826     1.0  0.79289  0.07141  0.12612  1.0000
  C   C1829     1.0  0.88155  0.16890  0.01783  1.0000
  Fe  Fe308     1.0  0.84073  0.08719  0.17250  1.0000
  C   C1830     1.0  0.97485  0.14831  0.30595  1.0000
  C   C1831     1.0  0.82962  0.02904  0.24151  1.0000
  S   S615      1.0  0.77799  0.26493  0.08048  1.0000
  H   H1827     1.0  0.99309  0.09582  0.30930  1.0000
  H   H1828     1.0  0.93683  0.25859  0.13448  1.0000
  S   S616      1.0  0.82910  0.26448  0.06759  1.0000
  C   C1832     1.0  0.77189  0.17476  0.13520  1.0000
  S   S617      1.0  0.91006  0.05730  0.41258  1.0000
  H   H1829     1.0  0.89511  0.15980  0.00925  1.0000
  S   S618      1.0  0.82753  0.10218  0.00864  1.0000
  H   H1830     1.0  0.92906  0.25268  0.00897  1.0000
  H   H1831     1.0  0.90886  0.02548  0.30573  1.0000
  H   H1832     1.0  0.74451  0.13707  0.30269  1.0000
  S   S619      1.0  0.85898  0.14591  0.00708  1.0000
  H   H1833     1.0  0.89141  0.02021  0.43488  1.0000
  S   S620      1.0  0.95143  0.04748  0.43407  1.0000
  H   H1834     1.0  0.82911  0.20277  0.99868  1.0000
  H   H1835     1.0  0.78673  0.04976  0.10126  1.0000
  H   H1836     1.0  0.92961  0.14308  0.34622  1.0000
  S   S621      1.0  0.75204  0.27731  0.02994  1.0000
  H   H1837     1.0  0.95075  0.12324  0.21676  1.0000
  N   N150      1.0  0.75893  0.13192  0.23168  1.0000
  H   H1838     1.0  0.76619  0.12355  0.10048  1.0000
  N   N151      1.0  0.91621  0.04040  0.32654  1.0000
  C   C1833     1.0  0.98766  0.13637  0.38991  1.0000
  H   H1839     1.0  0.90572  0.27234  0.01400  1.0000
  C   C1834     1.0  0.86160  0.16502  0.01966  1.0000
  C   C1835     1.0  0.76344  0.06258  0.26218  1.0000
  C   C1836     1.0  0.89019  0.13092  0.09007  1.0000
  N   N152      1.0  0.84159  0.26262  0.25475  1.0000
  C   C1837     1.0  0.85138  0.24567  0.26744  1.0000
  C   C1838     1.0  0.85081  0.27954  0.24554  1.0000
  C   C1839     1.0  0.87076  0.24558  0.27142  1.0000
  C   C1840     1.0  0.87007  0.28005  0.24937  1.0000
  C   C1841     1.0  0.87999  0.26299  0.26253  1.0000
  C   C1842     1.0  0.82140  0.26266  0.25033  1.0000
  H   H1840     1.0  0.84426  0.23212  0.27458  1.0000
  H   H1841     1.0  0.95967  0.05599  0.23137  1.0000
  C   C1843     1.0  0.86019  0.01148  0.28433  1.0000
  N   N153      1.0  0.75947  0.14723  0.11842  1.0000
  C   C1844     1.0  0.86355  0.29736  0.00496  1.0000
  H   H1842     1.0  0.80987  0.27707  0.25388  1.0000
  H   H1843     1.0  0.82327  0.26237  0.23351  1.0000
  H   H1844     1.0  0.81478  0.24890  0.26001  1.0000
  N   N154      1.0  0.87704  0.14854  0.22331  1.0000
  C   C1845     1.0  0.86437  0.15801  0.23914  1.0000
  C   C1846     1.0  0.88167  0.16006  0.20342  1.0000
  C   C1847     1.0  0.85655  0.17968  0.23534  1.0000
  C   C1848     1.0  0.87383  0.18168  0.19901  1.0000
  C   C1849     1.0  0.86138  0.19157  0.21516  1.0000
  C   C1850     1.0  0.88500  0.12579  0.22727  1.0000
  H   H1845     1.0  0.86022  0.14895  0.25489  1.0000
  H   H1846     1.0  0.89184  0.15263  0.19090  1.0000
  H   H1847     1.0  0.84667  0.18703  0.24809  1.0000
  H   H1848     1.0  0.87780  0.19068  0.18322  1.0000
  H   H1849     1.0  0.85554  0.20839  0.21206  1.0000
  H   H1850     1.0  0.88450  0.11917  0.24427  1.0000
  H   H1851     1.0  0.90153  0.12210  0.21886  1.0000
  N   N155      1.0  0.83910  0.24854  0.12215  1.0000
  C   C1851     1.0  0.81819  0.25223  0.12217  1.0000
  C   C1852     1.0  0.84649  0.26016  0.13162  1.0000
  C   C1853     1.0  0.80408  0.26768  0.13211  1.0000
  C   C1854     1.0  0.83282  0.27577  0.14165  1.0000
  C   C1855     1.0  0.81149  0.27946  0.14192  1.0000
  Fe  Fe309     1.0  0.93524  0.18618  0.07447  1.0000
  H   H1852     1.0  0.81233  0.24340  0.11425  1.0000
  C   C1856     1.0  0.77517  0.06584  0.22461  1.0000
  H   H1853     1.0  0.74791  0.24649  0.22129  1.0000
  C   C1857     1.0  0.74921  0.16777  0.11635  1.0000
  H   H1854     1.0  0.80076  0.29163  0.14949  1.0000
  S   S622      1.0  0.88927  0.05501  0.11375  1.0000
  H   H1855     1.0  0.89305  0.05748  0.22122  1.0000
  H   H1856     1.0  0.87729  0.29357  0.24214  1.0000
  Fe  Fe310     1.0  0.74479  0.28475  0.34322  1.0000
  C   C1858     1.0  0.92241  0.03609  0.34531  1.0000
  C   C1859     1.0  0.75809  0.18964  0.30077  1.0000
  H   H1857     1.0  0.86304  0.25745  0.13143  1.0000
  H   H1858     1.0  0.86818  0.28245  0.06778  1.0000
  C   C1860     1.0  0.77786  0.06829  0.24384  1.0000
  C   C1861     1.0  0.88762  0.99884  0.46489  1.0000
  C   C1862     1.0  0.94093  0.99254  0.44034  1.0000
  Fe  Fe311     1.0  0.89975  0.31294  0.16955  1.0000
  C   C1863     1.0  0.94581  0.08990  0.18862  1.0000
  C   C1864     1.0  0.77021  0.32031  0.17940  1.0000
  C   C1865     1.0  0.76993  0.09922  0.17331  1.0000
  C   C1866     1.0  0.76960  0.31866  0.10359  1.0000
  Fe  Fe312     1.0  0.94357  0.04086  0.40646  1.0000
  Fe  Fe313     1.0  0.91462  0.22453  0.09364  1.0000
  H   H1859     1.0  0.93342  0.19773  0.12490  1.0000
  H   H1860     1.0  0.94362  0.16943  0.15415  1.0000
  H   H1861     1.0  0.94183  0.10914  0.10318  1.0000
  H   H1862     1.0  0.87553  0.11802  0.22143  1.0000
  S   S623      1.0  0.89938  0.06075  0.16612  1.0000
  S   S624      1.0  0.85855  0.08332  0.19768  1.0000
  C   C1867     1.0  0.75671  0.09237  0.16465  1.0000
  S   S625      1.0  0.89821  0.06316  0.47085  1.0000
  S   S626      1.0  0.90855  0.24488  0.06280  1.0000
  Fe  Fe314     1.0  0.80796  0.24193  0.07304  1.0000
  C   C1868     1.0  0.81121  0.31988  0.27266  1.0000
  C   C1869     1.0  0.79990  0.08464  0.14895  1.0000
  Fe  Fe315     1.0  0.78623  0.13746  0.04269  1.0000
  C   C1870     1.0  0.79447  0.02690  0.16305  1.0000
  H   H1863     1.0  0.77692  0.18557  0.14148  1.0000
  C   C1871     1.0  0.94999  0.05169  0.19652  1.0000
  C   C1872     1.0  0.78707  0.24286  0.99615  1.0000
  S   S627      1.0  0.94813  0.21088  0.08128  1.0000
  Fe  Fe316     1.0  0.80909  0.13271  0.27622  1.0000
  C   C1873     1.0  0.79154  0.09507  0.16573  1.0000
  C   C1874     1.0  0.78221  0.15377  0.13730  1.0000
  Fe  Fe317     1.0  0.92171  0.08557  0.39202  1.0000
  S   S628      1.0  0.93194  0.20351  0.04185  1.0000
  C   C1875     1.0  0.77420  0.17575  0.29035  1.0000
  C   C1876     1.0  0.88413  0.18451  0.02700  1.0000
  H   H1864     1.0  0.95422  0.28895  0.12708  1.0000
  C   C1877     1.0  0.79422  0.16293  0.07937  1.0000
  S   S629      1.0  0.80749  0.10478  0.17620  1.0000
  Fe  Fe318     1.0  0.87263  0.05109  0.19111  1.0000
  C   C1878     1.0  0.79915  0.19570  0.08435  1.0000
  Fe  Fe319     1.0  0.94159  0.22975  0.05018  1.0000
  C   C1879     1.0  0.94181  0.31229  0.01027  1.0000
  H   H1865     1.0  0.78638  0.07007  0.21037  1.0000
  S   S630      1.0  0.81264  0.20966  0.09328  1.0000
  C   C1880     1.0  0.80476  0.17382  0.08718  1.0000
  H   H1866     1.0  0.79824  0.14602  0.08207  1.0000
  H   H1867     1.0  0.75628  0.05609  0.20868  1.0000
  N   N156      1.0  0.97195  0.13823  0.37759  1.0000
  H   H1868     1.0  0.91945  0.29615  0.20502  1.0000
  H   H1869     1.0  0.95832  0.10086  0.44703  1.0000
  H   H1870     1.0  0.81657  0.08186  0.14272  1.0000
  Fe  Fe320     1.0  0.95953  0.07689  0.41278  1.0000
  S   S631      1.0  0.77958  0.10816  0.03807  1.0000
  Fe  Fe321     1.0  0.82571  0.27179  0.03404  1.0000
  H   H1871     1.0  0.74434  0.25936  0.25360  1.0000
  H   H1872     1.0  0.93454  0.05274  0.19285  1.0000
  Fe  Fe322     1.0  0.79481  0.11814  0.00438  1.0000
  Fe  Fe323     1.0  0.91878  0.06642  0.43866  1.0000
  C   C1881     1.0  0.85387  0.23282  0.11107  1.0000
  N   N157      1.0  0.80044  0.02908  0.12581  1.0000
  C   C1882     1.0  0.99160  0.09308  0.43572  1.0000
  C   C1883     1.0  0.75816  0.05784  0.22363  1.0000
  S   S632      1.0  0.96210  0.12312  0.28717  1.0000
  C   C1884     1.0  0.76808  0.27241  0.40014  1.0000
  H   H1873     1.0  0.83084  0.04230  0.22774  1.0000
  H   H1874     1.0  0.79055  0.20918  0.00494  1.0000
  Fe  Fe324     1.0  0.82972  0.13225  0.01644  1.0000
  H   H1875     1.0  0.78417  0.12412  0.12978  1.0000
  N   N158      1.0  0.83046  0.23523  0.98991  1.0000
  H   H1876     1.0  0.86590  0.22363  0.12033  1.0000
  H   H1877     1.0  0.80473  0.16052  0.22081  1.0000
  C   C1885     1.0  0.84929  0.30927  0.08049  1.0000
  H   H1878     1.0  0.80411  0.02645  0.09394  1.0000
  C   C1886     1.0  0.77250  0.16013  0.23573  1.0000
  H   H1879     1.0  0.84588  0.22149  0.10823  1.0000
  C   C1887     1.0  0.81565  0.02618  0.16142  1.0000
  S   S633      1.0  0.96041  0.00598  0.31881  1.0000
  H   H1880     1.0  0.84234  0.06213  0.24559  1.0000
  S   S634      1.0  0.85177  0.27662  0.00580  1.0000
  H   H1881     1.0  0.77459  0.15907  0.29492  1.0000
  C   C1888     1.0  0.80998  0.30824  0.18933  1.0000
  Fe  Fe325     1.0  0.78445  0.10591  0.31143  1.0000
  H   H1882     1.0  0.94053  0.00777  0.44308  1.0000
  C   C1889     1.0  0.74678  0.05393  0.26130  1.0000
  H   H1883     1.0  0.89320  0.08734  0.07174  1.0000
  C   C1890     1.0  0.87038  0.11616  0.06701  1.0000
  H   H1884     1.0  0.84567  0.02662  0.14025  1.0000
  C   C1891     1.0  0.97280  0.26822  0.03570  1.0000
  S   S635      1.0  0.95172  0.00914  0.39820  1.0000
  C   C1892     1.0  0.89745  0.11045  0.08652  1.0000
  C   C1893     1.0  0.79181  0.15263  0.22366  1.0000
  S   S636      1.0  0.81099  0.12087  0.31005  1.0000
  S   S637      1.0  0.78094  0.11999  0.27831  1.0000
  H   H1885     1.0  0.89011  0.29923  0.11488  1.0000
  C   C1894     1.0  0.96011  0.31164  0.99488  1.0000
  C   C1895     1.0  0.91412  0.04460  0.24275  1.0000
  C   C1896     1.0  0.90050  0.04337  0.23063  1.0000
  H   H1886     1.0  0.95923  0.17031  0.37927  1.0000
  C   C1897     1.0  0.93098  0.07140  0.31544  1.0000
  H   H1887     1.0  0.88750  0.03302  0.32684  1.0000
  C   C1898     1.0  0.77343  0.30523  0.19745  1.0000
  S   S638      1.0  0.85201  0.05376  0.16867  1.0000
  C   C1899     1.0  0.74516  0.32320  0.37285  1.0000
  H   H1888     1.0  0.81713  0.16529  0.09545  1.0000
  S   S639      1.0  0.80489  0.07564  0.30392  1.0000
  H   H1889     1.0  0.93874  0.04509  0.36407  1.0000
  S   S640      1.0  0.80743  0.24674  0.03897  1.0000
  H   H1890     1.0  0.92426  0.27567  0.24031  1.0000
  H   H1891     1.0  0.77825  0.22344  0.07196  1.0000
  H   H1892     1.0  0.86183  0.24064  0.09554  1.0000
  C   C1900     1.0  0.97692  0.12805  0.30278  1.0000
  C   C1901     1.0  0.92371  0.27922  0.20766  1.0000
  C   C1902     1.0  0.92421  0.02634  0.25464  1.0000
  C   C1903     1.0  0.90587  0.00577  0.24339  1.0000
  C   C1904     1.0  0.79205  0.03261  0.10684  1.0000
  C   C1905     1.0  0.95821  0.15690  0.37369  1.0000
  N   N159      1.0  0.84225  0.02945  0.25616  1.0000
  H   H1893     1.0  0.93201  0.17384  0.35910  1.0000
  H   H1894     1.0  0.89819  0.13672  0.09883  1.0000
  C   C1906     1.0  0.86658  0.16515  0.08596  1.0000
  N   N160      1.0  0.98824  0.26058  0.09296  1.0000
  S   S641      1.0  0.92331  0.28332  0.16613  1.0000
  H   H1895     1.0  0.78759  0.27100  0.13163  1.0000
  S   S642      1.0  0.94265  0.02833  0.26804  1.0000
  H   H1896     1.0  0.85140  0.17312  0.08131  1.0000
  H   H1897     1.0  0.82151  0.02539  0.17527  1.0000
  S   S643      1.0  0.96576  0.24778  0.02850  1.0000
  H   H1898     1.0  0.94623  0.27245  0.06105  1.0000
  H   H1899     1.0  0.78005  0.11509  0.36558  1.0000
  H   H1900     1.0  0.79515  0.14798  0.14546  1.0000
  C   C1907     1.0  0.97357  0.10065  0.44957  1.0000
  H   H1901     1.0  0.99302  0.99252  0.36450  1.0000
  H   H1902     1.0  0.76551  0.06415  0.27712  1.0000
  H   H1903     1.0  0.86246  0.06314  0.27129  1.0000
  H   H1904     1.0  0.95263  0.22968  0.11520  1.0000
  H   H1905     1.0  0.91071  0.10031  0.09277  1.0000
  C   C1908     1.0  0.92014  0.05791  0.31177  1.0000
  C   C1909     1.0  0.99148  0.11153  0.31165  1.0000
  H   H1906     1.0  0.77513  0.31771  0.13391  1.0000
  C   C1910     1.0  0.84707  0.04790  0.25661  1.0000
  C   C1911     1.0  0.95576  0.07080  0.22067  1.0000
  H   H1907     1.0  0.98543  0.23117  0.08847  1.0000
  C   C1912     1.0  0.82919  0.02684  0.14183  1.0000
  C   C1913     1.0  0.88757  0.10314  0.07476  1.0000
  C   C1914     1.0  0.82125  0.02828  0.12411  1.0000
  S   S644      1.0  0.87920  0.02219  0.21595  1.0000
  C   C1915     1.0  0.96035  0.27781  0.05215  1.0000
  C   C1916     1.0  0.74407  0.05152  0.24203  1.0000
  H   H1908     1.0  0.91905  0.02241  0.35720  1.0000
  H   H1909     1.0  0.75944  0.20408  0.05867  1.0000
  H   H1910     1.0  0.74728  0.19816  0.12272  1.0000
  H   H1911     1.0  0.86548  0.99709  0.29493  1.0000
  C   C1917     1.0  0.94278  0.15899  0.36234  1.0000
  C   C1918     1.0  0.96103  0.27625  0.11860  1.0000
  C   C1919     1.0  0.97058  0.12123  0.37072  1.0000
  C   C1920     1.0  0.95125  0.25924  0.12278  1.0000
  H   H1912     1.0  0.79565  0.28802  0.21676  1.0000
  Fe  Fe326     1.0  0.79905  0.28799  0.07220  1.0000
  C   C1921     1.0  0.99098  0.27551  0.02417  1.0000
  H   H1913     1.0  0.87387  0.03069  0.29614  1.0000
  H   H1914     1.0  0.75598  0.26318  0.40514  1.0000
  C   C1922     1.0  0.75269  0.13226  0.11038  1.0000
  H   H1915     1.0  0.89489  0.26313  0.26575  1.0000
  C   C1923     1.0  0.86329  0.13642  0.07120  1.0000
  H   H1916     1.0  0.83527  0.01441  0.23518  1.0000
  C   C1924     1.0  0.79325  0.29944  0.20260  1.0000
  H   H1917     1.0  0.93388  0.08544  0.30386  1.0000
  C   C1925     1.0  0.85851  0.04857  0.27101  1.0000
  C   C1926     1.0  0.96013  0.24296  0.11192  1.0000
  C   C1927     1.0  0.86644  0.29250  0.07873  1.0000
  H   H1918     1.0  0.94177  0.09024  0.17388  1.0000
  C   C1928     1.0  0.90452  0.02669  0.32254  1.0000
  S   S645      1.0  0.79603  0.30964  0.09345  1.0000
  C   C1929     1.0  0.86887  0.32300  0.02174  1.0000
  H   H1919     1.0  0.95226  0.03787  0.20958  1.0000
  C   C1930     1.0  0.78345  0.26935  0.38217  1.0000
  C   C1931     1.0  0.75530  0.18186  0.12464  1.0000
  C   C1932     1.0  0.97524  0.10849  0.46648  1.0000
  N   N161      1.0  0.76823  0.28691  0.41115  1.0000
  C   C1933     1.0  0.88804  0.00503  0.44332  1.0000
  S   S646      1.0  0.74827  0.07303  0.13744  1.0000
  C   C1934     1.0  0.79882  0.29625  0.38657  1.0000
  C   C1935     1.0  0.98437  0.30168  0.04554  1.0000
  N   N162      1.0  0.93406  0.28388  0.99991  1.0000
  C   C1936     1.0  0.85879  0.30698  0.02221  1.0000
  C   C1937     1.0  0.79885  0.28140  0.37533  1.0000
  H   H1920     1.0  0.95618  0.30207  0.06949  1.0000
  C   C1938     1.0  0.95582  0.08947  0.22627  1.0000
  H   H1921     1.0  0.78783  0.07343  0.99773  1.0000
  H   H1922     1.0  0.81063  0.30581  0.38128  1.0000
  C   C1939     1.0  0.97968  0.27664  0.10360  1.0000
  H   H1923     1.0  0.90812  0.01049  0.33183  1.0000
  C   C1940     1.0  0.95081  0.10860  0.21264  1.0000
  C   C1941     1.0  0.77586  0.14024  0.12856  1.0000
  H   H1924     1.0  0.82533  0.30338  0.19313  1.0000
  C   C1942     1.0  0.78341  0.29868  0.40468  1.0000
  H   H1925     1.0  0.89959  0.18733  0.02540  1.0000
  C   C1943     1.0  0.75453  0.32298  0.09129  1.0000
  S   S647      1.0  0.79727  0.29734  0.03826  1.0000
  H   H1926     1.0  0.91479  0.29878  0.02470  1.0000
  C   C1944     1.0  0.92078  0.26873  0.00280  1.0000
  C   C1945     1.0  0.94142  0.14178  0.35511  1.0000
  C   C1946     1.0  0.88122  0.28886  0.09116  1.0000
  H   H1927     1.0  0.77037  0.17384  0.24236  1.0000
  H   H1928     1.0  0.94175  0.12369  0.18298  1.0000
  S   S648      1.0  0.75303  0.29295  0.21323  1.0000
  C   C1947     1.0  0.87877  0.30200  0.10504  1.0000
  H   H1929     1.0  0.96120  0.11470  0.47687  1.0000
  H   H1930     1.0  0.75489  0.31975  0.35821  1.0000
  S   S649      1.0  0.86849  0.31043  0.19043  1.0000
  C   C1948     1.0  0.95539  0.12280  0.35928  1.0000
  H   H1931     1.0  0.81076  0.27917  0.36130  1.0000
  C   C1949     1.0  0.97871  0.24388  0.09694  1.0000
  C   C1950     1.0  0.79851  0.22230  0.99937  1.0000
  C   C1951     1.0  0.75621  0.14936  0.23983  1.0000
  S   S650      1.0  0.77318  0.31619  0.26744  1.0000
  H   H1932     1.0  0.75924  0.32140  0.07504  1.0000
  C   C1952     1.0  0.86157  0.31875  0.10619  1.0000
  H   H1933     1.0  0.98712  0.28999  0.10035  1.0000
  H   H1934     1.0  0.78349  0.25769  0.37357  1.0000
  H   H1935     1.0  0.78340  0.31034  0.41330  1.0000
  H   H1936     1.0  0.77011  0.24593  0.99925  1.0000
  S   S651      1.0  0.98997  0.08447  0.41352  1.0000
  H   H1937     1.0  0.88564  0.99561  0.41578  1.0000
  H   H1938     1.0  0.83773  0.31191  0.07096  1.0000
  C   C1953     1.0  0.76352  0.32097  0.12447  1.0000
  H   H1939     1.0  0.74885  0.15734  0.99445  1.0000
  H   H1940     1.0  0.74357  0.11121  0.22457  1.0000
  H   H1941     1.0  0.74618  0.18356  0.31332  1.0000
  C   C1954     1.0  0.92877  0.03229  0.48727  1.0000
  H   H1942     1.0  0.98158  0.10649  0.37362  1.0000
  C   C1955     1.0  0.90733  0.04035  0.48832  1.0000
  H   H1943     1.0  0.74549  0.12101  0.12370  1.0000
  H   H1944     1.0  0.84498  0.99675  0.26929  1.0000
  S   S652      1.0  0.99173  0.32174  0.05314  1.0000
  H   H1945     1.0  0.74440  0.14881  0.18959  1.0000
  H   H1946     1.0  0.75451  0.18673  0.00572  1.0000
  C   C1956     1.0  0.75277  0.28891  0.43068  1.0000
  C   C1957     1.0  0.79814  0.32232  0.25869  1.0000
  H   H1947     1.0  0.92767  0.99276  0.26420  1.0000
  C   C1958     1.0  0.98741  0.15203  0.31784  1.0000
  H   H1948     1.0  0.75052  0.30458  0.43456  1.0000
  H   H1949     1.0  0.99054  0.00489  0.41189  1.0000
  H   H1950     1.0  0.93757  0.32370  0.02029  1.0000
  H   H1951     1.0  0.97044  0.32224  0.99314  1.0000
  C   C1959     1.0  0.79752  0.25957  0.98948  1.0000
  H   H1952     1.0  0.84081  0.32406  0.27605  1.0000
  H   H1953     1.0  0.77968  0.04249  0.98994  1.0000
  H   H1954     1.0  0.88852  0.00177  0.52662  1.0000
  C   C1960     1.0  0.94312  0.04807  0.55195  1.0000
  H   H1955     1.0  0.91688  0.26901  0.98763  1.0000
  C   C1961     1.0  0.79701  0.08688  0.92143  1.0000
  H   H1956     1.0  0.82685  0.04388  0.95946  1.0000
  C   C1962     1.0  0.81877  0.05604  0.94857  1.0000
  C   C1963     1.0  0.93572  0.01298  0.50001  1.0000
  C   C1964     1.0  0.89287  0.02966  0.50307  1.0000
  C   C1965     1.0  0.89978  0.01025  0.51560  1.0000
  C   C1966     1.0  0.97943  0.08493  0.54276  1.0000
  C   C1967     1.0  0.77041  0.09592  0.97612  1.0000
  H   H1957     1.0  0.75141  0.11410  0.95376  1.0000
  C   C1968     1.0  0.95530  0.06035  0.55550  1.0000
  C   C1969     1.0  0.76061  0.06067  0.96767  1.0000
  C   C1970     1.0  0.77313  0.05815  0.98234  1.0000
  H   H1958     1.0  0.98147  0.32235  0.92512  1.0000
  H   H1959     1.0  0.93282  0.03876  0.52849  1.0000
  H   H1960     1.0  0.78803  0.09910  0.91135  1.0000
  C   C1971     1.0  0.80790  0.09210  0.93390  1.0000
  H   H1961     1.0  0.88182  0.29664  0.97369  1.0000
  N   N163      1.0  0.96684  0.07192  0.53900  1.0000
  H   H1962     1.0  0.82324  0.09888  0.96280  1.0000
  S   S653      1.0  0.75844  0.03815  0.95973  1.0000
  H   H1963     1.0  0.80725  0.10854  0.93329  1.0000
  H   H1964     1.0  0.97951  0.29645  0.97000  1.0000
  C   C1972     1.0  0.77780  0.07568  0.98675  1.0000
  N   N164      1.0  0.81833  0.07675  0.94747  1.0000
  H   H1965     1.0  0.78869  0.27563  0.98758  1.0000
  H   H1966     1.0  0.82749  0.07233  0.97664  1.0000
  H   H1967     1.0  0.84641  0.08063  0.95339  1.0000
  S   S654      1.0  0.96813  0.01334  0.59157  1.0000
  C   C1973     1.0  0.94239  0.04807  0.53140  1.0000
  C   C1974     1.0  0.75725  0.09851  0.96206  1.0000
  C   C1975     1.0  0.95198  0.28315  0.98474  1.0000
  C   C1976     1.0  0.81936  0.25545  0.98643  1.0000
  H   H1968     1.0  0.95352  0.06032  0.49858  1.0000
  H   H1969     1.0  0.87628  0.03603  0.50428  1.0000
  C   C1977     1.0  0.82950  0.08241  0.96064  1.0000
  H   H1970     1.0  0.78773  0.06156  0.91407  1.0000
  C   C1978     1.0  0.80797  0.05028  0.93639  1.0000
  C   C1979     1.0  0.98950  0.03729  0.60174  1.0000
  C   C1980     1.0  0.92117  0.00172  0.51381  1.0000
  S   S655      1.0  0.97800  0.99414  0.53689  1.0000
  C   C1981     1.0  0.75219  0.08100  0.95800  1.0000
  H   H1971     1.0  0.95568  0.06025  0.57156  1.0000
  C   C1982     1.0  0.98799  0.02758  0.58624  1.0000
  H   H1972     1.0  0.93447  0.03846  0.56512  1.0000
  H   H1973     1.0  0.82730  0.26854  0.98198  1.0000
  C   C1983     1.0  0.87820  0.30399  0.98711  1.0000
  C   C1984     1.0  0.88817  0.32017  0.98656  1.0000
  S   S656      1.0  0.77901  0.11807  0.97819  1.0000
  C   C1985     1.0  0.96631  0.07193  0.51879  1.0000
  H   H1974     1.0  0.95630  0.27151  0.97499  1.0000
  C   C1986     1.0  0.79694  0.06583  0.92285  1.0000
  H   H1975     1.0  0.97225  0.10183  0.53839  1.0000
  H   H1976     1.0  0.95228  0.00658  0.49875  1.0000
  H   H1977     1.0  0.97543  0.08116  0.50576  1.0000
  H   H1978     1.0  0.97895  0.03539  0.61688  1.0000
  C   C1987     1.0  0.95403  0.06011  0.51465  1.0000
  H   H1979     1.0  0.86100  0.21549  0.98564  1.0000
  H   H1980     1.0  0.98106  0.08129  0.55942  1.0000
  H   H1981     1.0  0.86042  0.24321  0.97663  1.0000
  H   H1982     1.0  0.80732  0.03394  0.93814  1.0000
  C   C1988     1.0  0.96523  0.29706  0.98194  1.0000
  C   C1989     1.0  0.85303  0.23128  0.98896  1.0000
  C   C1990     1.0  0.77418  0.60909  0.41916  1.0000
  C   C1991     1.0  0.89856  0.43097  0.15737  1.0000
  C   C1992     1.0  0.74453  0.60345  0.46757  1.0000
  H   H1983     1.0  0.94910  0.53671  0.05316  1.0000
  H   H1984     1.0  0.76196  0.62099  0.41279  1.0000
  H   H1985     1.0  0.83295  0.35334  0.09870  1.0000
  H   H1986     1.0  0.89545  0.36538  0.22152  1.0000
  C   C1993     1.0  0.87953  0.40585  0.18323  1.0000
  H   H1987     1.0  0.91480  0.43156  0.14844  1.0000
  C   C1994     1.0  0.92503  0.53084  0.99551  1.0000
  S   S657      1.0  0.90433  0.33953  0.18128  1.0000
  S   S658      1.0  0.86223  0.34004  0.23418  1.0000
  S   S659      1.0  0.85602  0.36190  0.17535  1.0000
  C   C1995     1.0  0.77127  0.57849  0.48399  1.0000
  Fe  Fe327     1.0  0.88842  0.36005  0.15549  1.0000
  S   S660      1.0  0.89588  0.38987  0.13359  1.0000
  H   H1988     1.0  0.76584  0.59019  0.39032  1.0000
  H   H1989     1.0  0.82944  0.34162  0.21325  1.0000
  S   S661      1.0  0.88664  0.33339  0.14211  1.0000
  H   H1990     1.0  0.96822  0.36358  0.02745  1.0000
  C   C1996     1.0  0.82442  0.33575  0.22984  1.0000
  C   C1997     1.0  0.95059  0.55312  0.04541  1.0000
  S   S662      1.0  0.98339  0.41568  0.11669  1.0000
  C   C1998     1.0  0.80183  0.59946  0.43865  1.0000
  C   C1999     1.0  0.94214  0.49118  0.01690  1.0000
  S   S663      1.0  0.98351  0.52152  0.07910  1.0000
  Fe  Fe328     1.0  0.97337  0.46571  0.04975  1.0000
  S   S664      1.0  0.95182  0.46578  0.02967  1.0000
  H   H1991     1.0  0.81567  0.56649  0.44463  1.0000
  S   S665      1.0  0.74670  0.35496  0.41584  1.0000
  S   S666      1.0  0.96316  0.47070  0.08271  1.0000
  C   C2000     1.0  0.94944  0.39514  0.02434  1.0000
  H   H1992     1.0  0.86569  0.41346  0.17675  1.0000
  H   H1993     1.0  0.79305  0.55706  0.42621  1.0000
  C   C2001     1.0  0.88354  0.32964  0.00392  1.0000
  C   C2002     1.0  0.76657  0.56237  0.47707  1.0000
  H   H1994     1.0  0.78434  0.34042  0.15192  1.0000
  H   H1995     1.0  0.96553  0.39743  0.07471  1.0000
  C   C2003     1.0  0.93200  0.50719  0.02805  1.0000
  H   H1996     1.0  0.76515  0.56573  0.40909  1.0000
  C   C2004     1.0  0.75113  0.41087  0.41353  1.0000
  H   H1997     1.0  0.94209  0.42774  0.05727  1.0000
  C   C2005     1.0  0.94390  0.49510  0.99523  1.0000
  C   C2006     1.0  0.76288  0.58302  0.40731  1.0000
  C   C2007     1.0  0.91561  0.40254  0.18236  1.0000
  C   C2008     1.0  0.79160  0.57343  0.42653  1.0000
  C   C2009     1.0  0.98393  0.54511  0.02115  1.0000
  H   H1998     1.0  0.75786  0.34495  0.23484  1.0000
  N   N165      1.0  0.77664  0.58859  0.41786  1.0000
  H   H1999     1.0  0.94515  0.39465  0.01002  1.0000
  Fe  Fe329     1.0  0.98883  0.48892  0.07359  1.0000
  H   H2000     1.0  0.77551  0.54653  0.48044  1.0000
  C   C2010     1.0  0.80481  0.33022  0.23729  1.0000
  C   C2011     1.0  0.78687  0.32903  0.16611  1.0000
  C   C2012     1.0  0.74543  0.35848  0.23213  1.0000
  H   H2001     1.0  0.93466  0.56302  0.04561  1.0000
  C   C2013     1.0  0.96824  0.37846  0.05231  1.0000
  N   N166      1.0  0.94193  0.41268  0.03290  1.0000
  C   C2014     1.0  0.92841  0.43075  0.02226  1.0000
  H   H2002     1.0  0.74623  0.58858  0.41446  1.0000
  H   H2003     1.0  0.75495  0.32500  0.17551  1.0000
  Fe  Fe330     1.0  0.85551  0.33343  0.16417  1.0000
  S   S667      1.0  0.74839  0.54664  0.45361  1.0000
  H   H2004     1.0  0.93048  0.50411  0.04491  1.0000
  C   C2015     1.0  0.89618  0.37873  0.20844  1.0000
  S   S668      1.0  0.82780  0.33187  0.15225  1.0000
  C   C2016     1.0  0.91501  0.38542  0.19930  1.0000
  H   H2005     1.0  0.91721  0.42561  0.01599  1.0000
  C   C2017     1.0  0.92315  0.52702  0.01735  1.0000
  C   C2018     1.0  0.75100  0.56670  0.46518  1.0000
  C   C2019     1.0  0.94771  0.41369  0.05067  1.0000
  C   C2020     1.0  0.76067  0.59926  0.47874  1.0000
  H   H2006     1.0  0.76442  0.34281  0.37619  1.0000
  S   S669      1.0  0.89670  0.34886  0.00446  1.0000
  C   C2021     1.0  0.75327  0.44403  0.41965  1.0000
  H   H2007     1.0  0.81088  0.60360  0.44769  1.0000
  H   H2008     1.0  0.76620  0.36467  0.25841  1.0000
  H   H2009     1.0  0.99140  0.53876  0.03456  1.0000
  C   C2022     1.0  0.82873  0.33925  0.09640  1.0000
  H   H2010     1.0  0.91916  0.44143  0.03304  1.0000
  C   C2023     1.0  0.96255  0.37768  0.03400  1.0000
  C   C2024     1.0  0.75575  0.42227  0.42591  1.0000
  C   C2025     1.0  0.87831  0.38899  0.20039  1.0000
  H   H2011     1.0  0.97834  0.36502  0.06002  1.0000
  H   H2012     1.0  0.74480  0.47099  0.39584  1.0000
  H   H2013     1.0  0.93812  0.43988  0.00892  1.0000
  H   H2014     1.0  0.75251  0.39406  0.41884  1.0000
  H   H2015     1.0  0.95841  0.55900  0.05482  1.0000
  H   H2016     1.0  0.78395  0.63086  0.43169  1.0000
  H   H2017     1.0  0.86368  0.38366  0.20729  1.0000
  C   C2026     1.0  0.78667  0.61482  0.42963  1.0000
  N   N167      1.0  0.89801  0.41246  0.17450  1.0000
  H   H2018     1.0  0.74497  0.38314  0.27024  1.0000
  H   H2019     1.0  0.92907  0.37730  0.20522  1.0000
  H   H2020     1.0  0.88945  0.43049  0.14589  1.0000
  C   C2027     1.0  0.95352  0.56160  0.00711  1.0000
  S   S670      1.0  0.76895  0.62071  0.48302  1.0000
  H   H2021     1.0  0.89191  0.44550  0.16373  1.0000
  C   C2028     1.0  0.96096  0.39662  0.06062  1.0000
  C   C2029     1.0  0.92123  0.39504  0.12762  1.0000
  C   C2030     1.0  0.93632  0.38341  0.13929  1.0000
  C   C2031     1.0  0.95553  0.38966  0.13569  1.0000
  C   C2032     1.0  0.95977  0.40736  0.12026  1.0000
  C   C2033     1.0  0.94490  0.41853  0.10819  1.0000
  C   C2034     1.0  0.92569  0.41243  0.11190  1.0000
  H   H2022     1.0  0.93301  0.36993  0.15139  1.0000
  H   H2023     1.0  0.96706  0.38085  0.14496  1.0000
  H   H2024     1.0  0.94806  0.43207  0.09618  1.0000
  H   H2025     1.0  0.91404  0.42150  0.10285  1.0000
  C   C2035     1.0  0.80444  0.57864  0.43701  1.0000
  H   H2026     1.0  0.91492  0.53932  0.02591  1.0000
  H   H2027     1.0  0.82139  0.34401  0.08241  1.0000
  Fe  Fe331     1.0  0.98861  0.44252  0.08910  1.0000
  H   H2028     1.0  0.93032  0.40762  0.17529  1.0000
  H   H2029     1.0  0.81687  0.33398  0.11033  1.0000
  Fe  Fe332     1.0  0.87168  0.33886  0.19996  1.0000
  C   C2036     1.0  0.83074  0.32584  0.26524  1.0000
  C   C2037     1.0  0.83736  0.33377  0.24379  1.0000
  H   H2030     1.0  0.93688  0.56823  0.00922  1.0000
  H   H2031     1.0  0.76045  0.41440  0.44070  1.0000
  H   H2032     1.0  0.85976  0.32900  0.11689  1.0000
  N   N168      1.0  0.96297  0.55356  0.02401  1.0000
  H   H2033     1.0  0.75586  0.45315  0.42964  1.0000
  C   C2038     1.0  0.75046  0.33638  0.38300  1.0000
  C   C2039     1.0  0.74691  0.45403  0.40079  1.0000
  H   H2034     1.0  0.75068  0.39432  0.38108  1.0000
  H   H2035     1.0  0.79495  0.33185  0.22633  1.0000
  C   C2040     1.0  0.74889  0.36904  0.26315  1.0000
  N   N169      1.0  0.74448  0.42083  0.39525  1.0000
  H   H2036     1.0  0.86523  0.33040  0.03513  1.0000
  H   H2037     1.0  0.99263  0.45217  0.00544  1.0000
  H   H2038     1.0  0.74337  0.35597  0.27545  1.0000
  S   S671      1.0  0.96577  0.56435  0.89120  1.0000
  H   H2039     1.0  0.87706  0.61351  0.85620  1.0000
  Fe  Fe333     1.0  0.80593  0.59649  0.54555  1.0000
  S   S672      1.0  0.97008  0.50429  0.90099  1.0000
  H   H2040     1.0  0.86101  0.49257  0.74833  1.0000
  H   H2041     1.0  0.95667  0.63740  0.84995  1.0000
  Fe  Fe334     1.0  0.93950  0.39865  0.95879  1.0000
  S   S673      1.0  0.91010  0.39228  0.95442  1.0000
  Fe  Fe335     1.0  0.96455  0.35530  0.95343  1.0000
  S   S674      1.0  0.93751  0.34477  0.94846  1.0000
  N   N170      1.0  0.77690  0.63729  0.61749  1.0000
  Fe  Fe336     1.0  0.93135  0.37719  0.92838  1.0000
  S   S675      1.0  0.92513  0.38459  0.89583  1.0000
  S   S676      1.0  0.75625  0.56516  0.64142  1.0000
  H   H2042     1.0  0.77345  0.61681  0.86589  1.0000
  S   S677      1.0  0.96019  0.38616  0.93113  1.0000
  C   C2041     1.0  0.87372  0.53141  0.76162  1.0000
  S   S678      1.0  0.85055  0.58847  0.76717  1.0000
  C   C2042     1.0  0.89810  0.49800  0.78399  1.0000
  S   S679      1.0  0.82009  0.60305  0.51108  1.0000
  C   C2043     1.0  0.87783  0.59105  0.83786  1.0000
  Fe  Fe337     1.0  0.82607  0.61542  0.77721  1.0000
  H   H2043     1.0  0.91946  0.59779  0.81218  1.0000
  H   H2044     1.0  0.88166  0.47885  0.77563  1.0000
  S   S680      1.0  0.93039  0.64293  0.75935  1.0000
  S   S681      1.0  0.82197  0.55740  0.74640  1.0000
  H   H2045     1.0  0.91808  0.48229  0.73169  1.0000
  H   H2046     1.0  0.75871  0.61461  0.62177  1.0000
  C   C2044     1.0  0.79488  0.54875  0.72683  1.0000
  H   H2047     1.0  0.96065  0.43135  0.92434  1.0000
  S   S682      1.0  0.81406  0.56497  0.56612  1.0000
  C   C2045     1.0  0.94283  0.46893  0.95379  1.0000
  C   C2046     1.0  0.93459  0.60081  0.81311  1.0000
  S   S683      1.0  0.81292  0.62462  0.55210  1.0000
  Fe  Fe338     1.0  0.84959  0.58147  0.66990  1.0000
  S   S684      1.0  0.85947  0.54854  0.66432  1.0000
  S   S685      1.0  0.81662  0.59965  0.67602  1.0000
  Fe  Fe339     1.0  0.89363  0.58621  0.66499  1.0000
  S   S686      1.0  0.90796  0.55422  0.65820  1.0000
  S   S687      1.0  0.91180  0.60879  0.66687  1.0000
  Fe  Fe340     1.0  0.88391  0.56142  0.63830  1.0000
  S   S688      1.0  0.89189  0.55185  0.60713  1.0000
  Fe  Fe341     1.0  0.88254  0.54410  0.68473  1.0000
  S   S689      1.0  0.89090  0.51433  0.70793  1.0000
  S   S690      1.0  0.87225  0.59474  0.64224  1.0000
  S   S691      1.0  0.87002  0.57575  0.69321  1.0000
  C   C2047     1.0  0.93535  0.51487  0.98462  1.0000
  Fe  Fe342     1.0  0.95806  0.53464  0.91277  1.0000
  H   H2048     1.0  0.81305  0.64361  0.64095  1.0000
  H   H2049     1.0  0.91122  0.60360  0.71126  1.0000
  C   C2048     1.0  0.94696  0.44917  0.94874  1.0000
  S   S692      1.0  0.74433  0.51811  0.68616  1.0000
  C   C2049     1.0  0.90049  0.51841  0.78231  1.0000
  C   C2050     1.0  0.94212  0.51779  0.73934  1.0000
  C   C2051     1.0  0.93104  0.53610  0.72847  1.0000
  C   C2052     1.0  0.91563  0.53501  0.71845  1.0000
  C   C2053     1.0  0.91086  0.51563  0.71967  1.0000
  C   C2054     1.0  0.92170  0.49732  0.73079  1.0000
  C   C2055     1.0  0.93743  0.49837  0.74053  1.0000
  H   H2050     1.0  0.93434  0.55119  0.72783  1.0000
  H   H2051     1.0  0.90726  0.54919  0.71000  1.0000
  C   C2056     1.0  0.77021  0.64065  0.74049  1.0000
  H   H2052     1.0  0.89978  0.46547  0.94618  1.0000
  C   C2057     1.0  0.79994  0.58986  0.66656  1.0000
  C   C2058     1.0  0.77836  0.59443  0.67430  1.0000
  C   C2059     1.0  0.76488  0.58688  0.66659  1.0000
  C   C2060     1.0  0.77290  0.57527  0.65070  1.0000
  C   C2061     1.0  0.79436  0.57172  0.64219  1.0000
  C   C2062     1.0  0.80796  0.57844  0.65054  1.0000
  H   H2053     1.0  0.77207  0.60370  0.68635  1.0000
  C   C2063     1.0  0.97292  0.58140  0.71464  1.0000
  H   H2054     1.0  0.97909  0.54391  0.66882  1.0000
  H   H2055     1.0  0.82456  0.57534  0.64415  1.0000
  H   H2056     1.0  0.75503  0.53478  0.77828  1.0000
  C   C2064     1.0  0.77932  0.63090  0.85748  1.0000
  H   H2057     1.0  0.81142  0.61562  0.85654  1.0000
  C   C2065     1.0  0.83609  0.56300  0.57630  1.0000
  C   C2066     1.0  0.83517  0.57470  0.59117  1.0000
  C   C2067     1.0  0.85223  0.57127  0.60088  1.0000
  C   C2068     1.0  0.87029  0.55640  0.59545  1.0000
  C   C2069     1.0  0.87134  0.54511  0.58022  1.0000
  C   C2070     1.0  0.85422  0.54829  0.57079  1.0000
  H   H2058     1.0  0.82112  0.58599  0.59555  1.0000
  H   H2059     1.0  0.85151  0.58023  0.61241  1.0000
  H   H2060     1.0  0.88534  0.53368  0.57592  1.0000
  H   H2061     1.0  0.85495  0.53917  0.55936  1.0000
  H   H2062     1.0  0.93381  0.47126  0.96911  1.0000
  C   C2071     1.0  0.77133  0.62127  0.60986  1.0000
  C   C2072     1.0  0.75143  0.61940  0.81700  1.0000
  C   C2073     1.0  0.94078  0.61406  0.60578  1.0000
  C   C2074     1.0  0.93184  0.60570  0.62653  1.0000
  C   C2075     1.0  0.92362  0.61876  0.64118  1.0000
  C   C2076     1.0  0.92435  0.64002  0.63516  1.0000
  C   C2077     1.0  0.97362  0.56328  0.70764  1.0000
  H   H2063     1.0  0.93136  0.58918  0.63115  1.0000
  H   H2064     1.0  0.96120  0.60787  0.83248  1.0000
  H   H2065     1.0  0.97985  0.54809  0.71653  1.0000
  S   S693      1.0  0.96112  0.46432  0.79182  1.0000
  N   N171      1.0  0.87155  0.51135  0.76323  1.0000
  S   S694      1.0  0.82558  0.55780  0.80586  1.0000
  H   H2066     1.0  0.78490  0.60829  0.60670  1.0000
  H   H2067     1.0  0.94734  0.60397  0.59450  1.0000
  H   H2068     1.0  0.80620  0.55225  0.71245  1.0000
  N   N172      1.0  0.88627  0.62589  0.75320  1.0000
  N   N173      1.0  0.93144  0.61821  0.82378  1.0000
  Fe  Fe343     1.0  0.82367  0.57245  0.77224  1.0000
  H   H2069     1.0  0.74878  0.64999  0.85510  1.0000
  C   C2078     1.0  0.79442  0.63268  0.62582  1.0000
  H   H2070     1.0  0.78375  0.57499  0.49251  1.0000
  S   S695      1.0  0.91551  0.55565  0.98128  1.0000
  N   N174      1.0  0.80272  0.61952  0.72643  1.0000
  H   H2071     1.0  0.95341  0.58497  0.66444  1.0000
  S   S696      1.0  0.94654  0.36852  0.98154  1.0000
  C   C2079     1.0  0.79228  0.60502  0.72525  1.0000
  C   C2080     1.0  0.85578  0.50770  0.75380  1.0000
  H   H2072     1.0  0.85319  0.52006  0.73962  1.0000
  H   H2073     1.0  0.94293  0.58607  0.82184  1.0000
  H   H2074     1.0  0.89712  0.64481  0.58975  1.0000
  H   H2075     1.0  0.94684  0.50095  0.94286  1.0000
  H   H2076     1.0  0.82921  0.62239  0.70182  1.0000
  C   C2081     1.0  0.93197  0.40879  0.88298  1.0000
  C   C2082     1.0  0.93686  0.41410  0.86100  1.0000
  C   C2083     1.0  0.94330  0.43312  0.85090  1.0000
  C   C2084     1.0  0.94432  0.44702  0.86282  1.0000
  C   C2085     1.0  0.93940  0.44165  0.88469  1.0000
  C   C2086     1.0  0.93330  0.42260  0.89478  1.0000
  H   H2077     1.0  0.93587  0.40345  0.85178  1.0000
  H   H2078     1.0  0.94709  0.43715  0.83394  1.0000
  C   C2087     1.0  0.75950  0.62573  0.73965  1.0000
  H   H2079     1.0  0.92921  0.41883  0.91172  1.0000
  S   S697      1.0  0.93936  0.42824  0.96847  1.0000
  H   H2080     1.0  0.95168  0.61754  0.67622  1.0000
  Fe  Fe344     1.0  0.78733  0.62012  0.50761  1.0000
  H   H2081     1.0  0.98659  0.40865  0.94336  1.0000
  S   S698      1.0  0.77303  0.61175  0.54192  1.0000
  C   C2088     1.0  0.90166  0.58643  0.86151  1.0000
  C   C2089     1.0  0.91159  0.56695  0.85623  1.0000
  C   C2090     1.0  0.90493  0.55979  0.84150  1.0000
  C   C2091     1.0  0.88799  0.57175  0.83228  1.0000
  C   C2092     1.0  0.94063  0.63560  0.59956  1.0000
  C   C2093     1.0  0.88473  0.59839  0.85229  1.0000
  H   H2082     1.0  0.92483  0.55775  0.86296  1.0000
  H   H2083     1.0  0.91311  0.54503  0.83699  1.0000
  H   H2084     1.0  0.86444  0.54452  0.75266  1.0000
  H   H2085     1.0  0.88061  0.60356  0.78211  1.0000
  C   C2094     1.0  0.96135  0.48295  0.91919  1.0000
  C   C2095     1.0  0.96518  0.46329  0.91386  1.0000
  C   C2096     1.0  0.95780  0.44642  0.92859  1.0000
  C   C2097     1.0  0.88821  0.53523  0.77112  1.0000
  H   H2086     1.0  0.97358  0.46115  0.89828  1.0000
  H   H2087     1.0  0.89005  0.55109  0.76974  1.0000
  N   N175      1.0  0.80680  0.52269  0.62693  1.0000
  C   C2098     1.0  0.82771  0.52250  0.62340  1.0000
  C   C2099     1.0  0.79516  0.52030  0.64695  1.0000
  C   C2100     1.0  0.83753  0.51980  0.64015  1.0000
  C   C2101     1.0  0.80443  0.51760  0.66411  1.0000
  C   C2102     1.0  0.82576  0.51734  0.66065  1.0000
  H   H2088     1.0  0.83688  0.52471  0.60755  1.0000
  H   H2089     1.0  0.95124  0.54636  0.67926  1.0000
  H   H2090     1.0  0.85409  0.51999  0.63718  1.0000
  H   H2091     1.0  0.79503  0.51617  0.67993  1.0000
  H   H2092     1.0  0.83310  0.51548  0.67381  1.0000
  S   S699      1.0  0.82771  0.60481  0.81118  1.0000
  C   C2103     1.0  0.98347  0.60316  0.95717  1.0000
  N   N176      1.0  0.89061  0.62977  0.56855  1.0000
  C   C2104     1.0  0.90592  0.61205  0.57049  1.0000
  C   C2105     1.0  0.87354  0.63007  0.56094  1.0000
  C   C2106     1.0  0.90429  0.59393  0.56492  1.0000
  C   C2107     1.0  0.87169  0.61241  0.55470  1.0000
  C   C2108     1.0  0.88716  0.59426  0.55673  1.0000
  S   S700      1.0  0.82837  0.64848  0.76097  1.0000
  Fe  Fe345     1.0  0.78162  0.64086  0.54481  1.0000
  H   H2093     1.0  0.75380  0.64860  0.69469  1.0000
  C   C2109     1.0  0.76237  0.53719  0.74473  1.0000
  H   H2094     1.0  0.85848  0.61285  0.54809  1.0000
  H   H2095     1.0  0.80479  0.61746  0.62609  1.0000
  H   H2096     1.0  0.80056  0.56357  0.62931  1.0000
  H   H2097     1.0  0.80076  0.59117  0.71904  1.0000
  H   H2098     1.0  0.80756  0.52378  0.59459  1.0000
  C   C2110     1.0  0.88336  0.49475  0.77439  1.0000
  H   H2099     1.0  0.97845  0.58018  0.72881  1.0000
  H   H2100     1.0  0.76167  0.65480  0.74616  1.0000
  C   C2111     1.0  0.99138  0.38811  0.86364  1.0000
  H   H2101     1.0  0.91952  0.61193  0.57628  1.0000
  H   H2102     1.0  0.90076  0.59439  0.75003  1.0000
  H   H2103     1.0  0.93634  0.50256  0.88000  1.0000
  H   H2104     1.0  0.96432  0.61524  0.70855  1.0000
  Fe  Fe346     1.0  0.97003  0.57291  0.92011  1.0000
  H   H2105     1.0  0.78609  0.64610  0.78377  1.0000
  H   H2106     1.0  0.90142  0.63235  0.81646  1.0000
  H   H2107     1.0  0.96838  0.36062  0.89043  1.0000
  H   H2108     1.0  0.78875  0.54412  0.60609  1.0000
  S   S701      1.0  0.97867  0.62443  0.78234  1.0000
  S   S702      1.0  0.94135  0.65711  0.69872  1.0000
  H   H2109     1.0  0.75309  0.37102  0.55668  1.0000
  H   H2110     1.0  0.77411  0.54118  0.71133  1.0000
  C   C2112     1.0  0.88176  0.64640  0.74311  1.0000
  C   C2113     1.0  0.96505  0.56101  0.98675  1.0000
  C   C2114     1.0  0.92605  0.65172  0.84313  1.0000
  H   H2111     1.0  0.93630  0.51789  0.96799  1.0000
  H   H2112     1.0  0.96829  0.60692  0.95299  1.0000
  H   H2113     1.0  0.83265  0.62434  0.72711  1.0000
  C   C2115     1.0  0.94441  0.63639  0.84271  1.0000
  H   H2114     1.0  0.96936  0.53126  0.69541  1.0000
  S   S703      1.0  0.77594  0.58705  0.83999  1.0000
  H   H2115     1.0  0.76403  0.61811  0.80366  1.0000
  C   C2116     1.0  0.99247  0.45102  0.97373  1.0000
  C   C2117     1.0  0.94686  0.61966  0.83287  1.0000
  H   H2116     1.0  0.86489  0.62949  0.78199  1.0000
  C   C2118     1.0  0.88778  0.65205  0.72127  1.0000
  C   C2119     1.0  0.96658  0.54561  0.68302  1.0000
  C   C2120     1.0  0.77057  0.60780  0.73191  1.0000
  S   S704      1.0  0.95085  0.47154  0.85084  1.0000
  C   C2121     1.0  0.79634  0.52719  0.60919  1.0000
  C   C2122     1.0  0.97318  0.35880  0.87379  1.0000
  H   H2117     1.0  0.91198  0.52120  0.78949  1.0000
  C   C2123     1.0  0.95887  0.58386  0.67861  1.0000
  H   H2118     1.0  0.77849  0.52110  0.64962  1.0000
  H   H2119     1.0  0.83271  0.59932  0.72220  1.0000
  H   H2120     1.0  0.98312  0.52956  0.86064  1.0000
  Fe  Fe347     1.0  0.97061  0.47107  0.81865  1.0000
  S   S705      1.0  0.91117  0.59734  0.87782  1.0000
  Fe  Fe348     1.0  0.93171  0.55764  0.94725  1.0000
  H   H2121     1.0  0.90782  0.48480  0.79240  1.0000
  C   C2124     1.0  0.95009  0.48571  0.93907  1.0000
  Fe  Fe349     1.0  0.93146  0.57744  0.90109  1.0000
  H   H2122     1.0  0.86140  0.64410  0.55934  1.0000
  C   C2125     1.0  0.76389  0.65656  0.61714  1.0000
  C   C2126     1.0  0.89836  0.63655  0.70975  1.0000
  C   C2127     1.0  0.80084  0.63036  0.85216  1.0000
  H   H2123     1.0  0.88580  0.58042  0.55208  1.0000
  H   H2124     1.0  0.78417  0.51767  0.61259  1.0000
  Fe  Fe350     1.0  0.82447  0.63299  0.51742  1.0000
  H   H2125     1.0  0.84065  0.50794  0.76522  1.0000
  S   S706      1.0  0.96555  0.54182  0.94047  1.0000
  H   H2126     1.0  0.78639  0.54721  0.77925  1.0000
  H   H2127     1.0  0.95741  0.56735  0.97345  1.0000
  S   S707      1.0  0.88102  0.56276  0.81281  1.0000
  Fe  Fe351     1.0  0.97615  0.49129  0.77259  1.0000
  S   S708      1.0  0.98342  0.49933  0.80003  1.0000
  C   C2128     1.0  0.79195  0.63736  0.73360  1.0000
  S   S709      1.0  0.79932  0.60057  0.77929  1.0000
  H   H2128     1.0  0.86497  0.60052  0.83073  1.0000
  H   H2129     1.0  0.97308  0.62045  0.98228  1.0000
  Fe  Fe352     1.0  0.85030  0.57651  0.80167  1.0000
  C   C2129     1.0  0.91356  0.63337  0.82381  1.0000
  H   H2130     1.0  0.96007  0.36697  0.86561  1.0000
  C   C2130     1.0  0.82546  0.61632  0.71904  1.0000
  H   H2131     1.0  0.80015  0.64909  0.73415  1.0000
  S   S710      1.0  0.92358  0.54727  0.92148  1.0000
  C   C2131     1.0  0.89952  0.46978  0.92953  1.0000
  H   H2132     1.0  0.80155  0.65809  0.57156  1.0000
  H   H2133     1.0  0.83992  0.63279  0.84404  1.0000
  H   H2134     1.0  0.88531  0.44428  0.93002  1.0000
  Fe  Fe353     1.0  0.91876  0.36076  0.97501  1.0000
  C   C2132     1.0  0.88072  0.62053  0.77620  1.0000
  N   N177      1.0  0.96624  0.56467  0.69005  1.0000
  H   H2135     1.0  0.94601  0.48417  0.74880  1.0000
  H   H2136     1.0  0.93995  0.45245  0.89387  1.0000
  S   S711      1.0  0.96192  0.51987  0.75084  1.0000
  C   C2133     1.0  0.96499  0.60103  0.70331  1.0000
  H   H2137     1.0  0.95203  0.48284  0.98665  1.0000
  H   H2138     1.0  0.76251  0.59616  0.73084  1.0000
  C   C2134     1.0  0.79849  0.55048  0.74597  1.0000
  N   N178      1.0  0.99176  0.36773  0.86341  1.0000
  H   H2139     1.0  0.91432  0.49599  0.92394  1.0000
  C   C2135     1.0  0.89138  0.45792  0.92047  1.0000
  H   H2140     1.0  0.91522  0.52234  0.89024  1.0000
  H   H2141     1.0  0.94391  0.60447  0.79697  1.0000
  Fe  Fe354     1.0  0.80295  0.58740  0.81257  1.0000
  C   C2136     1.0  0.77671  0.54249  0.72614  1.0000
  S   S712      1.0  0.93648  0.58917  0.92785  1.0000
  C   C2137     1.0  0.90790  0.48690  0.91686  1.0000
  C   C2138     1.0  0.95798  0.60232  0.68513  1.0000
  C   C2139     1.0  0.78370  0.54607  0.76441  1.0000
  H   H2142     1.0  0.74993  0.63960  0.66261  1.0000
  C   C2140     1.0  0.98623  0.61082  0.97377  1.0000
  H   H2143     1.0  0.90171  0.48372  0.86981  1.0000
  C   C2141     1.0  0.91913  0.50859  0.88260  1.0000
  C   C2142     1.0  0.90045  0.48036  0.88670  1.0000
  H   H2144     1.0  0.88595  0.45381  0.89165  1.0000
  N   N179      1.0  0.90845  0.49187  0.89572  1.0000
  H   H2145     1.0  0.91466  0.51411  0.86701  1.0000
  C   C2143     1.0  0.89161  0.46335  0.89896  1.0000
  S   S713      1.0  0.85488  0.64486  0.50725  1.0000
  H   H2146     1.0  0.97598  0.34179  0.87382  1.0000
  H   H2147     1.0  0.90339  0.64077  0.69280  1.0000
  C   C2144     1.0  0.89689  0.61061  0.74205  1.0000
  H   H2148     1.0  0.91778  0.65015  0.64641  1.0000
  H   H2149     1.0  0.89215  0.62457  0.78300  1.0000
  H   H2150     1.0  0.97747  0.39754  0.87146  1.0000
  C   C2145     1.0  0.93268  0.64842  0.61433  1.0000
  H   H2151     1.0  0.91615  0.57969  0.56704  1.0000
  H   H2152     1.0  0.76573  0.62821  0.59493  1.0000
  S   S714      1.0  0.94866  0.64698  0.57312  1.0000
  C   C2146     1.0  0.90293  0.61568  0.72016  1.0000
  C   C2147     1.0  0.76590  0.53911  0.76382  1.0000
  H   H2153     1.0  0.74825  0.59051  0.67264  1.0000
  C   C2148     1.0  0.98957  0.64828  0.80410  1.0000
  C   C2149     1.0  0.89315  0.64865  0.57395  1.0000
  C   C2150     1.0  0.76549  0.64952  0.85148  1.0000
  C   C2151     1.0  0.91052  0.65026  0.83358  1.0000
  N   N180      1.0  0.80840  0.64799  0.84135  1.0000
  C   C2152     1.0  0.98636  0.55217  0.98369  1.0000
  C   C2153     1.0  0.79926  0.64753  0.63413  1.0000
  H   H2154     1.0  0.83648  0.64746  0.81825  1.0000
  H   H2155     1.0  0.89949  0.32521  0.97277  1.0000
  C   C2154     1.0  0.75333  0.60623  0.83653  1.0000
  S   S715      1.0  0.79332  0.65090  0.51030  1.0000
  H   H2156     1.0  0.98959  0.46794  0.96837  1.0000
  Fe  Fe355     1.0  0.95585  0.65203  0.76875  1.0000
  C   C2155     1.0  0.83101  0.64718  0.83538  1.0000
  H   H2157     1.0  0.97995  0.49658  0.85534  1.0000
  H   H2158     1.0  0.90609  0.65508  0.56226  1.0000
  H   H2159     1.0  0.74607  0.37259  0.52165  1.0000
  H   H2160     1.0  0.89220  0.65687  0.50899  1.0000
  C   C2156     1.0  0.99272  0.62865  0.79899  1.0000
  H   H2161     1.0  0.95020  0.96627  0.40081  1.0000
  Fe  Fe356     1.0  0.97388  0.95253  0.30336  1.0000
  C   C2157     1.0  0.94090  0.95311  0.43375  1.0000
  H   H2162     1.0  0.86889  0.79280  0.47841  1.0000
  C   C2158     1.0  0.88087  0.97158  0.44368  1.0000
  H   H2163     1.0  0.96026  0.84596  0.42580  1.0000
  C   C2159     1.0  0.99129  0.83659  0.43250  1.0000
  C   C2160     1.0  0.97629  0.83835  0.42075  1.0000
  H   H2164     1.0  0.95787  0.93065  0.37836  1.0000
  S   S716      1.0  0.98352  0.91981  0.29728  1.0000
  H   H2165     1.0  0.97598  0.91728  0.40838  1.0000
  C   C2161     1.0  0.93545  0.95679  0.45420  1.0000
  C   C2162     1.0  0.91689  0.95377  0.37735  1.0000
  C   C2163     1.0  0.88241  0.78402  0.48501  1.0000
  C   C2164     1.0  0.93594  0.97643  0.45746  1.0000
  H   H2166     1.0  0.87843  0.96065  0.43553  1.0000
  Fe  Fe357     1.0  0.95191  0.86453  0.46115  1.0000
  S   S717      1.0  0.92428  0.85158  0.46192  1.0000
  H   H2167     1.0  0.93184  0.97950  0.47318  1.0000
  H   H2168     1.0  0.92269  0.94177  0.34909  1.0000
  H   H2169     1.0  0.97069  0.83247  0.39272  1.0000
  C   C2165     1.0  0.91823  0.93844  0.36605  1.0000
  H   H2170     1.0  0.84933  0.83274  0.48274  1.0000
  Fe  Fe358     1.0  0.91333  0.88360  0.44326  1.0000
  S   S718      1.0  0.90338  0.88952  0.41261  1.0000
  S   S719      1.0  0.94252  0.89508  0.44017  1.0000
  C   C2166     1.0  0.91353  0.91878  0.37679  1.0000
  C   C2167     1.0  0.90708  0.92962  0.40995  1.0000
  C   C2168     1.0  0.94641  0.96908  0.41664  1.0000
  H   H2171     1.0  0.90305  0.92623  0.42691  1.0000
  N   N181      1.0  0.98681  0.88502  0.36527  1.0000
  H   H2172     1.0  0.98400  0.88113  0.33547  1.0000
  C   C2169     1.0  0.90809  0.91433  0.39879  1.0000
  H   H2173     1.0  0.94037  0.93820  0.43097  1.0000
  S   S720      1.0  0.97834  0.95614  0.33405  1.0000
  Fe  Fe359     1.0  0.99137  0.98401  0.31456  1.0000
  Fe  Fe360     1.0  0.92595  0.90666  0.46956  1.0000
  C   C2170     1.0  0.97285  0.90381  0.36398  1.0000
  C   C2171     1.0  0.91118  0.94935  0.39921  1.0000
  S   S721      1.0  0.94100  0.97166  0.30612  1.0000
  S   S722      1.0  0.92709  0.93760  0.47590  1.0000
  C   C2172     1.0  0.98219  0.83069  0.40204  1.0000
  S   S723      1.0  0.98479  0.84694  0.45526  1.0000
  H   H2174     1.0  0.91445  0.90692  0.36812  1.0000
  C   C2173     1.0  0.88085  0.96578  0.46518  1.0000
  H   H2175     1.0  0.91054  0.96107  0.40783  1.0000
  S   S724      1.0  0.89566  0.89751  0.47143  1.0000
  C   C2174     1.0  0.96894  0.91578  0.37936  1.0000
  S   S725      1.0  0.92280  0.97841  0.36477  1.0000
  H   H2176     1.0  0.96463  0.90964  0.35105  1.0000
  Fe  Fe361     1.0  0.94701  0.97751  0.33512  1.0000
  H   H2177     1.0  0.87879  0.95009  0.47339  1.0000
  C   C2175     1.0  0.99031  0.87211  0.34962  1.0000
  H   H2178     1.0  0.87567  0.85092  0.48606  1.0000
  C   C2176     1.0  0.89966  0.79337  0.48139  1.0000
  N   N182      1.0  0.88427  0.97935  0.47549  1.0000
  H   H2179     1.0  0.98262  0.85842  0.35657  1.0000
  H   H2180     1.0  0.89949  0.80916  0.47206  1.0000
  H   H2181     1.0  0.93042  0.78943  0.48745  1.0000
  H   H2182     1.0  0.90273  0.99069  0.24363  1.0000
  C   C2177     1.0  0.97918  0.90829  0.39620  1.0000
  S   S726      1.0  0.98893  0.97923  0.28353  1.0000
  H   H2183     1.0  0.99224  0.98059  0.39165  1.0000
  C   C2178     1.0  0.94602  0.98895  0.41987  1.0000
  C   C2179     1.0  0.88477  0.99124  0.43264  1.0000
  Fe  Fe362     1.0  0.79502  0.75715  0.82055  1.0000
  S   S727      1.0  0.79165  0.75726  0.78821  1.0000
  S   S728      1.0  0.82738  0.74751  0.82710  1.0000
  H   H2184     1.0  0.77719  0.69057  0.52415  1.0000
  S   S729      1.0  0.96446  0.74746  0.53075  1.0000
  Fe  Fe363     1.0  0.76347  0.74351  0.80540  1.0000
  Fe  Fe364     1.0  0.77031  0.78838  0.79067  1.0000
  S   S730      1.0  0.77008  0.81841  0.76686  1.0000
  S   S731      1.0  0.76821  0.74130  0.83776  1.0000
  S   S732      1.0  0.77609  0.78964  0.82152  1.0000
  H   H2185     1.0  0.81842  0.68068  0.58299  1.0000
  C   C2180     1.0  0.87650  0.83506  0.51807  1.0000
  C   C2181     1.0  0.79336  0.67375  0.57303  1.0000
  C   C2182     1.0  0.75727  0.85754  0.68589  1.0000
  S   S733      1.0  0.74729  0.80501  0.71743  1.0000
  H   H2186     1.0  0.88191  0.95686  0.50464  1.0000
  C   C2183     1.0  0.77407  0.85881  0.66872  1.0000
  C   C2184     1.0  0.98918  0.82958  0.50752  1.0000
  C   C2185     1.0  0.97483  0.92220  0.49714  1.0000
  S   S734      1.0  0.93434  0.67750  0.78452  1.0000
  H   H2187     1.0  0.75700  0.67288  0.79809  1.0000
  C   C2186     1.0  0.79494  0.66635  0.83544  1.0000
  Fe  Fe365     1.0  0.91598  0.71644  0.59369  1.0000
  C   C2187     1.0  0.95930  0.77234  0.55965  1.0000
  Fe  Fe366     1.0  0.94035  0.69818  0.75245  1.0000
  S   S735      1.0  0.94433  0.73138  0.74664  1.0000
  S   S736      1.0  0.91348  0.69285  0.74193  1.0000
  S   S737      1.0  0.90734  0.72612  0.62501  1.0000
  H   H2188     1.0  0.89527  0.79940  0.72520  1.0000
  H   H2189     1.0  0.89624  0.66216  0.83365  1.0000
  S   S738      1.0  0.97166  0.91363  0.60517  1.0000
  H   H2190     1.0  0.87874  0.66114  0.57407  1.0000
  H   H2191     1.0  0.82594  0.67616  0.52983  1.0000
  Fe  Fe367     1.0  0.86800  0.83201  0.68691  1.0000
  S   S739      1.0  0.86732  0.80064  0.68159  1.0000
  S   S740      1.0  0.85749  0.84031  0.71880  1.0000
  Fe  Fe368     1.0  0.88406  0.84934  0.64075  1.0000
  S   S741      1.0  0.88428  0.81950  0.63150  1.0000
  S   S742      1.0  0.89146  0.87668  0.61455  1.0000
  Fe  Fe369     1.0  0.85345  0.81939  0.65396  1.0000
  S   S743      1.0  0.82683  0.81226  0.64428  1.0000
  Fe  Fe370     1.0  0.89812  0.80368  0.65986  1.0000
  S   S744      1.0  0.92428  0.77584  0.65745  1.0000
  S   S745      1.0  0.85174  0.85074  0.66079  1.0000
  S   S746      1.0  0.90034  0.83345  0.66760  1.0000
  C   C2188     1.0  0.95659  0.89300  0.55663  1.0000
  H   H2192     1.0  0.90622  0.79109  0.74874  1.0000
  H   H2193     1.0  0.97555  0.79245  0.49146  1.0000
  S   S747      1.0  0.86967  0.71647  0.54536  1.0000
  H   H2194     1.0  0.92389  0.66472  0.85080  1.0000
  C   C2189     1.0  0.93251  0.68972  0.64120  1.0000
  S   S748      1.0  0.93204  0.70268  0.53833  1.0000
  H   H2195     1.0  0.95465  0.90818  0.54603  1.0000
  C   C2190     1.0  0.80515  0.80856  0.66480  1.0000
  H   H2196     1.0  0.75077  0.76731  0.70343  1.0000
  H   H2197     1.0  0.97779  0.97323  0.49023  1.0000
  C   C2191     1.0  0.84647  0.81463  0.51440  1.0000
  C   C2192     1.0  0.78806  0.80700  0.70135  1.0000
  C   C2193     1.0  0.80592  0.80853  0.68538  1.0000
  C   C2194     1.0  0.84175  0.67792  0.52849  1.0000
  C   C2195     1.0  0.76242  0.70125  0.57194  1.0000
  H   H2198     1.0  0.78844  0.80752  0.71712  1.0000
  H   H2199     1.0  0.82009  0.81016  0.68896  1.0000
  C   C2196     1.0  0.94818  0.90471  0.60946  1.0000
  C   C2197     1.0  0.93343  0.91472  0.59692  1.0000
  C   C2198     1.0  0.91579  0.90629  0.59907  1.0000
  C   C2199     1.0  0.91272  0.88783  0.61380  1.0000
  C   C2200     1.0  0.92719  0.87810  0.62675  1.0000
  C   C2201     1.0  0.94484  0.88657  0.62461  1.0000
  H   H2200     1.0  0.93581  0.92871  0.58519  1.0000
  H   H2201     1.0  0.90463  0.91394  0.58906  1.0000
  H   H2202     1.0  0.92496  0.86390  0.63817  1.0000
  H   H2203     1.0  0.95606  0.87887  0.63455  1.0000
  C   C2202     1.0  0.91034  0.71032  0.66621  1.0000
  C   C2203     1.0  0.91791  0.69517  0.68269  1.0000
  H   H2204     1.0  0.89901  0.72427  0.66957  1.0000
  H   H2205     1.0  0.91225  0.69745  0.69862  1.0000
  C   C2204     1.0  0.94107  0.74379  0.72104  1.0000
  C   C2205     1.0  0.93657  0.76575  0.71547  1.0000
  C   C2206     1.0  0.93114  0.77574  0.69600  1.0000
  C   C2207     1.0  0.93127  0.76375  0.68170  1.0000
  C   C2208     1.0  0.93706  0.74187  0.68675  1.0000
  C   C2209     1.0  0.94157  0.73188  0.70654  1.0000
  H   H2206     1.0  0.93676  0.77497  0.72643  1.0000
  H   H2207     1.0  0.92713  0.79269  0.69193  1.0000
  H   H2208     1.0  0.93745  0.73259  0.67560  1.0000
  H   H2209     1.0  0.94541  0.71494  0.71052  1.0000
  C   C2210     1.0  0.77201  0.67696  0.79032  1.0000
  C   C2211     1.0  0.77216  0.71427  0.57789  1.0000
  C   C2212     1.0  0.78164  0.74145  0.50725  1.0000
  C   C2213     1.0  0.77301  0.68102  0.56934  1.0000
  C   C2214     1.0  0.91678  0.76225  0.50241  1.0000
  H   H2210     1.0  0.87133  0.72989  0.81808  1.0000
  C   C2215     1.0  0.76936  0.80571  0.69690  1.0000
  C   C2216     1.0  0.77507  0.69719  0.78884  1.0000
  H   H2211     1.0  0.82553  0.69157  0.76169  1.0000
  C   C2217     1.0  0.80284  0.68648  0.57977  1.0000
  C   C2218     1.0  0.97260  0.76357  0.54300  1.0000
  H   H2212     1.0  0.77717  0.74170  0.74784  1.0000
  S   S749      1.0  0.78971  0.76455  0.54240  1.0000
  C   C2219     1.0  0.79547  0.82283  0.75580  1.0000
  C   C2220     1.0  0.81027  0.80868  0.74468  1.0000
  C   C2221     1.0  0.82919  0.81414  0.73280  1.0000
  C   C2222     1.0  0.83385  0.83318  0.73314  1.0000
  C   C2223     1.0  0.81963  0.84664  0.74541  1.0000
  C   C2224     1.0  0.80032  0.84166  0.75642  1.0000
  H   H2213     1.0  0.80674  0.79392  0.74447  1.0000
  H   H2214     1.0  0.84028  0.80347  0.72368  1.0000
  H   H2215     1.0  0.82330  0.86125  0.74590  1.0000
  H   H2216     1.0  0.78902  0.85256  0.76515  1.0000
  Fe  Fe371     1.0  0.93707  0.66645  0.72960  1.0000
  N   N183      1.0  0.88239  0.76427  0.49701  1.0000
  H   H2217     1.0  0.93181  0.85226  0.57963  1.0000
  H   H2218     1.0  0.86786  0.87423  0.55268  1.0000
  H   H2219     1.0  0.98698  0.86451  0.60837  1.0000
  H   H2220     1.0  0.90077  0.97271  0.50013  1.0000
  H   H2221     1.0  0.94890  0.74942  0.63159  1.0000
  Fe  Fe372     1.0  0.90944  0.67009  0.77262  1.0000
  Fe  Fe373     1.0  0.94166  0.72677  0.55016  1.0000
  C   C2225     1.0  0.98507  0.79241  0.55921  1.0000
  C   C2226     1.0  0.79444  0.70234  0.77862  1.0000
  H   H2222     1.0  0.97782  0.66114  0.79826  1.0000
  H   H2223     1.0  0.79698  0.71787  0.77726  1.0000
  C   C2227     1.0  0.84121  0.72485  0.81759  1.0000
  C   C2228     1.0  0.83058  0.71218  0.81232  1.0000
  C   C2229     1.0  0.84183  0.69448  0.80404  1.0000
  H   H2224     1.0  0.83485  0.66084  0.83900  1.0000
  S   S750      1.0  0.77535  0.82311  0.60255  1.0000
  C   C2230     1.0  0.86308  0.71995  0.81426  1.0000
  H   H2225     1.0  0.81371  0.71606  0.81462  1.0000
  H   H2226     1.0  0.83365  0.68476  0.79987  1.0000
  H   H2227     1.0  0.83928  0.84756  0.61529  1.0000
  H   H2228     1.0  0.84228  0.86389  0.53881  1.0000
  C   C2231     1.0  0.97221  0.77792  0.62516  1.0000
  C   C2232     1.0  0.84534  0.69375  0.53669  1.0000
  H   H2229     1.0  0.75615  0.83800  0.64040  1.0000
  Fe  Fe374     1.0  0.95549  0.97255  0.54384  1.0000
  C   C2233     1.0  0.87434  0.70242  0.80564  1.0000
  Fe  Fe375     1.0  0.80520  0.79112  0.53990  1.0000
  H   H2230     1.0  0.94178  0.80455  0.51443  1.0000
  C   C2234     1.0  0.85462  0.82927  0.49740  1.0000
  N   N184      1.0  0.97541  0.86753  0.58107  1.0000
  S   S751      1.0  0.81065  0.78098  0.57275  1.0000
  C   C2235     1.0  0.85333  0.81022  0.53331  1.0000
  H   H2231     1.0  0.75321  0.71806  0.75742  1.0000
  H   H2232     1.0  0.75805  0.68721  0.62449  1.0000
  C   C2236     1.0  0.79226  0.70680  0.58209  1.0000
  S   S752      1.0  0.90345  0.69190  0.58639  1.0000
  C   C2237     1.0  0.78846  0.66177  0.78221  1.0000
  Fe  Fe376     1.0  0.93631  0.68176  0.56940  1.0000
  H   H2233     1.0  0.96920  0.84876  0.52908  1.0000
  C   C2238     1.0  0.74389  0.83694  0.63334  1.0000
  S   S753      1.0  0.76113  0.77562  0.58768  1.0000
  H   H2234     1.0  0.89764  0.75854  0.73599  1.0000
  Fe  Fe377     1.0  0.97379  0.94258  0.57954  1.0000
  C   C2239     1.0  0.84002  0.85112  0.59850  1.0000
  H   H2235     1.0  0.95134  0.66063  0.65418  1.0000
  Fe  Fe378     1.0  0.79244  0.75629  0.57615  1.0000
  C   C2240     1.0  0.86368  0.68952  0.80080  1.0000
  S   S754      1.0  0.92926  0.97626  0.52757  1.0000
  H   H2236     1.0  0.95206  0.95123  0.49469  1.0000
  H   H2237     1.0  0.74561  0.94532  0.83291  1.0000
  Fe  Fe379     1.0  0.77912  0.80126  0.58113  1.0000
  H   H2238     1.0  0.80670  0.86012  0.65866  1.0000
  C   C2241     1.0  0.94373  0.86165  0.57552  1.0000
  C   C2242     1.0  0.94167  0.88059  0.56097  1.0000
  N   N185      1.0  0.75187  0.71639  0.51911  1.0000
  C   C2243     1.0  0.78765  0.71972  0.51323  1.0000
  C   C2244     1.0  0.77867  0.85848  0.70860  1.0000
  S   S755      1.0  0.76006  0.66482  0.56256  1.0000
  C   C2245     1.0  0.80776  0.66705  0.77177  1.0000
  H   H2239     1.0  0.74671  0.70690  0.56922  1.0000
  S   S756      1.0  0.82891  0.80101  0.51107  1.0000
  H   H2240     1.0  0.75557  0.76755  0.50393  1.0000
  C   C2246     1.0  0.96547  0.78681  0.56761  1.0000
  H   H2241     1.0  0.92813  0.88600  0.55367  1.0000
  S   S757      1.0  0.94780  0.97079  0.57859  1.0000
  H   H2242     1.0  0.79583  0.85226  0.56559  1.0000
  H   H2243     1.0  0.83109  0.77796  0.78497  1.0000
  H   H2244     1.0  0.84738  0.79868  0.54636  1.0000
  C   C2247     1.0  0.88298  0.76296  0.74658  1.0000
  S   S758      1.0  0.96442  0.67339  0.73779  1.0000
  C   C2248     1.0  0.79584  0.85960  0.69184  1.0000
  H   H2245     1.0  0.96214  0.84074  0.59701  1.0000
  H   H2246     1.0  0.81097  0.85985  0.69455  1.0000
  H   H2247     1.0  0.84062  0.74297  0.77522  1.0000
  C   C2249     1.0  0.89157  0.79715  0.74262  1.0000
  H   H2248     1.0  0.89915  0.73783  0.51537  1.0000
  H   H2249     1.0  0.88445  0.81291  0.74644  1.0000
  C   C2250     1.0  0.97409  0.80507  0.49941  1.0000
  C   C2251     1.0  0.96319  0.74688  0.61990  1.0000
  H   H2250     1.0  0.76270  0.68201  0.83577  1.0000
  H   H2251     1.0  0.87443  0.73304  0.75107  1.0000
  C   C2252     1.0  0.96079  0.85534  0.58550  1.0000
  C   C2253     1.0  0.85518  0.86168  0.58498  1.0000
  H   H2252     1.0  0.93282  0.66490  0.60958  1.0000
  H   H2253     1.0  0.85470  0.75654  0.51749  1.0000
  C   C2254     1.0  0.82593  0.84507  0.59020  1.0000
  S   S759      1.0  0.75429  0.71590  0.79936  1.0000
  C   C2255     1.0  0.79345  0.85981  0.67176  1.0000
  H   H2254     1.0  0.75269  0.83706  0.87184  1.0000
  S   S760      1.0  0.77505  0.81351  0.54800  1.0000
  H   H2255     1.0  0.81574  0.84549  0.54330  1.0000
  H   H2256     1.0  0.79322  0.75126  0.50269  1.0000
  H   H2257     1.0  0.80392  0.71249  0.51355  1.0000
  C   C2256     1.0  0.91745  0.70747  0.64545  1.0000
  H   H2258     1.0  0.93841  0.83288  0.53322  1.0000
  C   C2257     1.0  0.86959  0.83950  0.49922  1.0000
  H   H2259     1.0  0.98333  0.97542  0.63002  1.0000
  H   H2260     1.0  0.89122  0.69879  0.80305  1.0000
  Fe  Fe380     1.0  0.74865  0.77402  0.83552  1.0000
  C   C2258     1.0  0.97037  0.83655  0.52074  1.0000
  H   H2261     1.0  0.95726  0.78834  0.62185  1.0000
  N   N186      1.0  0.75367  0.74343  0.73094  1.0000
  C   C2259     1.0  0.74899  0.83037  0.61422  1.0000
  H   H2262     1.0  0.85344  0.76302  0.49017  1.0000
  N   N187      1.0  0.97703  0.76000  0.61485  1.0000
  C   C2260     1.0  0.78660  0.80654  0.66042  1.0000
  C   C2261     1.0  0.89923  0.75342  0.50576  1.0000
  S   S761      1.0  0.89470  0.84826  0.52077  1.0000
  H   H2263     1.0  0.95494  0.79373  0.58026  1.0000
  S   S762      1.0  0.97977  0.94270  0.54519  1.0000
  N   N188      1.0  0.87743  0.78237  0.75166  1.0000
  N   N189      1.0  0.86013  0.75731  0.61517  1.0000
  C   C2262     1.0  0.85725  0.73806  0.62701  1.0000
  C   C2263     1.0  0.85920  0.76225  0.59434  1.0000
  C   C2264     1.0  0.85295  0.72332  0.61811  1.0000
  C   C2265     1.0  0.85491  0.74787  0.58497  1.0000
  C   C2266     1.0  0.85170  0.72834  0.59698  1.0000
  C   C2267     1.0  0.86557  0.77213  0.62458  1.0000
  H   H2264     1.0  0.85896  0.73380  0.64325  1.0000
  H   H2265     1.0  0.86191  0.77732  0.58483  1.0000
  H   H2266     1.0  0.89849  0.68403  0.52445  1.0000
  H   H2267     1.0  0.85414  0.75172  0.56847  1.0000
  H   H2268     1.0  0.84835  0.71710  0.58981  1.0000
  H   H2269     1.0  0.86079  0.78861  0.61641  1.0000
  H   H2270     1.0  0.85739  0.77112  0.64129  1.0000
  H   H2271     1.0  0.88272  0.76857  0.62385  1.0000
  C   C2268     1.0  0.81061  0.68743  0.76975  1.0000
  C   C2269     1.0  0.77330  0.66744  0.84056  1.0000
  S   S763      1.0  0.94928  0.70439  0.57940  1.0000
  H   H2272     1.0  0.75423  0.80427  0.67280  1.0000
  C   C2270     1.0  0.86579  0.69598  0.53546  1.0000
  C   C2271     1.0  0.85097  0.75401  0.76864  1.0000
  S   S764      1.0  0.80391  0.72270  0.59065  1.0000
  C   C2272     1.0  0.95499  0.81179  0.51238  1.0000
  C   C2273     1.0  0.96706  0.73004  0.60989  1.0000
  C   C2274     1.0  0.86987  0.74848  0.75499  1.0000
  H   H2273     1.0  0.77228  0.85839  0.65326  1.0000
  H   H2274     1.0  0.88455  0.66835  0.71330  1.0000
  H   H2275     1.0  0.83220  0.70426  0.54415  1.0000
  H   H2276     1.0  0.95587  0.71987  0.61397  1.0000
  H   H2277     1.0  0.85467  0.80311  0.76948  1.0000
  S   S765      1.0  0.90877  0.74007  0.56484  1.0000
  C   C2275     1.0  0.77245  0.70738  0.51920  1.0000
  C   C2276     1.0  0.85911  0.78775  0.76539  1.0000
  C   C2277     1.0  0.84560  0.77367  0.77405  1.0000
  H   H2278     1.0  0.86632  0.86625  0.59123  1.0000
  Fe  Fe381     1.0  0.89973  0.71385  0.55592  1.0000
  H   H2279     1.0  0.76396  0.72994  0.57974  1.0000
  H   H2280     1.0  0.80086  0.68027  0.82657  1.0000
  C   C2278     1.0  0.93255  0.67708  0.67843  1.0000
  C   C2279     1.0  0.97337  0.88627  0.56704  1.0000
  C   C2280     1.0  0.86839  0.82039  0.53512  1.0000
  H   H2281     1.0  0.93852  0.68776  0.62523  1.0000
  C   C2281     1.0  0.76861  0.80531  0.67642  1.0000
  H   H2282     1.0  0.87377  0.81690  0.54971  1.0000
  H   H2283     1.0  0.78061  0.85811  0.72418  1.0000
  H   H2284     1.0  0.75281  0.80726  0.85647  1.0000
  C   C2282     1.0  0.76056  0.75058  0.50772  1.0000
  C   C2283     1.0  0.85862  0.66468  0.51824  1.0000
  H   H2285     1.0  0.94404  0.76839  0.56604  1.0000
  C   C2284     1.0  0.85595  0.86629  0.56340  1.0000
  H   H2286     1.0  0.81429  0.83666  0.60085  1.0000
  C   C2285     1.0  0.84145  0.86030  0.55564  1.0000
  H   H2287     1.0  0.85089  0.70800  0.62744  1.0000
  H   H2288     1.0  0.78602  0.80637  0.64453  1.0000
  H   H2289     1.0  0.81180  0.82627  0.56703  1.0000
  C   C2286     1.0  0.88266  0.68240  0.52568  1.0000
  C   C2287     1.0  0.95316  0.82760  0.52311  1.0000
  Fe  Fe382     1.0  0.97281  0.98938  0.57198  1.0000
  S   S766      1.0  0.87733  0.66680  0.79127  1.0000
  N   N190      1.0  0.82686  0.84961  0.56899  1.0000
  C   C2288     1.0  0.81186  0.84319  0.56072  1.0000
  C   C2289     1.0  0.76831  0.67186  0.62515  1.0000
  C   C2290     1.0  0.93992  0.67449  0.65763  1.0000
  H   H2290     1.0  0.78985  0.67915  0.63967  1.0000
  N   N191      1.0  0.75973  0.85749  0.70551  1.0000
  Fe  Fe383     1.0  0.75982  0.78601  0.55349  1.0000
  H   H2291     1.0  0.97042  0.77234  0.64245  1.0000
  C   C2291     1.0  0.88493  0.97295  0.49789  1.0000
  H   H2292     1.0  0.77673  0.76210  0.72474  1.0000
  C   C2292     1.0  0.87906  0.66706  0.51684  1.0000
  C   C2293     1.0  0.76669  0.75345  0.73821  1.0000
  H   H2293     1.0  0.93014  0.75355  0.50933  1.0000
  C   C2294     1.0  0.78615  0.66731  0.63365  1.0000
  H   H2294     1.0  0.87317  0.98403  0.50684  1.0000
  H   H2295     1.0  0.98916  0.93778  0.62883  1.0000
  C   C2295     1.0  0.98514  0.72671  0.59450  1.0000
  H   H2296     1.0  0.86842  0.73810  0.50070  1.0000
  C   C2296     1.0  0.74647  0.75277  0.71281  1.0000
  H   H2297     1.0  0.74604  0.84086  0.73483  1.0000
  H   H2298     1.0  0.98449  0.89633  0.56428  1.0000
  H   H2299     1.0  0.96366  0.91261  0.49835  1.0000
  C   C2297     1.0  0.99267  0.86096  0.59239  1.0000
  H   H2300     1.0  0.98812  0.71394  0.58631  1.0000
  S   S767      1.0  0.93831  0.87698  0.49062  1.0000
  H   H2301     1.0  0.98454  0.78746  0.61954  1.0000
  H   H2302     1.0  0.75654  0.76486  0.74784  1.0000
  C   C2298     1.0  0.74785  0.72532  0.74293  1.0000
  C   C2299     1.0  0.96834  0.94394  0.49458  1.0000
  C   C2300     1.0  0.98282  0.95632  0.49220  1.0000
  C   C2301     1.0  0.86387  0.75502  0.50147  1.0000
  N   N192      1.0  0.99086  0.81401  0.49709  1.0000
  C   C2302     1.0  0.99233  0.76889  0.53489  1.0000
  S   S768      1.0  0.99250  0.81039  0.56981  1.0000
  C   C2303     1.0  0.74583  0.73771  0.51362  1.0000
  Fe  Fe384     1.0  0.90957  0.86647  0.48995  1.0000
  C   C2304     1.0  0.91695  0.78237  0.49015  1.0000
  H   H2303     1.0  0.75014  0.66032  0.61028  1.0000
  H   H2304     1.0  0.87344  0.65853  0.75198  1.0000
