data_image0
_chemical_formula_structural       FeS2FeSFeCFeS4C2SCSFeS2CSFeHFeS3FeSFeS2FeSFeS3C2HC6H4CHC2HC6H5FeH2C6H4C6H5C3H2CHCHCHC2H3SHCHCSHCH2C3H3NC6H9NH2NHC2HCHC3NH3CH3CNHCHCHSFeS3FeCFeS2FeS2FeS2FeSFeS4FeS2FeSCFe2S3CH2C2H3C6H4C3H2C6H4C6H4NCHC6H6CH2CHCHC5H6NC5NC5H4CHSHCHC3HNCH2CH2NH2SH2CSFeCH4CHC3HCH5CH3SFeS3FeSFeS2H2FeS2FeSFeS2FeS2FeS2Fe2S3H3C6H3SC6H5CHCSNC7H2FeHC5HC6H4CH4CH2CSH2CH3CNCHC3HCHCHNHCNC6H8CH2C2HC5H4C3H5SCH3C2NCH7C3H2C3SCH5NCH3C2HFeHCFeS2FeS4CSFeS2FeSFeS3H2SCFeSFeS2FeSFeS3HC2H3NHC2H2CHFeHC6H4CSC6H4C6H4C6H5C2HCHCH2NCHCHC4HSC3HCHNC2NC6H3CH5C3HNH3CHSHCHC2H2C2H2NCH2CFeH4CHCH2C2SFeS2FeSFeCS2H2SFeS2FeSFeSFeS3HSFeS2FeSFe2S2CSHSC8H4CHCNHC6H4C7HCH4SC6H6CNH2NHC2HCH4C4FeNHCHFeHC2HCNCH2CH3CH7C2HC2H4C4NC2HCHCH3CHCNHC2HCHC3HC2H2CH2C2H2CHFeH2CHCHFeS2CSFeHFeS3FeSFeS2FeSFeS5FeS2FeSFeS4C2NC2HCNCNC6H4C6H4C2FeH2C6H8C6H4CH2CH3CHCHC2HCHCHCH4NHCH2CH2CNC2HC3HC3HCHC2SHCH5CHCH7C2H2CHCHNCFeHCHC2HNCH7C2H2CH2CHSFeS2FeS2Fe2S3CFeS2FeSFeSCSHFeS2FeSFeS2CH2CH3C6H5C7H8C6H4C2H2C2HSHC6H5N2C6H7NC6H5CH2SCSCH4C2S2H2C2HC2HCHC2H2SCNHNCHCHC4HNHC3SC2HCHC2HCHFeC3H3NHCHCHFeH2C3SCFeS2FeSFeCFeS3FeS2FeH3FeS3HFeS2FeS2CFeS3HCHC3H2CH4C6H4CSC7H4C6H4C3H2C6H6CHNC2H3NC4H3C2SH2SHCHC2HCNH3C2NH2CHC2HC3NHSH3NCHNC5H7C3H2C4HCH3CFeC2H3C3H4FeH2SCH2CSC3H3SFeS2FeS2FeSFeS2FeSCFeS2FeSFeS3HFeS2FeCFeSCSHCHCH2CH4CHC6H4C6H4C6H4C6H4C5NCHC3HC2HC2NHSH2CH3CH2CH2FeCHN2H2C4SCH4C2SH3C3HC2HC2H3CNCH4SHCHC2H4FeHC2HCHNFeS2FeS2HFeS3HSHSFeSFeS2FeSFeS3FeS2HSFeHFeS3H2C6H4C6H6CH2C6H4C6H4CH3C2NH4C2NCH2CH5FeCSHNHFeHC2NC6H3CH4NC6H4CHC2HCNHCH2C2HC2HCHC3SCHCHC2H3CH2CH3CSHSFeS2FeSFeHSFeS2FeS2FeSFeS2HFeS2CSFeSFeS3C2HCHCSCH2C7H4C6H4CH3C7H4C7H6C2NCH2CS2NC2HC2HCHCH2CHCH2C2H5C3H2CNHCHCHC2HCHSCH2CSHCH2C3H2CHCFeHC2HC2N2H2NC2HCH2NCH2C2H2FeHC2H2CHCH3CFeS2FeSFeSFeS5HFeS3FeSFeSCS2FeS2FeSFeHSCHC7H5C10H6CHC6H7SC6H2CHCHC3HCH2NCHCH3CH4CHCHCSHCSCH2CSHCHCH5C2H3CH2CH2CH2CN2C4HC2FeH2CNHCHCN2C3HCH2FeC2H3CH4C2H4CHC2HSCSHFeS2FeS2FeSFeS2FeHFeS2FeS4FeS2FeS2Fe2S3CHCHC2H3C7H4C6H6C6H6C2HC6H3C3SC2H4CHCHCH3CNCHNCNC3NCH2NCH3C2HC2H11CHC4H3CH2C2HCH2C2H2CHCH3CH4CSFeS2CSFeSFeS3FeHSFeS2FeSCHFeS3FeSFeS2FeSFeS3HSC2H2C8H4C6H4NH3C7H5C2H2C2HC6HCH4FeH2C2HCNCHCH2CH2C2HCHCHCH2CH5C3H2CSCHCHC6NCH2CHCH3CH3NH2NC2HFeS2FeS2FeSHS2FeS2HFeHFeSHSC2FeS2FeS2Fe2S3HCSHCH3C2SH2CHC7H4C6H2SHCFeC7H4C6H4CH2NCHC3H2C3HNC6H8NH3CHSHCHC2H3CNC3H3CH6C2SC4H2SCHSFeHFeS2FeS2H2C2FeS2FeSFeS2HFeS2FeS2FeSFeS2CHSH2C8HCH2CHC2HC6H4C6H4NC6H4C3H3C2SH2SCSHNFeC4H2NCNC6H5C2H6SH2CH2C3HCSC3HCH3NHC4H7SCNC4HSH2C2H3CNH3FeCH4
_chemical_formula_sum              "Fe192 S384 C1152 H1152 N96"
_cell_length_a       53.1483
_cell_length_b       53.1747
_cell_length_c       53.4539
_cell_angle_alpha    89.5705
_cell_angle_beta     90.0891
_cell_angle_gamma    89.9659

_space_group_name_H-M_alt    "P 1"
_space_group_IT_number       1

loop_
  _space_group_symop_operation_xyz
  'x, y, z'

loop_
  _atom_site_type_symbol
  _atom_site_label
  _atom_site_symmetry_multiplicity
  _atom_site_fract_x
  _atom_site_fract_y
  _atom_site_fract_z
  _atom_site_occupancy
  Fe  Fe1       1.0  0.38402  0.21561  0.08527  1.0000
  S   S1        1.0  0.34485  0.21367  0.10091  1.0000
  S   S2        1.0  0.41780  0.23013  0.10716  1.0000
  Fe  Fe2       1.0  0.36814  0.18940  0.03669  1.0000
  S   S3        1.0  0.32775  0.18627  0.04848  1.0000
  Fe  Fe3       1.0  0.33249  0.22584  0.06228  1.0000
  C   C1        1.0  0.28998  0.26876  0.03220  1.0000
  Fe  Fe4       1.0  0.34374  0.17429  0.08586  1.0000
  S   S4        1.0  0.32535  0.14073  0.10506  1.0000
  S   S5        1.0  0.37188  0.23015  0.04756  1.0000
  S   S6        1.0  0.38387  0.17502  0.07312  1.0000
  S   S7        1.0  0.50106  0.17902  0.37677  1.0000
  C   C2        1.0  0.22242  0.25012  0.02771  1.0000
  C   C3        1.0  0.31521  0.06834  0.28610  1.0000
  S   S8        1.0  0.05156  0.17040  0.38055  1.0000
  C   C4        1.0  0.11043  0.02163  0.32984  1.0000
  S   S9        1.0  0.38794  0.05992  0.16757  1.0000
  Fe  Fe5       1.0  0.34799  0.17699  0.45654  1.0000
  S   S10       1.0  0.34859  0.21614  0.44071  1.0000
  S   S11       1.0  0.33697  0.14395  0.43191  1.0000
  C   C5        1.0  0.36762  0.10536  0.06426  1.0000
  S   S12       1.0  0.37116  0.23517  0.49478  1.0000
  Fe  Fe6       1.0  0.33302  0.22781  0.47801  1.0000
  H   H1        1.0  0.41857  0.24420  0.36933  1.0000
  Fe  Fe7       1.0  0.38668  0.21956  0.45874  1.0000
  S   S13       1.0  0.41912  0.23881  0.43860  1.0000
  S   S14       1.0  0.33029  0.18824  0.49285  1.0000
  S   S15       1.0  0.38746  0.17951  0.47205  1.0000
  Fe  Fe8       1.0  0.18762  0.04631  0.35164  1.0000
  S   S16       1.0  0.17784  0.05654  0.31203  1.0000
  Fe  Fe9       1.0  0.21211  0.09730  0.36231  1.0000
  S   S17       1.0  0.20379  0.11112  0.32337  1.0000
  S   S18       1.0  0.22548  0.12611  0.39079  1.0000
  Fe  Fe10      1.0  0.16572  0.09358  0.32800  1.0000
  S   S19       1.0  0.13071  0.11284  0.31290  1.0000
  Fe  Fe11      1.0  0.21681  0.07303  0.31082  1.0000
  S   S20       1.0  0.24049  0.07354  0.27552  1.0000
  S   S21       1.0  0.17278  0.08236  0.36774  1.0000
  S   S22       1.0  0.22785  0.06011  0.34963  1.0000
  C   C6        1.0  0.43612  0.21079  0.35474  1.0000
  C   C7        1.0  0.38772  0.07326  0.08947  1.0000
  H   H2        1.0  0.31676  0.04751  0.28731  1.0000
  C   C8        1.0  0.30596  0.13948  0.42028  1.0000
  C   C9        1.0  0.28617  0.15543  0.42692  1.0000
  C   C10       1.0  0.26172  0.15109  0.41763  1.0000
  C   C11       1.0  0.25679  0.13089  0.40149  1.0000
  C   C12       1.0  0.27662  0.11508  0.39463  1.0000
  C   C13       1.0  0.30107  0.11933  0.40406  1.0000
  H   H3        1.0  0.28965  0.17101  0.43936  1.0000
  H   H4        1.0  0.24654  0.16343  0.42307  1.0000
  H   H5        1.0  0.27309  0.09943  0.38230  1.0000
  H   H6        1.0  0.31623  0.10685  0.39888  1.0000
  C   C14       1.0  0.25792  0.04713  0.26594  1.0000
  H   H7        1.0  0.46334  0.25527  0.41256  1.0000
  C   C15       1.0  0.26878  0.04727  0.24201  1.0000
  C   C16       1.0  0.36465  0.03587  0.10399  1.0000
  H   H8        1.0  0.26449  0.06243  0.22907  1.0000
  C   C17       1.0  0.07242  0.15324  0.36145  1.0000
  C   C18       1.0  0.09068  0.13775  0.37276  1.0000
  C   C19       1.0  0.10850  0.12491  0.35813  1.0000
  C   C20       1.0  0.10796  0.12730  0.33206  1.0000
  C   C21       1.0  0.08932  0.14229  0.32077  1.0000
  C   C22       1.0  0.07175  0.15539  0.33538  1.0000
  H   H9        1.0  0.09131  0.13600  0.39293  1.0000
  H   H10       1.0  0.12276  0.11339  0.36702  1.0000
  H   H11       1.0  0.08884  0.14426  0.30060  1.0000
  H   H12       1.0  0.05800  0.16746  0.32644  1.0000
  H   H13       1.0  0.45074  0.17427  0.34539  1.0000
  Fe  Fe12      1.0  0.36974  0.19468  0.50707  1.0000
  H   H14       1.0  0.37654  0.15198  0.38809  1.0000
  H   H15       1.0  0.25074  0.25149  0.08468  1.0000
  C   C23       1.0  0.48111  0.19574  0.39724  1.0000
  C   C24       1.0  0.46241  0.18255  0.41044  1.0000
  C   C25       1.0  0.44399  0.19546  0.42421  1.0000
  C   C26       1.0  0.44399  0.22175  0.42470  1.0000
  C   C27       1.0  0.46324  0.23493  0.41226  1.0000
  C   C28       1.0  0.48181  0.22200  0.39866  1.0000
  H   H16       1.0  0.46178  0.16224  0.40946  1.0000
  H   H17       1.0  0.42940  0.18509  0.43382  1.0000
  H   H18       1.0  0.36819  0.12331  0.05444  1.0000
  H   H19       1.0  0.49598  0.23237  0.38841  1.0000
  C   C29       1.0  0.34268  0.11926  0.12372  1.0000
  C   C30       1.0  0.33079  0.09734  0.13257  1.0000
  C   C31       1.0  0.34434  0.07911  0.14627  1.0000
  C   C32       1.0  0.36986  0.08281  0.15146  1.0000
  C   C33       1.0  0.38157  0.10504  0.14320  1.0000
  C   C34       1.0  0.36809  0.12315  0.12927  1.0000
  H   H20       1.0  0.31109  0.09429  0.12846  1.0000
  H   H21       1.0  0.33502  0.06223  0.15271  1.0000
  H   H22       1.0  0.40128  0.10813  0.14729  1.0000
  H   H23       1.0  0.37739  0.14005  0.12271  1.0000
  H   H24       1.0  0.40858  0.23405  0.16571  1.0000
  C   C35       1.0  0.41652  0.24973  0.17598  1.0000
  C   C36       1.0  0.26318  0.02727  0.28242  1.0000
  C   C37       1.0  0.34523  0.09175  0.06544  1.0000
  H   H25       1.0  0.25490  0.02704  0.30090  1.0000
  H   H26       1.0  0.37900  0.03497  0.11914  1.0000
  C   C38       1.0  0.43578  0.18457  0.35462  1.0000
  H   H27       1.0  0.32831  0.09930  0.05682  1.0000
  C   C39       1.0  0.41780  0.22386  0.36808  1.0000
  H   H28       1.0  0.24728  0.22454  0.04726  1.0000
  C   C40       1.0  0.33602  0.06618  0.24531  1.0000
  H   H29       1.0  0.38595  0.22069  0.39254  1.0000
  C   C41       1.0  0.33958  0.07455  0.22069  1.0000
  C   C42       1.0  0.47650  0.26612  0.20910  1.0000
  H   H30       1.0  0.40636  0.10690  0.07599  1.0000
  H   H31       1.0  0.29437  0.02888  0.21665  1.0000
  H   H32       1.0  0.32988  0.07702  0.29803  1.0000
  S   S23       1.0  0.29719  0.25105  0.47836  1.0000
  H   H33       1.0  0.45088  0.23040  0.18468  1.0000
  C   C43       1.0  0.44410  0.27018  0.12617  1.0000
  H   H34       1.0  0.35382  0.06597  0.20897  1.0000
  C   C44       1.0  0.05347  0.26419  0.25855  1.0000
  S   S24       1.0  0.30402  0.25769  0.06014  1.0000
  H   H35       1.0  0.41748  0.15136  0.36852  1.0000
  C   C45       1.0  0.34459  0.06893  0.07865  1.0000
  H   H36       1.0  0.51854  0.25549  0.30845  1.0000
  H   H37       1.0  0.36194  0.18109  0.39584  1.0000
  C   C46       1.0  0.38029  0.17103  0.39563  1.0000
  C   C47       1.0  0.30635  0.10486  0.22649  1.0000
  C   C48       1.0  0.32466  0.09404  0.21127  1.0000
  H   H38       1.0  0.28878  0.10434  0.26267  1.0000
  H   H39       1.0  0.29439  0.11977  0.21924  1.0000
  H   H40       1.0  0.32725  0.10070  0.19219  1.0000
  N   N1        1.0  0.15842  0.16549  0.38257  1.0000
  C   C49       1.0  0.16981  0.15938  0.36052  1.0000
  C   C50       1.0  0.13693  0.17971  0.38259  1.0000
  C   C51       1.0  0.15947  0.16712  0.33765  1.0000
  C   C52       1.0  0.12622  0.18801  0.36006  1.0000
  C   C53       1.0  0.13753  0.18152  0.33747  1.0000
  C   C54       1.0  0.16952  0.15649  0.40611  1.0000
  H   H41       1.0  0.18682  0.14812  0.36056  1.0000
  H   H42       1.0  0.12755  0.18423  0.39999  1.0000
  H   H43       1.0  0.16796  0.16126  0.32017  1.0000
  H   H44       1.0  0.10867  0.19850  0.36011  1.0000
  H   H45       1.0  0.12883  0.18687  0.31983  1.0000
  H   H46       1.0  0.17143  0.13564  0.40579  1.0000
  H   H47       1.0  0.18867  0.16459  0.40852  1.0000
  H   H48       1.0  0.15799  0.16154  0.42263  1.0000
  H   H49       1.0  0.03077  0.11600  0.32991  1.0000
  N   N2        1.0  0.31805  0.07693  0.26012  1.0000
  H   H50       1.0  0.29636  0.07333  0.29370  1.0000
  H   H51       1.0  0.47494  0.26352  0.22970  1.0000
  N   N3        1.0  0.39898  0.18471  0.38071  1.0000
  H   H52       1.0  0.40430  0.06650  0.09932  1.0000
  C   C55       1.0  0.41702  0.17174  0.36790  1.0000
  C   C56       1.0  0.42157  0.26227  0.11482  1.0000
  H   H53       1.0  0.38701  0.16893  0.41522  1.0000
  C   C57       1.0  0.30339  0.09614  0.25108  1.0000
  H   H54       1.0  0.34752  0.05082  0.25240  1.0000
  C   C58       1.0  0.38904  0.09610  0.07632  1.0000
  C   C59       1.0  0.39936  0.21043  0.38119  1.0000
  C   C60       1.0  0.03766  0.25926  0.27913  1.0000
  N   N4        1.0  0.36562  0.06008  0.09063  1.0000
  H   H55       1.0  0.45124  0.22088  0.34545  1.0000
  H   H56       1.0  0.48736  0.25021  0.20116  1.0000
  H   H57       1.0  0.45929  0.25686  0.12877  1.0000
  C   C61       1.0  0.23673  0.24200  0.04814  1.0000
  H   H58       1.0  0.32700  0.05868  0.07978  1.0000
  H   H59       1.0  0.03708  0.24066  0.28744  1.0000
  H   H60       1.0  0.34607  0.03312  0.11316  1.0000
  C   C62       1.0  0.44062  0.24792  0.18645  1.0000
  N   N5        1.0  0.45132  0.26819  0.19800  1.0000
  H   H61       1.0  0.06499  0.24924  0.25109  1.0000
  C   C63       1.0  0.28573  0.02833  0.23495  1.0000
  H   H62       1.0  0.12310  0.02636  0.34573  1.0000
  C   C64       1.0  0.23863  0.25715  0.06924  1.0000
  H   H63       1.0  0.09769  0.03782  0.32618  1.0000
  S   S25       1.0  0.38437  0.17479  0.00029  1.0000
  Fe  Fe13      1.0  0.46200  0.17790  0.69916  1.0000
  S   S26       1.0  0.44677  0.21731  0.69829  1.0000
  S   S27       1.0  0.43787  0.14476  0.71187  1.0000
  S   S28       1.0  0.50074  0.23510  0.67361  1.0000
  Fe  Fe14      1.0  0.48525  0.22837  0.71219  1.0000
  C   C65       1.0  0.26397  0.23613  0.54521  1.0000
  Fe  Fe15      1.0  0.46354  0.22006  0.65973  1.0000
  S   S29       1.0  0.44646  0.23927  0.62558  1.0000
  S   S30       1.0  0.47591  0.17983  0.65931  1.0000
  Fe  Fe16      1.0  0.32397  0.07600  0.83301  1.0000
  S   S31       1.0  0.36242  0.06171  0.82319  1.0000
  S   S32       1.0  0.29013  0.07706  0.80718  1.0000
  Fe  Fe17      1.0  0.34059  0.09425  0.88503  1.0000
  S   S33       1.0  0.38031  0.08132  0.87906  1.0000
  S   S34       1.0  0.32368  0.11201  0.91976  1.0000
  Fe  Fe18      1.0  0.37647  0.09772  0.84010  1.0000
  S   S35       1.0  0.40470  0.12615  0.82487  1.0000
  Fe  Fe19      1.0  0.36264  0.04650  0.86283  1.0000
  S   S36       1.0  0.33781  0.11307  0.84740  1.0000
  S   S37       1.0  0.32310  0.05832  0.87133  1.0000
  S   S38       1.0  0.16867  0.04717  0.65999  1.0000
  S   S39       1.0  0.38097  0.17982  0.54559  1.0000
  Fe  Fe20      1.0  0.08917  0.16062  0.71172  1.0000
  S   S40       1.0  0.07863  0.16850  0.67188  1.0000
  S   S41       1.0  0.10979  0.12615  0.72668  1.0000
  Fe  Fe21      1.0  0.06697  0.21079  0.72953  1.0000
  S   S42       1.0  0.05492  0.22254  0.69073  1.0000
  C   C66       1.0  0.27481  0.26213  0.98985  1.0000
  Fe  Fe22      1.0  0.04184  0.18216  0.68769  1.0000
  Fe  Fe23      1.0  0.09281  0.20795  0.67839  1.0000
  S   S43       1.0  0.12218  0.22235  0.65048  1.0000
  S   S44       1.0  0.05141  0.17157  0.72723  1.0000
  S   S45       1.0  0.10570  0.19898  0.71752  1.0000
  C   C67       1.0  0.27819  0.25929  0.58118  1.0000
  H   H64       1.0  0.29194  0.21340  0.52736  1.0000
  H   H65       1.0  0.17877  0.12354  0.64071  1.0000
  C   C68       1.0  0.47336  0.16133  0.57780  1.0000
  C   C69       1.0  0.49241  0.16227  0.59578  1.0000
  H   H66       1.0  0.15965  0.24289  0.61757  1.0000
  H   H67       1.0  0.33850  0.24534  0.98127  1.0000
  H   H68       1.0  0.24962  0.23202  0.53137  1.0000
  C   C70       1.0  0.15061  0.06754  0.67884  1.0000
  C   C71       1.0  0.13534  0.08585  0.66730  1.0000
  C   C72       1.0  0.12217  0.10359  0.68170  1.0000
  C   C73       1.0  0.12412  0.10305  0.70780  1.0000
  C   C74       1.0  0.13879  0.08425  0.71934  1.0000
  C   C75       1.0  0.15203  0.06659  0.70494  1.0000
  H   H69       1.0  0.13404  0.08660  0.64710  1.0000
  H   H70       1.0  0.11083  0.11789  0.67263  1.0000
  H   H71       1.0  0.14040  0.08376  0.73952  1.0000
  H   H72       1.0  0.16386  0.05272  0.71405  1.0000
  C   C76       1.0  0.28408  0.05387  0.78449  1.0000
  C   C77       1.0  0.26019  0.05292  0.77325  1.0000
  C   C78       1.0  0.47672  0.20629  0.57242  1.0000
  H   H73       1.0  0.24610  0.06673  0.77817  1.0000
  H   H74       1.0  0.34278  0.23294  0.54347  1.0000
  C   C79       1.0  0.39844  0.19701  0.56791  1.0000
  C   C80       1.0  0.40520  0.22213  0.56388  1.0000
  C   C81       1.0  0.41936  0.23503  0.58202  1.0000
  C   C82       1.0  0.42715  0.22287  0.60417  1.0000
  C   C83       1.0  0.42031  0.19778  0.60823  1.0000
  C   C84       1.0  0.40590  0.18499  0.59023  1.0000
  H   H75       1.0  0.39961  0.23160  0.54678  1.0000
  H   H76       1.0  0.42457  0.25444  0.57873  1.0000
  H   H77       1.0  0.42618  0.18821  0.62519  1.0000
  H   H78       1.0  0.40070  0.16557  0.59352  1.0000
  C   C85       1.0  0.43132  0.13817  0.74377  1.0000
  C   C86       1.0  0.41657  0.11707  0.74999  1.0000
  C   C87       1.0  0.40885  0.11262  0.77486  1.0000
  C   C88       1.0  0.41597  0.12922  0.79378  1.0000
  C   C89       1.0  0.43141  0.14984  0.78768  1.0000
  C   C90       1.0  0.43900  0.15437  0.76281  1.0000
  H   H79       1.0  0.41072  0.10435  0.73540  1.0000
  H   H80       1.0  0.39725  0.09652  0.77935  1.0000
  H   H81       1.0  0.43713  0.16269  0.80222  1.0000
  H   H82       1.0  0.45040  0.17063  0.75830  1.0000
  N   N6        1.0  0.49489  0.20712  0.59057  1.0000
  C   C91       1.0  0.34772  0.22661  0.98259  1.0000
  H   H83       1.0  0.36824  0.22944  0.98558  1.0000
  C   C92       1.0  0.36789  0.15451  0.97994  1.0000
  C   C93       1.0  0.34215  0.14992  0.98280  1.0000
  C   C94       1.0  0.32905  0.13604  0.96463  1.0000
  C   C95       1.0  0.34155  0.12657  0.94353  1.0000
  C   C96       1.0  0.36746  0.13042  0.94112  1.0000
  C   C97       1.0  0.38055  0.14438  0.95926  1.0000
  H   H84       1.0  0.33219  0.15765  0.99859  1.0000
  H   H85       1.0  0.30901  0.13311  0.96661  1.0000
  H   H86       1.0  0.37728  0.12323  0.92496  1.0000
  H   H87       1.0  0.40047  0.14784  0.95692  1.0000
  H   H88       1.0  0.29366  0.18395  0.93056  1.0000
  H   H89       1.0  0.37220  0.18349  0.91195  1.0000
  C   C98       1.0  0.02302  0.26223  0.75394  1.0000
  H   H90       1.0  0.30312  0.21044  0.96739  1.0000
  H   H91       1.0  0.32836  0.17017  0.90282  1.0000
  C   C99       1.0  0.12868  0.25388  0.64111  1.0000
  H   H92       1.0  0.38106  0.20932  0.94922  1.0000
  C   C100      1.0  0.18404  0.12293  0.68047  1.0000
  H   H93       1.0  0.15753  0.16449  0.72061  1.0000
  C   C101      1.0  0.33181  0.22104  0.55665  1.0000
  C   C102      1.0  0.30222  0.03603  0.77798  1.0000
  C   C103      1.0  0.03752  0.26339  0.79683  1.0000
  C   C104      1.0  0.14863  0.25850  0.62438  1.0000
  C   C105      1.0  0.15410  0.16563  0.68035  1.0000
  H   H94       1.0  0.12866  0.16701  0.63664  1.0000
  H   H95       1.0  0.14234  0.18228  0.68043  1.0000
  H   H96       1.0  0.15785  0.18314  0.63102  1.0000
  H   H97       1.0  0.47006  0.22345  0.56352  1.0000
  H   H98       1.0  0.49853  0.14527  0.60537  1.0000
  H   H99       1.0  0.15281  0.15194  0.61873  1.0000
  N   N7        1.0  0.15963  0.15401  0.65830  1.0000
  C   C106      1.0  0.14937  0.16440  0.63494  1.0000
  C   C107      1.0  0.17462  0.13306  0.65809  1.0000
  C   C108      1.0  0.16302  0.15591  0.70307  1.0000
  C   C109      1.0  0.28874  0.25386  0.01079  1.0000
  C   C110      1.0  0.28800  0.22564  0.54304  1.0000
  N   N8        1.0  0.34252  0.21185  0.96011  1.0000
  C   C111      1.0  0.36171  0.20469  0.94467  1.0000
  C   C112      1.0  0.31826  0.20498  0.95498  1.0000
  C   C113      1.0  0.35684  0.19005  0.92355  1.0000
  C   C114      1.0  0.31275  0.19018  0.93412  1.0000
  C   C115      1.0  0.33222  0.18261  0.91840  1.0000
  H   H100      1.0  0.39388  0.18905  0.74123  1.0000
  H   H101      1.0  0.23551  0.03293  0.74806  1.0000
  H   H102      1.0  0.45058  0.18297  0.55203  1.0000
  H   H103      1.0  0.34219  0.21983  0.57469  1.0000
  C   C116      1.0  0.38099  0.17484  0.74831  1.0000
  H   H104      1.0  0.38334  0.18717  0.78656  1.0000
  S   S46       1.0  0.06427  0.23273  0.76568  1.0000
  H   H105      1.0  0.34063  0.21645  0.99939  1.0000
  C   C117      1.0  0.37161  0.15651  0.73228  1.0000
  H   H106      1.0  0.32372  0.10664  0.76246  1.0000
  C   C118      1.0  0.17800  0.13436  0.70310  1.0000
  C   C119      1.0  0.35633  0.13734  0.74193  1.0000
  C   C120      1.0  0.37506  0.17380  0.77371  1.0000
  H   H107      1.0  0.34991  0.12265  0.72951  1.0000
  N   N9        1.0  0.35040  0.13661  0.76685  1.0000
  C   C121      1.0  0.35980  0.15433  0.78276  1.0000
  H   H108      1.0  0.34829  0.10129  0.78521  1.0000
  H   H109      1.0  0.32250  0.12229  0.79183  1.0000
  C   C122      1.0  0.33554  0.11569  0.77701  1.0000
  H   H110      1.0  0.19501  0.10569  0.68033  1.0000
  H   H111      1.0  0.35642  0.15287  0.80274  1.0000
  N   N10       1.0  0.30652  0.23151  0.55982  1.0000
  H   H112      1.0  0.18419  0.12609  0.72067  1.0000
  H   H113      1.0  0.51787  0.18607  0.61594  1.0000
  S   S47       1.0  0.48738  0.25323  0.74644  1.0000
  H   H114      1.0  0.37731  0.15645  0.71277  1.0000
  H   H115      1.0  0.46439  0.14360  0.57331  1.0000
  C   C123      1.0  0.50321  0.18545  0.60179  1.0000
  S   S48       1.0  0.49955  0.18866  0.71510  1.0000
  Fe  Fe24      1.0  0.51218  0.19454  0.67516  1.0000
  C   C124      1.0  0.30200  0.24837  0.57851  1.0000
  H   H116      1.0  0.33095  0.20160  0.54917  1.0000
  H   H117      1.0  0.27336  0.25032  0.97353  1.0000
  H   H118      1.0  0.29769  0.23561  0.01079  1.0000
  H   H119      1.0  0.12137  0.02228  0.72955  1.0000
  C   C125      1.0  0.25414  0.03382  0.75619  1.0000
  H   H120      1.0  0.05020  0.25676  0.81131  1.0000
  C   C126      1.0  0.25907  0.25303  0.56445  1.0000
  C   C127      1.0  0.46563  0.18342  0.56581  1.0000
  C   C128      1.0  0.03949  0.25366  0.77254  1.0000
  H   H121      1.0  0.50814  0.23215  0.61836  1.0000
  C   C129      1.0  0.51417  0.27105  0.75418  1.0000
  H   H122      1.0  0.22167  0.23902  0.01078  1.0000
  H   H123      1.0  0.02475  0.25520  0.73509  1.0000
  H   H124      1.0  0.32071  0.03668  0.78641  1.0000
  H   H125      1.0  0.31699  0.25392  0.59110  1.0000
  H   H126      1.0  0.49378  0.24730  0.59230  1.0000
  C   C130      1.0  0.50608  0.23121  0.59771  1.0000
  H   H127      1.0  0.09909  0.27102  0.66245  1.0000
  H   H128      1.0  0.24085  0.26216  0.56575  1.0000
  H   H129      1.0  0.28172  0.02971  0.84223  1.0000
  S   S49       1.0  0.18903  0.37923  0.03957  1.0000
  Fe  Fe25      1.0  0.45886  0.35712  0.17065  1.0000
  S   S50       1.0  0.44569  0.36319  0.21000  1.0000
  S   S51       1.0  0.42903  0.34329  0.14356  1.0000
  S   S52       1.0  0.50180  0.38462  0.22307  1.0000
  Fe  Fe26      1.0  0.48302  0.34674  0.22133  1.0000
  S   S53       1.0  0.47928  0.31640  0.25117  1.0000
  Fe  Fe27      1.0  0.46541  0.40036  0.20803  1.0000
  S   S54       1.0  0.45078  0.43640  0.22540  1.0000
  S   S55       1.0  0.47577  0.39591  0.16775  1.0000
  H   H130      1.0  0.03960  0.32591  0.24870  1.0000
  H   H131      1.0  0.40471  0.31085  0.18996  1.0000
  Fe  Fe28      1.0  0.18007  0.47113  0.33733  1.0000
  S   S56       1.0  0.21664  0.45270  0.34897  1.0000
  S   S57       1.0  0.14604  0.44993  0.32173  1.0000
  Fe  Fe29      1.0  0.21218  0.47364  0.38524  1.0000
  S   S58       1.0  0.22424  0.46357  0.42507  1.0000
  Fe  Fe30      1.0  0.23454  0.48821  0.33385  1.0000
  S   S59       1.0  0.27172  0.48806  0.31289  1.0000
  S   S60       1.0  0.17453  0.48977  0.37484  1.0000
  Fe  Fe31      1.0  0.09198  0.35048  0.14861  1.0000
  S   S61       1.0  0.08300  0.39013  0.15919  1.0000
  S   S62       1.0  0.09999  0.33874  0.10859  1.0000
  Fe  Fe32      1.0  0.07521  0.33047  0.20031  1.0000
  S   S63       1.0  0.06459  0.36891  0.21432  1.0000
  S   S64       1.0  0.07472  0.29364  0.22192  1.0000
  Fe  Fe33      1.0  0.04757  0.37403  0.17572  1.0000
  Fe  Fe34      1.0  0.10093  0.38118  0.19645  1.0000
  S   S65       1.0  0.13156  0.40683  0.21171  1.0000
  S   S66       1.0  0.05559  0.33479  0.16334  1.0000
  S   S67       1.0  0.11261  0.34241  0.18448  1.0000
  H   H132      1.0  0.03186  0.39311  0.11215  1.0000
  H   H133      1.0  0.08786  0.44227  0.18203  1.0000
  H   H134      1.0  0.50295  0.44824  0.23970  1.0000
  C   C131      1.0  0.18769  0.40748  0.47991  1.0000
  C   C132      1.0  0.17889  0.40932  0.45513  1.0000
  C   C133      1.0  0.18943  0.42681  0.43820  1.0000
  C   C134      1.0  0.20888  0.44265  0.44597  1.0000
  C   C135      1.0  0.21738  0.44110  0.47086  1.0000
  C   C136      1.0  0.20690  0.42357  0.48775  1.0000
  H   H135      1.0  0.16397  0.39699  0.44893  1.0000
  H   H136      1.0  0.18272  0.42781  0.41909  1.0000
  H   H137      1.0  0.23244  0.45326  0.47703  1.0000
  S   S68       1.0  0.17507  0.38404  0.49998  1.0000
  C   C137      1.0  0.14278  0.43732  0.29131  1.0000
  C   C138      1.0  0.12072  0.42402  0.28524  1.0000
  C   C139      1.0  0.11695  0.41445  0.26099  1.0000
  C   C140      1.0  0.13532  0.41804  0.24260  1.0000
  C   C141      1.0  0.15735  0.43130  0.24867  1.0000
  C   C142      1.0  0.16112  0.44084  0.27291  1.0000
  H   H138      1.0  0.10640  0.42131  0.29937  1.0000
  H   H139      1.0  0.09987  0.40436  0.25651  1.0000
  H   H140      1.0  0.17165  0.43422  0.23455  1.0000
  H   H141      1.0  0.17815  0.45108  0.27731  1.0000
  H   H142      1.0  0.05386  0.36853  0.11812  1.0000
  C   C143      1.0  0.50142  0.28248  0.28312  1.0000
  H   H143      1.0  0.09586  0.32768  0.29533  1.0000
  C   C144      1.0  0.04164  0.37688  0.10343  1.0000
  S   S69       1.0  0.23345  0.50739  0.37103  1.0000
  N   N11       1.0  0.23651  0.36166  0.47632  1.0000
  C   C145      1.0  0.28999  0.27379  0.50108  1.0000
  C   C146      1.0  0.43465  0.45958  0.20774  1.0000
  C   C147      1.0  0.42868  0.45600  0.18254  1.0000
  C   C148      1.0  0.41421  0.47407  0.16957  1.0000
  C   C149      1.0  0.40561  0.49581  0.18167  1.0000
  C   C150      1.0  0.41220  0.49973  0.20667  1.0000
  C   C151      1.0  0.42666  0.48166  0.21964  1.0000
  H   H144      1.0  0.43464  0.43904  0.17319  1.0000
  H   H145      1.0  0.40914  0.47089  0.15023  1.0000
  Fe  Fe35      1.0  0.51120  0.37800  0.18268  1.0000
  H   H146      1.0  0.43121  0.48454  0.23915  1.0000
  C   C152      1.0  0.25405  0.36516  0.49473  1.0000
  C   C153      1.0  0.42720  0.31230  0.13172  1.0000
  C   C154      1.0  0.27176  0.38452  0.49277  1.0000
  C   C155      1.0  0.40499  0.30459  0.11969  1.0000
  C   C156      1.0  0.26544  0.28357  0.50201  1.0000
  H   H147      1.0  0.38973  0.31785  0.11717  1.0000
  C   C157      1.0  0.16377  0.36854  0.05843  1.0000
  C   C158      1.0  0.16244  0.37587  0.08361  1.0000
  C   C159      1.0  0.14289  0.36713  0.09921  1.0000
  C   C160      1.0  0.12462  0.35081  0.08975  1.0000
  C   C161      1.0  0.12595  0.34354  0.06456  1.0000
  C   C162      1.0  0.14533  0.35246  0.04892  1.0000
  H   H148      1.0  0.17661  0.38832  0.09113  1.0000
  H   H149      1.0  0.14207  0.37285  0.11858  1.0000
  H   H150      1.0  0.11189  0.33094  0.05709  1.0000
  H   H151      1.0  0.14601  0.34681  0.02954  1.0000
  C   C163      1.0  0.21822  0.34119  0.47876  1.0000
  H   H152      1.0  0.12785  0.29446  0.22038  1.0000
  H   H153      1.0  0.46414  0.30080  0.14374  1.0000
  H   H154      1.0  0.10808  0.29827  0.26197  1.0000
  H   H155      1.0  0.04566  0.42707  0.19560  1.0000
  C   C164      1.0  0.25415  0.39596  0.45264  1.0000
  H   H156      1.0  0.51459  0.43612  0.15384  1.0000
  H   H157      1.0  0.04597  0.32681  0.10484  1.0000
  C   C165      1.0  0.11147  0.33228  0.28305  1.0000
  S   S70       1.0  0.19835  0.50539  0.32009  1.0000
  H   H158      1.0  0.31808  0.50048  0.28845  1.0000
  H   H159      1.0  0.09842  0.50033  0.25577  1.0000
  C   C166      1.0  0.23661  0.37652  0.45530  1.0000
  H   H160      1.0  0.27852  0.30371  0.04887  1.0000
  H   H161      1.0  0.48241  0.27678  0.28758  1.0000
  H   H162      1.0  0.12356  0.47748  0.25391  1.0000
  C   C167      1.0  0.11829  0.31582  0.26392  1.0000
  N   N12       1.0  0.08762  0.46502  0.24097  1.0000
  C   C168      1.0  0.50548  0.30185  0.26557  1.0000
  H   H163      1.0  0.48754  0.28354  0.20551  1.0000
  C   C169      1.0  0.27766  0.29215  0.03232  1.0000
  C   C170      1.0  0.02260  0.27842  0.28881  1.0000
  C   C171      1.0  0.14470  0.30389  0.22838  1.0000
  H   H164      1.0  0.34619  0.46947  0.17293  1.0000
  C   C172      1.0  0.05418  0.28819  0.24739  1.0000
  H   H165      1.0  0.11998  0.36754  0.30096  1.0000
  C   C173      1.0  0.22604  0.28025  0.06967  1.0000
  H   H166      1.0  0.18056  0.31161  0.04106  1.0000
  N   N13       1.0  0.21175  0.28791  0.04968  1.0000
  H   H167      1.0  0.15435  0.31346  0.21252  1.0000
  C   C174      1.0  0.44687  0.29504  0.13472  1.0000
  N   N14       1.0  0.34613  0.48234  0.21065  1.0000
  C   C175      1.0  0.35419  0.47809  0.23464  1.0000
  C   C176      1.0  0.35214  0.46585  0.19205  1.0000
  C   C177      1.0  0.36935  0.45727  0.24035  1.0000
  C   C178      1.0  0.36710  0.44475  0.19715  1.0000
  C   C179      1.0  0.37592  0.44060  0.22142  1.0000
  C   C180      1.0  0.33028  0.50429  0.20517  1.0000
  H   H168      1.0  0.51270  0.30330  0.37038  1.0000
  H   H169      1.0  0.22684  0.32317  0.47283  1.0000
  H   H170      1.0  0.37636  0.45431  0.25921  1.0000
  H   H171      1.0  0.37264  0.43224  0.18217  1.0000
  H   H172      1.0  0.38840  0.42486  0.22539  1.0000
  H   H173      1.0  0.05783  0.46076  0.26738  1.0000
  H   H174      1.0  0.25166  0.27758  0.48838  1.0000
  H   H175      1.0  0.05388  0.38348  0.08791  1.0000
  C   C181      1.0  0.27169  0.40007  0.47162  1.0000
  H   H176      1.0  0.40567  0.51634  0.21620  1.0000
  H   H177      1.0  0.49530  0.44227  0.19460  1.0000
  C   C182      1.0  0.19944  0.31258  0.04994  1.0000
  C   C183      1.0  0.10318  0.48010  0.25787  1.0000
  H   H178      1.0  0.31060  0.50064  0.21113  1.0000
  C   C184      1.0  0.41433  0.29285  0.18952  1.0000
  C   C185      1.0  0.08092  0.44653  0.20060  1.0000
  C   C186      1.0  0.06445  0.45679  0.24863  1.0000
  C   C187      1.0  0.15060  0.34369  0.25064  1.0000
  C   C188      1.0  0.40212  0.27967  0.11137  1.0000
  H   H179      1.0  0.28502  0.41544  0.46999  1.0000
  H   H180      1.0  0.16570  0.34858  0.23787  1.0000
  H   H181      1.0  0.33739  0.52112  0.21512  1.0000
  H   H182      1.0  0.21167  0.33944  0.49843  1.0000
  C   C189      1.0  0.02355  0.30250  0.27782  1.0000
  C   C190      1.0  0.12493  0.35457  0.28616  1.0000
  C   C191      1.0  0.30401  0.51367  0.28184  1.0000
  H   H183      1.0  0.34921  0.49103  0.24941  1.0000
  H   H184      1.0  0.21381  0.42239  0.50676  1.0000
  H   H185      1.0  0.15735  0.28933  0.23644  1.0000
  H   H186      1.0  0.15546  0.37745  0.27235  1.0000
  H   H187      1.0  0.44680  0.30632  0.20915  1.0000
  S   S71       1.0  0.49517  0.33856  0.18189  1.0000
  C   C192      1.0  0.09583  0.46024  0.21722  1.0000
  H   H188      1.0  0.25357  0.40828  0.43633  1.0000
  H   H189      1.0  0.22823  0.29222  0.08585  1.0000
  H   H190      1.0  0.22260  0.37392  0.44077  1.0000
  C   C193      1.0  0.03922  0.30738  0.25714  1.0000
  C   C194      1.0  0.14480  0.36020  0.27005  1.0000
  N   N15       1.0  0.13737  0.32181  0.24778  1.0000
  C   C195      1.0  0.05738  0.43785  0.20830  1.0000
  H   H191      1.0  0.33048  0.50915  0.18489  1.0000
  H   H192      1.0  0.20105  0.34501  0.46742  1.0000
  H   H193      1.0  0.51602  0.46978  0.14865  1.0000
  H   H194      1.0  0.25421  0.35321  0.51127  1.0000
  H   H195      1.0  0.19650  0.31954  0.06929  1.0000
  H   H196      1.0  0.10040  0.47432  0.27774  1.0000
  H   H197      1.0  0.21107  0.32654  0.03958  1.0000
  C   C196      1.0  0.04905  0.44298  0.23247  1.0000
  C   C197      1.0  0.27914  0.51154  0.29052  1.0000
  C   C198      1.0  0.02862  0.33326  0.09614  1.0000
  H   H198      1.0  0.03078  0.43623  0.23859  1.0000
  H   H199      1.0  0.11434  0.46638  0.21120  1.0000
  C   C199      1.0  0.51289  0.45060  0.20063  1.0000
  C   C200      1.0  0.51709  0.45408  0.22620  1.0000
  C   C201      1.0  0.43836  0.29032  0.19994  1.0000
  S   S72       1.0  0.38494  0.51639  0.16555  1.0000
  C   C202      1.0  0.21009  0.27334  0.02875  1.0000
  H   H200      1.0  0.18486  0.51034  0.44072  1.0000
  H   H201      1.0  0.21480  0.51867  0.42723  1.0000
  H   H202      1.0  0.38471  0.27384  0.10263  1.0000
  H   H203      1.0  0.38527  0.27443  0.16826  1.0000
  H   H204      1.0  0.28526  0.38750  0.50771  1.0000
  N   N16       1.0  0.02348  0.35843  0.09420  1.0000
  C   C203      1.0  0.40342  0.27242  0.17739  1.0000
  H   H205      1.0  0.23348  0.40936  0.03296  1.0000
  H   H206      1.0  0.32671  0.27416  0.51807  1.0000
  H   H207      1.0  0.27810  0.39624  0.03507  1.0000
  C   C204      1.0  0.30771  0.28142  0.51880  1.0000
  C   C205      1.0  0.27163  0.40818  0.01981  1.0000
  H   H208      1.0  0.31438  0.30385  0.55161  1.0000
  Fe  Fe36      1.0  0.34482  0.48674  0.81308  1.0000
  H   H209      1.0  0.27486  0.27340  0.59538  1.0000
  C   C206      1.0  0.27972  0.43130  0.98166  1.0000
  Fe  Fe37      1.0  0.39878  0.47496  0.83150  1.0000
  S   S73       1.0  0.38981  0.48777  0.87037  1.0000
  S   S74       1.0  0.43857  0.46672  0.81823  1.0000
  Fe  Fe38      1.0  0.35307  0.46688  0.86573  1.0000
  S   S75       1.0  0.33910  0.43757  0.89375  1.0000
  S   S76       1.0  0.51023  0.38114  0.86265  1.0000
  S   S77       1.0  0.36367  0.45178  0.82791  1.0000
  S   S78       1.0  0.38089  0.50849  0.81263  1.0000
  C   C207      1.0  0.29724  0.50850  0.77286  1.0000
  S   S79       1.0  0.18147  0.32825  0.98574  1.0000
  Fe  Fe39      1.0  0.21169  0.38316  0.94804  1.0000
  S   S80       1.0  0.20225  0.34598  0.93039  1.0000
  S   S81       1.0  0.22575  0.41795  0.92710  1.0000
  Fe  Fe40      1.0  0.16589  0.34839  0.95181  1.0000
  S   S82       1.0  0.12755  0.33433  0.93906  1.0000
  Fe  Fe41      1.0  0.21850  0.32895  0.96571  1.0000
  S   S83       1.0  0.24282  0.29389  0.96457  1.0000
  S   S84       1.0  0.17393  0.38681  0.96706  1.0000
  S   S85       1.0  0.23056  0.36595  0.98169  1.0000
  H   H210      1.0  0.20475  0.43730  0.97766  1.0000
  H   H211      1.0  0.08659  0.28428  0.74005  1.0000
  S   S86       1.0  0.05248  0.38841  0.86332  1.0000
  C   C208      1.0  0.05349  0.32731  0.77335  1.0000
  Fe  Fe42      1.0  0.18971  0.37651  0.53936  1.0000
  S   S87       1.0  0.22875  0.38676  0.55146  1.0000
  Fe  Fe43      1.0  0.17735  0.35014  0.58925  1.0000
  S   S88       1.0  0.21587  0.35846  0.60457  1.0000
  S   S89       1.0  0.14623  0.33500  0.61487  1.0000
  Fe  Fe44      1.0  0.21095  0.39715  0.58815  1.0000
  S   S90       1.0  0.22664  0.43011  0.61010  1.0000
  Fe  Fe45      1.0  0.23038  0.34741  0.56675  1.0000
  S   S91       1.0  0.26724  0.32603  0.56483  1.0000
  S   S92       1.0  0.17153  0.38989  0.57497  1.0000
  S   S93       1.0  0.19228  0.33604  0.55243  1.0000
  H   H212      1.0  0.25403  0.31827  0.01186  1.0000
  C   C209      1.0  0.14012  0.30352  0.62468  1.0000
  C   C210      1.0  0.12023  0.29891  0.64147  1.0000
  H   H213      1.0  0.09503  0.39681  0.95445  1.0000
  H   H214      1.0  0.17790  0.36699  0.64154  1.0000
  H   H215      1.0  0.10901  0.31449  0.64804  1.0000
  N   N17       1.0  0.23796  0.43002  0.99885  1.0000
  H   H216      1.0  0.22720  0.43409  0.67139  1.0000
  C   C211      1.0  0.04519  0.35684  0.95590  1.0000
  C   C212      1.0  0.30070  0.29827  0.53770  1.0000
  H   H217      1.0  0.20893  0.45655  0.00521  1.0000
  H   H218      1.0  0.09268  0.30437  0.81735  1.0000
  C   C213      1.0  0.27595  0.30743  0.53910  1.0000
  H   H219      1.0  0.28572  0.49215  0.73787  1.0000
  Fe  Fe46      1.0  0.19208  0.36648  0.99931  1.0000
  H   H220      1.0  0.21492  0.42671  0.70218  1.0000
  C   C214      1.0  0.10838  0.34838  0.91577  1.0000
  C   C215      1.0  0.08534  0.33693  0.90973  1.0000
  C   C216      1.0  0.06829  0.34867  0.89321  1.0000
  C   C217      1.0  0.07425  0.37193  0.88241  1.0000
  C   C218      1.0  0.09765  0.38299  0.88774  1.0000
  C   C219      1.0  0.11465  0.37132  0.90443  1.0000
  H   H221      1.0  0.08041  0.31914  0.91839  1.0000
  H   H222      1.0  0.05040  0.33991  0.88921  1.0000
  H   H223      1.0  0.10242  0.40096  0.87939  1.0000
  H   H224      1.0  0.13235  0.38028  0.90891  1.0000
  C   C220      1.0  0.26199  0.28526  0.99024  1.0000
  S   S94       1.0  0.16653  0.51649  0.66544  1.0000
  C   C221      1.0  0.45816  0.44291  0.83102  1.0000
  C   C222      1.0  0.48239  0.43954  0.82106  1.0000
  C   C223      1.0  0.49857  0.42081  0.83064  1.0000
  C   C224      1.0  0.49067  0.40529  0.85036  1.0000
  C   C225      1.0  0.46647  0.40868  0.86034  1.0000
  C   C226      1.0  0.45027  0.42743  0.85076  1.0000
  H   H225      1.0  0.48858  0.45137  0.80571  1.0000
  H   H226      1.0  0.23915  0.30677  0.52230  1.0000
  H   H227      1.0  0.46018  0.39674  0.87558  1.0000
  H   H228      1.0  0.43167  0.42983  0.85861  1.0000
  C   C227      1.0  0.30760  0.43290  0.90346  1.0000
  C   C228      1.0  0.28887  0.45089  0.89916  1.0000
  C   C229      1.0  0.26398  0.44620  0.90696  1.0000
  C   C230      1.0  0.25748  0.42331  0.91860  1.0000
  C   C231      1.0  0.27624  0.40539  0.92306  1.0000
  C   C232      1.0  0.30121  0.41028  0.91570  1.0000
  H   H229      1.0  0.29358  0.46845  0.88993  1.0000
  H   H230      1.0  0.24961  0.46027  0.90361  1.0000
  H   H231      1.0  0.27152  0.38776  0.93216  1.0000
  H   H232      1.0  0.31564  0.39632  0.91925  1.0000
  C   C233      1.0  0.18341  0.49411  0.64779  1.0000
  C   C234      1.0  0.20970  0.49356  0.64789  1.0000
  C   C235      1.0  0.22261  0.47446  0.63519  1.0000
  C   C236      1.0  0.20943  0.45559  0.62243  1.0000
  C   C237      1.0  0.18315  0.45658  0.62155  1.0000
  C   C238      1.0  0.17020  0.47581  0.63422  1.0000
  H   H233      1.0  0.06581  0.41956  0.92565  1.0000
  H   H234      1.0  0.24296  0.47381  0.63593  1.0000
  H   H235      1.0  0.17281  0.44217  0.61172  1.0000
  H   H236      1.0  0.14984  0.47617  0.63392  1.0000
  H   H237      1.0  0.27428  0.47048  0.81259  1.0000
  C   C239      1.0  0.14508  0.41663  0.66399  1.0000
  C   C240      1.0  0.47177  0.31828  0.75148  1.0000
  H   H238      1.0  0.16153  0.44775  0.68351  1.0000
  C   C241      1.0  0.06149  0.31344  0.75270  1.0000
  H   H239      1.0  0.29249  0.43744  0.96699  1.0000
  C   C242      1.0  0.49768  0.35466  0.80540  1.0000
  H   H240      1.0  0.02414  0.40140  0.91616  1.0000
  H   H241      1.0  0.23391  0.46192  0.83477  1.0000
  N   N18       1.0  0.06464  0.32398  0.79623  1.0000
  C   C243      1.0  0.14969  0.39386  0.65200  1.0000
  H   H242      1.0  0.06148  0.35849  0.81578  1.0000
  C   C244      1.0  0.06894  0.36665  0.96156  1.0000
  H   H243      1.0  0.03997  0.33861  0.96349  1.0000
  C   C245      1.0  0.28358  0.50794  0.75035  1.0000
  C   C246      1.0  0.19399  0.39883  0.66057  1.0000
  C   C247      1.0  0.11454  0.27426  0.64969  1.0000
  C   C248      1.0  0.15438  0.28316  0.61624  1.0000
  H   H244      1.0  0.21311  0.39195  0.65858  1.0000
  S   S95       1.0  0.31856  0.48393  0.77982  1.0000
  C   C249      1.0  0.51147  0.35034  0.76195  1.0000
  C   C250      1.0  0.08100  0.29608  0.75558  1.0000
  C   C251      1.0  0.16522  0.42994  0.67440  1.0000
  H   H245      1.0  0.50268  0.27522  0.79258  1.0000
  C   C252      1.0  0.25436  0.43834  0.98091  1.0000
  H   H246      1.0  0.16967  0.28638  0.60329  1.0000
  N   N19       1.0  0.18934  0.42113  0.67229  1.0000
  C   C253      1.0  0.21142  0.43742  0.99742  1.0000
  C   C254      1.0  0.05553  0.33852  0.81756  1.0000
  N   N20       1.0  0.29049  0.41691  0.84320  1.0000
  C   C255      1.0  0.26817  0.41164  0.85485  1.0000
  C   C256      1.0  0.29258  0.43749  0.82781  1.0000
  C   C257      1.0  0.24748  0.42770  0.85198  1.0000
  C   C258      1.0  0.27231  0.45399  0.82455  1.0000
  C   C259      1.0  0.24968  0.44910  0.83687  1.0000
  C   C260      1.0  0.31192  0.39980  0.84630  1.0000
  H   H247      1.0  0.26645  0.39535  0.86709  1.0000
  H   H248      1.0  0.31001  0.44138  0.81800  1.0000
  H   H249      1.0  0.23013  0.42387  0.86204  1.0000
  C   C261      1.0  0.07625  0.38957  0.95102  1.0000
  H   H250      1.0  0.48733  0.31563  0.71443  1.0000
  H   H251      1.0  0.32996  0.41037  0.84609  1.0000
  H   H252      1.0  0.31129  0.38997  0.86473  1.0000
  H   H253      1.0  0.31206  0.38572  0.83109  1.0000
  H   H254      1.0  0.22014  0.50736  0.65839  1.0000
  C   C262      1.0  0.25836  0.30022  0.52107  1.0000
  C   C263      1.0  0.09238  0.29295  0.77893  1.0000
  C   C264      1.0  0.48898  0.32429  0.73269  1.0000
  H   H255      1.0  0.08210  0.35601  0.97307  1.0000
  N   N21       1.0  0.49424  0.34471  0.78014  1.0000
  H   H256      1.0  0.20560  0.45518  0.68589  1.0000
  H   H257      1.0  0.12609  0.42399  0.66504  1.0000
  H   H258      1.0  0.51702  0.41826  0.82259  1.0000
  C   C265      1.0  0.17423  0.38478  0.65055  1.0000
  H   H259      1.0  0.03468  0.33772  0.81832  1.0000
  S   S96       1.0  0.33230  0.50057  0.85057  1.0000
  H   H260      1.0  0.47961  0.35575  0.81580  1.0000
  C   C266      1.0  0.21027  0.43494  0.68361  1.0000
  H   H261      1.0  0.30789  0.41010  0.00177  1.0000
  C   C267      1.0  0.03630  0.39194  0.92959  1.0000
  C   C268      1.0  0.47474  0.32866  0.77528  1.0000
  H   H262      1.0  0.13440  0.38319  0.64370  1.0000
  H   H263      1.0  0.45685  0.30483  0.74786  1.0000
  C   C269      1.0  0.50899  0.34040  0.73792  1.0000
  C   C270      1.0  0.08405  0.30727  0.79916  1.0000
  H   H264      1.0  0.24775  0.45011  0.96557  1.0000
  H   H265      1.0  0.06266  0.33105  0.83572  1.0000
  N   N22       1.0  0.02910  0.36967  0.94038  1.0000
  C   C271      1.0  0.05987  0.40233  0.93491  1.0000
  H   H266      1.0  0.10686  0.27875  0.78151  1.0000
  H   H267      1.0  0.46167  0.32336  0.78996  1.0000
  C   C272      1.0  0.28832  0.41596  0.00116  1.0000
  Fe  Fe47      1.0  0.37010  0.52008  0.85124  1.0000
  H   H268      1.0  0.03758  0.34000  0.77126  1.0000
  H   H269      1.0  0.05191  0.31535  0.73485  1.0000
  H   H270      1.0  0.50533  0.37407  0.80469  1.0000
  H   H271      1.0  0.45730  0.50934  0.85467  1.0000
  C   C273      1.0  0.51658  0.28024  0.77864  1.0000
  H   H272      1.0  0.19980  0.27992  0.01241  1.0000
  C   C274      1.0  0.26374  0.30041  0.01142  1.0000
  H   H273      1.0  0.51094  0.34258  0.81618  1.0000
  H   H274      1.0  0.19921  0.42409  0.00799  1.0000
  C   C275      1.0  0.24639  0.41561  0.01847  1.0000
  C   C276      1.0  0.26836  0.68623  0.16561  1.0000
  S   S97       1.0  0.23726  0.68753  0.49329  1.0000
  Fe  Fe48      1.0  0.17832  0.71084  0.45611  1.0000
  S   S98       1.0  0.21659  0.70820  0.43852  1.0000
  S   S99       1.0  0.14379  0.72445  0.43470  1.0000
  Fe  Fe49      1.0  0.21962  0.67093  0.45858  1.0000
  S   S100      1.0  0.23745  0.63527  0.44335  1.0000
  Fe  Fe50      1.0  0.23056  0.72493  0.47456  1.0000
  C   C277      1.0  0.47445  0.74998  0.27728  1.0000
  S   S101      1.0  0.18019  0.67203  0.47359  1.0000
  S   S102      1.0  0.19201  0.72978  0.49081  1.0000
  H   H275      1.0  0.21867  0.60556  0.33614  1.0000
  H   H276      1.0  0.06540  0.70847  0.05489  1.0000
  S   S103      1.0  0.06429  0.69108  0.17641  1.0000
  Fe  Fe51      1.0  0.35042  0.60518  0.16583  1.0000
  S   S104      1.0  0.35112  0.61922  0.20540  1.0000
  S   S105      1.0  0.33879  0.63051  0.13318  1.0000
  Fe  Fe52      1.0  0.37276  0.55400  0.18132  1.0000
  S   S106      1.0  0.37444  0.56411  0.22194  1.0000
  Fe  Fe53      1.0  0.33608  0.58084  0.21566  1.0000
  S   S107      1.0  0.30151  0.57821  0.24052  1.0000
  Fe  Fe54      1.0  0.38945  0.60135  0.20789  1.0000
  S   S108      1.0  0.42391  0.61695  0.22765  1.0000
  S   S109      1.0  0.33307  0.56797  0.17580  1.0000
  S   S110      1.0  0.39012  0.59006  0.16760  1.0000
  H   H277      1.0  0.31599  0.68796  0.14951  1.0000
  S   S111      1.0  0.18099  0.73970  0.03949  1.0000
  Fe  Fe55      1.0  0.21119  0.68817  0.08126  1.0000
  S   S112      1.0  0.20055  0.72635  0.09586  1.0000
  S   S113      1.0  0.22519  0.65968  0.11004  1.0000
  Fe  Fe56      1.0  0.16490  0.72157  0.07397  1.0000
  S   S114      1.0  0.12591  0.73517  0.08442  1.0000
  Fe  Fe57      1.0  0.21765  0.74099  0.06015  1.0000
  Fe  Fe58      1.0  0.19756  0.69091  0.50696  1.0000
  S   S115      1.0  0.17389  0.68232  0.06172  1.0000
  S   S116      1.0  0.23080  0.70324  0.04697  1.0000
  C   C278      1.0  0.46754  0.59936  0.16631  1.0000
  S   S117      1.0  0.18453  0.56286  0.36499  1.0000
  H   H278      1.0  0.31508  0.55551  0.32503  1.0000
  S   S118      1.0  0.50140  0.69159  0.17491  1.0000
  C   C279      1.0  0.14058  0.75669  0.42668  1.0000
  C   C280      1.0  0.19393  0.59407  0.47013  1.0000
  C   C281      1.0  0.44471  0.63844  0.21304  1.0000
  C   C282      1.0  0.43900  0.64994  0.19010  1.0000
  C   C283      1.0  0.45642  0.66643  0.17879  1.0000
  C   C284      1.0  0.47980  0.67123  0.19009  1.0000
  C   C285      1.0  0.48548  0.65968  0.21301  1.0000
  C   C286      1.0  0.46790  0.64359  0.22453  1.0000
  H   H279      1.0  0.42116  0.64615  0.18110  1.0000
  H   H280      1.0  0.45183  0.67531  0.16108  1.0000
  H   H281      1.0  0.50338  0.66301  0.22191  1.0000
  H   H282      1.0  0.47243  0.63475  0.24227  1.0000
  C   C287      1.0  0.29302  0.55103  0.25771  1.0000
  H   H283      1.0  0.46591  0.73229  0.21674  1.0000
  C   C288      1.0  0.47422  0.73360  0.23527  1.0000
  N   N23       1.0  0.10449  0.75689  0.35021  1.0000
  H   H284      1.0  0.25403  0.56196  0.25975  1.0000
  C   C289      1.0  0.30690  0.63555  0.12492  1.0000
  C   C290      1.0  0.30116  0.65059  0.10391  1.0000
  C   C291      1.0  0.27610  0.65744  0.09847  1.0000
  C   C292      1.0  0.25655  0.64898  0.11385  1.0000
  C   C293      1.0  0.26220  0.63290  0.13409  1.0000
  C   C294      1.0  0.28726  0.62634  0.13973  1.0000
  H   H285      1.0  0.31624  0.65755  0.09220  1.0000
  H   H286      1.0  0.27198  0.66963  0.08270  1.0000
  H   H287      1.0  0.24716  0.62607  0.14596  1.0000
  H   H288      1.0  0.29141  0.61458  0.15583  1.0000
  C   C295      1.0  0.09929  0.67485  0.07108  1.0000
  C   C296      1.0  0.08178  0.70434  0.15153  1.0000
  C   C297      1.0  0.07114  0.72219  0.13536  1.0000
  C   C298      1.0  0.08525  0.73210  0.11542  1.0000
  C   C299      1.0  0.10995  0.72390  0.11113  1.0000
  C   C300      1.0  0.12073  0.70614  0.12734  1.0000
  C   C301      1.0  0.10669  0.69648  0.14756  1.0000
  H   H289      1.0  0.05189  0.72808  0.13789  1.0000
  C   C302      1.0  0.25269  0.56432  0.33561  1.0000
  H   H290      1.0  0.13978  0.69970  0.12419  1.0000
  H   H291      1.0  0.11505  0.68265  0.15999  1.0000
  H   H292      1.0  0.05939  0.74359  0.20275  1.0000
  H   H293      1.0  0.26689  0.69928  0.18163  1.0000
  S   S119      1.0  0.25562  0.75942  0.47364  1.0000
  C   C303      1.0  0.22324  0.61627  0.42026  1.0000
  C   C304      1.0  0.23458  0.59326  0.41409  1.0000
  C   C305      1.0  0.22301  0.57675  0.39715  1.0000
  C   C306      1.0  0.20012  0.58328  0.38592  1.0000
  C   C307      1.0  0.18909  0.60658  0.39158  1.0000
  C   C308      1.0  0.20050  0.62297  0.40881  1.0000
  H   H294      1.0  0.25220  0.58799  0.42286  1.0000
  H   H295      1.0  0.23175  0.55892  0.39303  1.0000
  H   H296      1.0  0.17142  0.61183  0.38292  1.0000
  H   H297      1.0  0.19161  0.64065  0.41340  1.0000
  H   H298      1.0  0.47568  0.56930  0.22198  1.0000
  H   H299      1.0  0.11358  0.67196  0.08605  1.0000
  C   C309      1.0  0.06985  0.75828  0.19211  1.0000
  N   N24       1.0  0.50750  0.60992  0.18459  1.0000
  H   H300      1.0  0.34375  0.74466  0.49347  1.0000
  H   H301      1.0  0.17404  0.75769  0.37138  1.0000
  N   N25       1.0  0.24861  0.58468  0.32038  1.0000
  H   H302      1.0  0.19429  0.61226  0.47925  1.0000
  C   C310      1.0  0.32963  0.77010  0.46515  1.0000
  C   C311      1.0  0.19520  0.52527  0.43036  1.0000
  H   H303      1.0  0.45360  0.60205  0.15167  1.0000
  C   C312      1.0  0.26801  0.54840  0.26576  1.0000
  H   H304      1.0  0.50520  0.70941  0.22633  1.0000
  H   H305      1.0  0.10190  0.75272  0.41522  1.0000
  H   H306      1.0  0.44620  0.75905  0.24955  1.0000
  H   H307      1.0  0.22117  0.60832  0.30244  1.0000
  C   C313      1.0  0.28317  0.74665  0.51555  1.0000
  C   C314      1.0  0.21377  0.55446  0.46053  1.0000
  C   C315      1.0  0.49039  0.61242  0.16556  1.0000
  C   C316      1.0  0.47997  0.58096  0.20581  1.0000
  Fe  Fe59      1.0  0.19619  0.52226  0.35861  1.0000
  N   N26       1.0  0.49623  0.73716  0.28237  1.0000
  H   H308      1.0  0.02288  0.71652  0.07243  1.0000
  C   C317      1.0  0.27656  0.76404  0.02631  1.0000
  H   H309      1.0  0.09004  0.75288  0.19169  1.0000
  Fe  Fe60      1.0  0.19247  0.70089  0.02866  1.0000
  H   H310      1.0  0.06691  0.74256  0.35300  1.0000
  C   C318      1.0  0.17490  0.56512  0.44116  1.0000
  C   C319      1.0  0.15479  0.75720  0.36460  1.0000
  H   H311      1.0  0.14817  0.71934  0.37765  1.0000
  C   C320      1.0  0.26108  0.52876  0.28211  1.0000
  N   N27       1.0  0.27797  0.69963  0.14354  1.0000
  C   C321      1.0  0.05903  0.69764  0.07094  1.0000
  H   H312      1.0  0.44426  0.57413  0.18794  1.0000
  H   H313      1.0  0.33040  0.53565  0.25994  1.0000
  C   C322      1.0  0.34428  0.76366  0.48591  1.0000
  H   H314      1.0  0.24949  0.67804  0.16166  1.0000
  H   H315      1.0  0.09837  0.65778  0.05928  1.0000
  H   H316      1.0  0.28081  0.67021  0.17089  1.0000
  C   C323      1.0  0.03505  0.70231  0.08072  1.0000
  H   H317      1.0  0.15996  0.56084  0.42799  1.0000
  H   H318      1.0  0.10616  0.69086  0.05944  1.0000
  H   H319      1.0  0.50047  0.72347  0.31948  1.0000
  H   H320      1.0  0.25758  0.73727  0.09629  1.0000
  H   H321      1.0  0.26904  0.74516  0.02726  1.0000
  H   H322      1.0  0.07653  0.75316  0.32216  1.0000
  H   H323      1.0  0.07678  0.74576  0.10288  1.0000
  C   C324      1.0  0.27052  0.72664  0.10802  1.0000
  C   C325      1.0  0.07799  0.75690  0.34254  1.0000
  H   H324      1.0  0.18659  0.52783  0.41156  1.0000
  C   C326      1.0  0.29238  0.58521  0.30911  1.0000
  C   C327      1.0  0.31098  0.53341  0.26555  1.0000
  H   H325      1.0  0.26494  0.61121  0.29494  1.0000
  H   H326      1.0  0.15908  0.60126  0.45071  1.0000
  H   H327      1.0  0.33238  0.71103  0.11274  1.0000
  H   H328      1.0  0.27616  0.72772  0.51318  1.0000
  C   C328      1.0  0.26811  0.59530  0.30735  1.0000
  C   C329      1.0  0.49630  0.72052  0.24071  1.0000
  C   C330      1.0  0.06665  0.66683  0.10246  1.0000
  C   C331      1.0  0.29607  0.72598  0.10219  1.0000
  N   N28       1.0  0.19469  0.54891  0.44427  1.0000
  C   C332      1.0  0.14025  0.73563  0.36810  1.0000
  C   C333      1.0  0.26173  0.71325  0.12889  1.0000
  H   H329      1.0  0.23715  0.55594  0.34577  1.0000
  C   C334      1.0  0.30315  0.69920  0.13821  1.0000
  H   H330      1.0  0.03697  0.66097  0.12947  1.0000
  C   C335      1.0  0.31254  0.71217  0.11735  1.0000
  H   H331      1.0  0.24174  0.71333  0.13298  1.0000
  H   H332      1.0  0.20907  0.58004  0.31632  1.0000
  H   H333      1.0  0.27961  0.53681  0.34895  1.0000
  C   C336      1.0  0.04280  0.67100  0.11268  1.0000
  H   H334      1.0  0.03042  0.74722  0.24225  1.0000
  C   C337      1.0  0.21381  0.57724  0.47350  1.0000
  N   N29       1.0  0.07452  0.68015  0.08191  1.0000
  H   H335      1.0  0.17852  0.76686  0.43640  1.0000
  C   C338      1.0  0.50700  0.72227  0.26456  1.0000
  C   C339      1.0  0.29660  0.56417  0.32430  1.0000
  H   H336      1.0  0.07907  0.65332  0.11147  1.0000
  C   C340      1.0  0.22320  0.59530  0.31866  1.0000
  H   H337      1.0  0.22945  0.54159  0.46296  1.0000
  C   C341      1.0  0.50272  0.59415  0.20437  1.0000
  C   C342      1.0  0.11498  0.73578  0.36073  1.0000
  C   C343      1.0  0.11773  0.76542  0.41654  1.0000
  H   H338      1.0  0.30297  0.73600  0.08581  1.0000
  C   C344      1.0  0.17423  0.58795  0.45400  1.0000
  C   C345      1.0  0.46316  0.74846  0.25366  1.0000
  H   H339      1.0  0.10368  0.71914  0.36416  1.0000
  H   H340      1.0  0.30755  0.59297  0.29786  1.0000
  C   C346      1.0  0.27668  0.55366  0.33773  1.0000
  H   H341      1.0  0.22957  0.58227  0.48538  1.0000
  H   H342      1.0  0.24186  0.52719  0.28851  1.0000
  C   C347      1.0  0.02940  0.76461  0.25256  1.0000
  C   C348      1.0  0.46230  0.58364  0.18665  1.0000
  H   H343      1.0  0.46614  0.76213  0.29127  1.0000
  H   H344      1.0  0.06637  0.76047  0.26867  1.0000
  C   C349      1.0  0.50771  0.73879  0.30726  1.0000
  H   H345      1.0  0.49403  0.62519  0.15004  1.0000
  Fe  Fe61      1.0  0.02312  0.70113  0.18092  1.0000
  H   H346      1.0  0.31757  0.75613  0.45650  1.0000
  H   H347      1.0  0.06314  0.75836  0.17244  1.0000
  C   C350      1.0  0.02691  0.68882  0.10165  1.0000
  H   H348      1.0  0.50357  0.75726  0.31604  1.0000
  C   C351      1.0  0.27557  0.76573  0.49909  1.0000
  H   H349      1.0  0.51629  0.59221  0.21944  1.0000
  Fe  Fe62      1.0  0.08558  0.68222  0.84013  1.0000
  S   S120      1.0  0.10477  0.71776  0.85282  1.0000
  S   S121      1.0  0.10774  0.64883  0.82509  1.0000
  C   C352      1.0  0.22304  0.77024  0.53961  1.0000
  S   S122      1.0  0.04936  0.73658  0.87211  1.0000
  Fe  Fe63      1.0  0.07087  0.73712  0.83605  1.0000
  H   H350      1.0  0.42734  0.52277  0.84594  1.0000
  Fe  Fe64      1.0  0.08149  0.71385  0.88781  1.0000
  S   S123      1.0  0.08957  0.72255  0.92863  1.0000
  S   S124      1.0  0.05305  0.70188  0.82130  1.0000
  S   S125      1.0  0.06469  0.67693  0.87656  1.0000
  Fe  Fe65      1.0  0.18549  0.55164  0.68061  1.0000
  S   S126      1.0  0.22705  0.55864  0.67796  1.0000
  Fe  Fe66      1.0  0.17487  0.60430  0.70170  1.0000
  S   S127      1.0  0.21569  0.61504  0.69914  1.0000
  S   S128      1.0  0.14773  0.63492  0.71405  1.0000
  Fe  Fe67      1.0  0.21557  0.59620  0.66168  1.0000
  S   S129      1.0  0.23507  0.60845  0.62576  1.0000
  Fe  Fe68      1.0  0.22292  0.57663  0.71570  1.0000
  S   S130      1.0  0.24801  0.57577  0.75019  1.0000
  S   S131      1.0  0.17425  0.58840  0.66272  1.0000
  S   S132      1.0  0.18196  0.56676  0.71989  1.0000
  S   S133      1.0  0.37573  0.56043  0.86359  1.0000
  S   S134      1.0  0.18480  0.68366  0.54701  1.0000
  Fe  Fe69      1.0  0.46973  0.66882  0.82828  1.0000
  S   S135      1.0  0.48005  0.67255  0.86874  1.0000
  S   S136      1.0  0.45464  0.63312  0.81073  1.0000
  Fe  Fe70      1.0  0.48944  0.72180  0.81552  1.0000
  S   S137      1.0  0.48778  0.75187  0.78525  1.0000
  Fe  Fe71      1.0  0.46464  0.71204  0.86586  1.0000
  S   S138      1.0  0.43523  0.72813  0.89227  1.0000
  S   S139      1.0  0.50679  0.68328  0.81364  1.0000
  S   S140      1.0  0.45146  0.70675  0.82631  1.0000
  S   S141      1.0  0.18789  0.68912  0.98824  1.0000
  C   C353      1.0  0.27838  0.54899  0.78210  1.0000
  C   C354      1.0  0.40922  0.73636  0.95856  1.0000
  N   N30       1.0  0.17883  0.65497  0.79436  1.0000
  C   C355      1.0  0.41132  0.77070  0.90839  1.0000
  C   C356      1.0  0.44531  0.55686  0.87741  1.0000
  H   H351      1.0  0.16116  0.68710  0.77792  1.0000
  C   C357      1.0  0.14545  0.59547  0.58337  1.0000
  N   N31       1.0  0.45569  0.54931  0.85529  1.0000
  C   C358      1.0  0.16864  0.68052  0.79627  1.0000
  N   N32       1.0  0.18351  0.56359  0.60008  1.0000
  C   C359      1.0  0.39645  0.58122  0.84786  1.0000
  C   C360      1.0  0.40176  0.60478  0.85836  1.0000
  C   C361      1.0  0.41926  0.62116  0.84701  1.0000
  C   C362      1.0  0.43128  0.61418  0.82486  1.0000
  C   C363      1.0  0.42536  0.59098  0.81397  1.0000
  C   C364      1.0  0.40820  0.57449  0.82550  1.0000
  H   H352      1.0  0.39267  0.61020  0.87560  1.0000
  H   H353      1.0  0.42359  0.63906  0.85549  1.0000
  H   H354      1.0  0.43455  0.58551  0.79679  1.0000
  H   H355      1.0  0.40430  0.55653  0.81712  1.0000
  C   C365      1.0  0.22127  0.63002  0.60440  1.0000
  C   C366      1.0  0.19894  0.64270  0.60995  1.0000
  C   C367      1.0  0.18806  0.65908  0.59216  1.0000
  C   C368      1.0  0.19916  0.66266  0.56855  1.0000
  C   C369      1.0  0.22142  0.64987  0.56292  1.0000
  C   C370      1.0  0.23252  0.63379  0.58087  1.0000
  H   H356      1.0  0.19007  0.63993  0.62798  1.0000
  H   H357      1.0  0.17087  0.66895  0.59669  1.0000
  H   H358      1.0  0.23020  0.65252  0.54483  1.0000
  H   H359      1.0  0.24981  0.62403  0.57642  1.0000
  C   C371      1.0  0.26533  0.54882  0.75922  1.0000
  C   C372      1.0  0.29665  0.76964  0.01009  1.0000
  Fe  Fe72      1.0  0.51623  0.68912  0.85413  1.0000
  H   H360      1.0  0.27655  0.56496  0.79440  1.0000
  H   H361      1.0  0.22976  0.72775  0.98380  1.0000
  C   C373      1.0  0.11670  0.71219  0.94493  1.0000
  C   C374      1.0  0.11910  0.71785  0.97046  1.0000
  C   C375      1.0  0.14052  0.71029  0.98408  1.0000
  C   C376      1.0  0.15984  0.69711  0.97220  1.0000
  C   C377      1.0  0.15745  0.69139  0.94669  1.0000
  C   C378      1.0  0.13593  0.69885  0.93308  1.0000
  H   H362      1.0  0.10431  0.72816  0.97975  1.0000
  H   H363      1.0  0.20980  0.73221  0.54312  1.0000
  H   H364      1.0  0.17233  0.68122  0.93737  1.0000
  H   H365      1.0  0.13427  0.69437  0.91343  1.0000
  H   H366      1.0  0.44315  0.58621  0.90503  1.0000
  H   H367      1.0  0.13077  0.60838  0.57736  1.0000
  H   H368      1.0  0.44875  0.72935  0.95246  1.0000
  H   H369      1.0  0.35810  0.53687  0.77092  1.0000
  C   C379      1.0  0.11533  0.64392  0.79322  1.0000
  C   C380      1.0  0.11189  0.66271  0.77508  1.0000
  C   C381      1.0  0.12127  0.65932  0.75068  1.0000
  C   C382      1.0  0.13417  0.63721  0.74421  1.0000
  C   C383      1.0  0.13675  0.61805  0.76208  1.0000
  C   C384      1.0  0.12726  0.62138  0.78643  1.0000
  H   H370      1.0  0.10262  0.68009  0.78004  1.0000
  H   H371      1.0  0.11896  0.67413  0.73687  1.0000
  H   H372      1.0  0.14635  0.60082  0.75726  1.0000
  H   H373      1.0  0.12976  0.60664  0.80028  1.0000
  C   C385      1.0  0.19957  0.60706  0.79123  1.0000
  H   H374      1.0  0.29973  0.59581  0.72868  1.0000
  H   H375      1.0  0.20745  0.58827  0.78974  1.0000
  C   C386      1.0  0.46968  0.59514  0.87580  1.0000
  H   H376      1.0  0.16782  0.64461  0.83142  1.0000
  H   H377      1.0  0.49830  0.72964  0.73483  1.0000
  H   H378      1.0  0.19107  0.66005  0.75660  1.0000
  C   C387      1.0  0.26768  0.52805  0.74351  1.0000
  H   H379      1.0  0.45021  0.75890  0.84779  1.0000
  C   C388      1.0  0.20356  0.54706  0.60939  1.0000
  H   H380      1.0  0.25773  0.52774  0.72584  1.0000
  C   C389      1.0  0.19047  0.64762  0.77279  1.0000
  C   C390      1.0  0.03564  0.76313  0.78218  1.0000
  H   H381      1.0  0.47452  0.61343  0.88330  1.0000
  C   C391      1.0  0.20098  0.62358  0.77093  1.0000
  H   H382      1.0  0.39417  0.75998  0.90615  1.0000
  C   C392      1.0  0.16996  0.59844  0.57454  1.0000
  H   H383      1.0  0.22031  0.70971  0.58687  1.0000
  C   C393      1.0  0.44235  0.76468  0.97099  1.0000
  H   H384      1.0  0.48121  0.55821  0.82571  1.0000
  H   H385      1.0  0.20986  0.61762  0.75372  1.0000
  H   H386      1.0  0.18613  0.60190  0.82897  1.0000
  H   H387      1.0  0.20800  0.58502  0.57666  1.0000
  N   N33       1.0  0.20536  0.75876  0.97819  1.0000
  H   H388      1.0  0.51534  0.70233  0.72386  1.0000
  C   C394      1.0  0.43487  0.74199  0.96036  1.0000
  H   H389      1.0  0.49339  0.59931  0.84338  1.0000
  H   H390      1.0  0.15262  0.68116  0.80966  1.0000
  C   C395      1.0  0.14002  0.57598  0.60015  1.0000
  H   H391      1.0  0.35509  0.74872  0.98311  1.0000
  H   H392      1.0  0.24313  0.70054  0.56373  1.0000
  C   C396      1.0  0.30046  0.75194  0.53471  1.0000
  N   N34       1.0  0.33815  0.57164  0.77338  1.0000
  C   C397      1.0  0.34571  0.55016  0.76160  1.0000
  C   C398      1.0  0.32241  0.58828  0.76151  1.0000
  H   H393      1.0  0.43100  0.54548  0.88653  1.0000
  C   C399      1.0  0.31314  0.58316  0.73757  1.0000
  C   C400      1.0  0.32024  0.56100  0.72570  1.0000
  C   C401      1.0  0.34745  0.57731  0.79857  1.0000
  H   H394      1.0  0.36112  0.72835  0.95703  1.0000
  C   C402      1.0  0.43448  0.75992  0.90172  1.0000
  C   C403      1.0  0.36463  0.74741  0.96465  1.0000
  C   C404      1.0  0.44805  0.52518  0.84457  1.0000
  H   H395      1.0  0.50828  0.75356  0.69723  1.0000
  C   C405      1.0  0.33673  0.54441  0.73770  1.0000
  H   H396      1.0  0.17444  0.61368  0.56167  1.0000
  C   C406      1.0  0.18886  0.58219  0.58310  1.0000
  C   C407      1.0  0.18775  0.61473  0.81320  1.0000
  S   S142      1.0  0.50174  0.72920  0.85505  1.0000
  H   H397      1.0  0.03660  0.74406  0.78923  1.0000
  C   C408      1.0  0.17755  0.63897  0.81451  1.0000
  H   H398      1.0  0.20276  0.52858  0.59986  1.0000
  H   H399      1.0  0.04352  0.75349  0.70733  1.0000
  H   H400      1.0  0.40364  0.71918  0.94924  1.0000
  H   H401      1.0  0.31245  0.55640  0.70752  1.0000
  H   H402      1.0  0.21408  0.72775  0.95422  1.0000
  C   C409      1.0  0.51707  0.72041  0.73396  1.0000
  H   H403      1.0  0.30452  0.75494  0.99860  1.0000
  C   C410      1.0  0.47324  0.56396  0.84342  1.0000
  H   H404      1.0  0.17395  0.74513  0.95735  1.0000
  H   H405      1.0  0.18351  0.69361  0.80269  1.0000
  H   H406      1.0  0.35313  0.55996  0.80887  1.0000
  H   H407      1.0  0.14215  0.71484  0.00370  1.0000
  H   H408      1.0  0.31634  0.60528  0.77081  1.0000
  H   H409      1.0  0.20141  0.54397  0.62983  1.0000
  H   H410      1.0  0.47452  0.76572  0.89988  1.0000
  C   C411      1.0  0.29429  0.52892  0.78892  1.0000
  C   C412      1.0  0.45210  0.57989  0.88797  1.0000
  H   H411      1.0  0.36393  0.59012  0.79741  1.0000
  H   H412      1.0  0.30459  0.52948  0.80637  1.0000
  C   C413      1.0  0.48039  0.58714  0.85342  1.0000
  H   H413      1.0  0.30659  0.73703  0.54719  1.0000
  C   C414      1.0  0.22295  0.74607  0.55014  1.0000
  H   H414      1.0  0.33257  0.58633  0.81004  1.0000
  N   N35       1.0  0.39154  0.75279  0.96739  1.0000
  C   C415      1.0  0.15935  0.55994  0.60814  1.0000
  Fe  Fe73      1.0  0.03393  0.69997  0.85893  1.0000
  H   H415      1.0  0.12106  0.57351  0.60725  1.0000
  C   C416      1.0  0.22306  0.74017  0.96832  1.0000
  H   H416      1.0  0.15506  0.54497  0.62137  1.0000
  C   C417      1.0  0.25596  0.75729  0.57790  1.0000
  C   C418      1.0  0.18064  0.75860  0.97096  1.0000
  H   H417      1.0  0.25340  0.71121  0.59391  1.0000
  N   N36       1.0  0.23939  0.73984  0.56889  1.0000
  C   C419      1.0  0.23916  0.71412  0.57895  1.0000
  H   H418      1.0  0.35586  0.76151  0.95185  1.0000
  H   H419      1.0  0.03296  0.71397  0.92523  1.0000
  H   H420      1.0  0.23941  0.74970  0.95950  1.0000
  H   H421      1.0  0.45283  0.52385  0.82438  1.0000
  H   H422      1.0  0.07430  0.74540  0.74163  1.0000
  H   H423      1.0  0.22249  0.55557  0.60666  1.0000
  H   H424      1.0  0.46212  0.76974  0.97162  1.0000
  C   C420      1.0  0.05676  0.76798  0.71280  1.0000
  C   C421      1.0  0.02601  0.69496  0.93059  1.0000
  H   H425      1.0  0.26940  0.75232  0.59240  1.0000
  H   H426      1.0  0.02215  0.68484  0.91286  1.0000
  C   C422      1.0  0.07399  0.76348  0.73205  1.0000
  H   H427      1.0  0.34189  0.52680  0.72895  1.0000
  H   H428      1.0  0.04125  0.68504  0.94095  1.0000
  C   C423      1.0  0.51480  0.76843  0.77552  1.0000
  H   H429      1.0  0.44536  0.77002  0.81615  1.0000
  S   S143      1.0  0.38824  0.87693  0.49696  1.0000
  Fe  Fe74      1.0  0.10260  0.89098  0.32792  1.0000
  S   S144      1.0  0.09287  0.89214  0.36850  1.0000
  S   S145      1.0  0.12510  0.92149  0.30836  1.0000
  Fe  Fe75      1.0  0.07698  0.83953  0.32124  1.0000
  S   S146      1.0  0.06516  0.83748  0.36163  1.0000
  S   S147      1.0  0.07604  0.80490  0.29676  1.0000
  Fe  Fe76      1.0  0.05489  0.87851  0.35595  1.0000
  Fe  Fe77      1.0  0.10417  0.85140  0.36998  1.0000
  S   S148      1.0  0.13420  0.83798  0.39723  1.0000
  S   S149      1.0  0.06403  0.87947  0.31487  1.0000
  S   S150      1.0  0.11656  0.85131  0.32999  1.0000
  C   C424      1.0  0.29627  0.81298  0.02351  1.0000
  Fe  Fe78      1.0  0.47283  0.84922  0.37808  1.0000
  S   S151      1.0  0.48510  0.88949  0.37749  1.0000
  S   S152      1.0  0.45600  0.82860  0.41160  1.0000
  Fe  Fe79      1.0  0.49482  0.83977  0.32592  1.0000
  S   S153      1.0  0.49386  0.81295  0.29311  1.0000
  Fe  Fe80      1.0  0.47181  0.89057  0.33739  1.0000
  S   S154      1.0  0.44828  0.92353  0.32314  1.0000
  C   C425      1.0  0.51518  0.89412  0.43348  1.0000
  S   S155      1.0  0.45638  0.85131  0.33934  1.0000
  H   H430      1.0  0.41311  0.88203  0.30966  1.0000
  Fe  Fe81      1.0  0.38984  0.96892  0.19628  1.0000
  S   S156      1.0  0.35083  0.95364  0.19196  1.0000
  S   S157      1.0  0.41899  0.93998  0.20844  1.0000
  Fe  Fe82      1.0  0.34970  0.97450  0.15532  1.0000
  S   S158      1.0  0.33280  0.95678  0.12065  1.0000
  Fe  Fe83      1.0  0.33828  0.98970  0.20962  1.0000
  S   S159      1.0  0.31409  0.98581  0.24426  1.0000
  S   S160      1.0  0.38974  0.98714  0.15803  1.0000
  C   C426      1.0  0.48344  0.88527  0.46452  1.0000
  H   H431      1.0  0.09775  0.79678  0.39974  1.0000
  H   H432      1.0  0.20082  0.93514  0.33504  1.0000
  C   C427      1.0  0.35880  0.78203  0.49757  1.0000
  H   H433      1.0  0.20384  0.80593  0.02027  1.0000
  H   H434      1.0  0.39989  0.90079  0.33364  1.0000
  H   H435      1.0  0.28427  0.99304  0.28820  1.0000
  C   C428      1.0  0.44191  0.92866  0.29092  1.0000
  C   C429      1.0  0.42764  0.94976  0.28366  1.0000
  C   C430      1.0  0.42085  0.95369  0.25844  1.0000
  C   C431      1.0  0.42834  0.93654  0.24017  1.0000
  C   C432      1.0  0.44286  0.91557  0.24738  1.0000
  C   C433      1.0  0.44955  0.91158  0.27264  1.0000
  H   H436      1.0  0.42170  0.96310  0.29766  1.0000
  H   H437      1.0  0.40978  0.96996  0.25317  1.0000
  H   H438      1.0  0.44885  0.90224  0.23341  1.0000
  H   H439      1.0  0.46060  0.89529  0.27797  1.0000
  H   H440      1.0  0.35049  0.94690  0.24710  1.0000
  C   C434      1.0  0.29157  0.00889  0.25168  1.0000
  C   C435      1.0  0.37858  0.92060  0.05755  1.0000
  C   C436      1.0  0.39057  0.93619  0.07503  1.0000
  C   C437      1.0  0.37674  0.94787  0.09417  1.0000
  C   C438      1.0  0.35074  0.94417  0.09585  1.0000
  C   C439      1.0  0.33865  0.92931  0.07783  1.0000
  C   C440      1.0  0.35250  0.91748  0.05880  1.0000
  H   H441      1.0  0.41073  0.93879  0.07410  1.0000
  H   H442      1.0  0.38625  0.95938  0.10781  1.0000
  H   H443      1.0  0.31852  0.92640  0.07898  1.0000
  H   H444      1.0  0.34304  0.90547  0.04553  1.0000
  H   H445      1.0  0.05354  0.84640  0.23612  1.0000
  H   H446      1.0  0.38223  0.87427  0.32183  1.0000
  H   H447      1.0  0.46868  0.89153  0.47706  1.0000
  H   H448      1.0  0.18700  0.92576  0.41305  1.0000
  C   C441      1.0  0.13823  0.94641  0.32569  1.0000
  C   C442      1.0  0.13490  0.94807  0.35157  1.0000
  C   C443      1.0  0.14593  0.96785  0.36495  1.0000
  C   C444      1.0  0.16019  0.98627  0.35256  1.0000
  C   C445      1.0  0.16347  0.98476  0.32667  1.0000
  C   C446      1.0  0.15250  0.96487  0.31329  1.0000
  H   H449      1.0  0.12407  0.93403  0.36138  1.0000
  H   H450      1.0  0.14341  0.96886  0.38500  1.0000
  H   H451      1.0  0.17469  0.99872  0.31697  1.0000
  H   H452      1.0  0.15524  0.96371  0.29326  1.0000
  C   C447      1.0  0.04888  0.79495  0.28063  1.0000
  C   C448      1.0  0.04358  0.79529  0.19963  1.0000
  H   H453      1.0  0.21194  0.96762  0.36309  1.0000
  H   H454      1.0  0.07006  0.94868  0.30610  1.0000
  C   C449      1.0  0.13580  0.80684  0.40916  1.0000
  C   C450      1.0  0.15840  0.79831  0.41997  1.0000
  H   H455      1.0  0.05550  0.93977  0.34945  1.0000
  S   S161      1.0  0.50937  0.87934  0.32195  1.0000
  H   H456      1.0  0.17425  0.81098  0.42138  1.0000
  C   C451      1.0  0.40795  0.86354  0.47388  1.0000
  C   C452      1.0  0.41320  0.87741  0.45200  1.0000
  C   C453      1.0  0.42801  0.86709  0.43277  1.0000
  C   C454      1.0  0.43722  0.84254  0.43505  1.0000
  C   C455      1.0  0.43186  0.82863  0.45687  1.0000
  C   C456      1.0  0.41765  0.83920  0.47637  1.0000
  H   H457      1.0  0.40579  0.89627  0.44991  1.0000
  H   H458      1.0  0.43209  0.87802  0.41611  1.0000
  H   H459      1.0  0.43903  0.80966  0.45885  1.0000
  H   H460      1.0  0.41415  0.82842  0.49322  1.0000
  H   H461      1.0  0.16257  0.88690  0.40468  1.0000
  N   N37       1.0  0.34380  0.81291  0.46807  1.0000
  N   N38       1.0  0.41460  0.90891  0.13742  1.0000
  C   C457      1.0  0.41648  0.89425  0.11655  1.0000
  C   C458      1.0  0.39178  0.91255  0.14862  1.0000
  C   C459      1.0  0.39503  0.88322  0.10608  1.0000
  C   C460      1.0  0.36994  0.90194  0.13859  1.0000
  C   C461      1.0  0.37162  0.88725  0.11714  1.0000
  C   C462      1.0  0.43709  0.92040  0.14839  1.0000
  H   H462      1.0  0.43450  0.89143  0.10750  1.0000
  H   H463      1.0  0.39036  0.92411  0.16517  1.0000
  H   H464      1.0  0.39642  0.87251  0.08891  1.0000
  H   H465      1.0  0.35171  0.90588  0.14685  1.0000
  H   H466      1.0  0.44239  0.91027  0.16590  1.0000
  H   H467      1.0  0.45335  0.92018  0.13536  1.0000
  H   H468      1.0  0.43337  0.94039  0.15323  1.0000
  N   N39       1.0  0.38328  0.90598  0.29748  1.0000
  C   C463      1.0  0.38437  0.89909  0.27289  1.0000
  C   C464      1.0  0.37041  0.92714  0.30435  1.0000
  C   C465      1.0  0.37252  0.91364  0.25441  1.0000
  C   C466      1.0  0.35832  0.94211  0.28632  1.0000
  C   C467      1.0  0.35943  0.93524  0.26124  1.0000
  C   C468      1.0  0.26617  0.78297  0.04111  1.0000
  H   H469      1.0  0.39505  0.88266  0.26738  1.0000
  H   H470      1.0  0.36979  0.93277  0.32380  1.0000
  H   H471      1.0  0.37421  0.90871  0.23482  1.0000
  H   H472      1.0  0.34835  0.95909  0.29159  1.0000
  H   H473      1.0  0.36932  0.82105  0.49758  1.0000
  C   C469      1.0  0.34416  0.83888  0.45865  1.0000
  H   H474      1.0  0.06727  0.96883  0.38368  1.0000
  H   H475      1.0  0.50443  0.78958  0.24636  1.0000
  S   S162      1.0  0.24025  0.77711  0.06095  1.0000
  C   C470      1.0  0.06663  0.95648  0.34544  1.0000
  S   S163      1.0  0.51016  0.83413  0.36486  1.0000
  C   C471      1.0  0.19290  0.92442  0.35048  1.0000
  H   H476      1.0  0.47886  0.84634  0.47423  1.0000
  H   H477      1.0  0.02644  0.82749  0.28914  1.0000
  H   H478      1.0  0.11050  0.79456  0.33770  1.0000
  H   H479      1.0  0.27900  0.80503  0.48951  1.0000
  C   C472      1.0  0.32968  0.79496  0.45635  1.0000
  C   C473      1.0  0.16829  0.88908  0.36489  1.0000
  S   S164      1.0  0.37752  0.00401  0.21578  1.0000
  S   S165      1.0  0.17431  0.01024  0.37030  1.0000
  H   H480      1.0  0.10116  0.78285  0.22263  1.0000
  H   H481      1.0  0.49207  0.92246  0.45064  1.0000
  C   C474      1.0  0.18494  0.91932  0.39394  1.0000
  C   C475      1.0  0.27618  0.80738  0.03975  1.0000
  H   H482      1.0  0.22927  0.95005  0.38654  1.0000
  C   C476      1.0  0.11535  0.79035  0.40769  1.0000
  C   C477      1.0  0.48916  0.85966  0.46271  1.0000
  H   H483      1.0  0.35470  0.87969  0.10863  1.0000
  C   C478      1.0  0.17115  0.89740  0.38939  1.0000
  H   H484      1.0  0.36796  0.02018  0.09080  1.0000
  C   C479      1.0  0.21016  0.95527  0.37990  1.0000
  C   C480      1.0  0.02725  0.80988  0.27917  1.0000
  H   H485      1.0  0.15747  0.87224  0.36117  1.0000
  H   H486      1.0  0.20068  0.96686  0.39437  1.0000
  S   S166      1.0  0.33296  0.00937  0.17251  1.0000
  C   C481      1.0  0.03896  0.81845  0.21097  1.0000
  N   N40       1.0  0.09574  0.99887  0.33526  1.0000
  H   H487      1.0  0.15498  0.79558  0.35124  1.0000
  N   N41       1.0  0.19544  0.93261  0.37457  1.0000
  C   C482      1.0  0.28492  0.79021  0.50219  1.0000
  H   H488      1.0  0.26823  0.82211  0.05115  1.0000
  C   C483      1.0  0.39503  0.88990  0.31660  1.0000
  H   H489      1.0  0.17631  0.89671  0.32606  1.0000
  C   C484      1.0  0.17917  0.90263  0.34526  1.0000
  C   C485      1.0  0.52114  0.79777  0.28214  1.0000
  C   C486      1.0  0.07986  0.81615  0.23044  1.0000
  C   C487      1.0  0.07325  0.97281  0.36466  1.0000
  H   H490      1.0  0.02886  0.78691  0.18837  1.0000
  N   N42       1.0  0.50681  0.85146  0.44603  1.0000
  H   H491      1.0  0.09374  0.82366  0.24330  1.0000
  C   C488      1.0  0.27991  0.00814  0.27524  1.0000
  C   C489      1.0  0.49650  0.90257  0.44970  1.0000
  C   C490      1.0  0.11881  0.77789  0.34609  1.0000
  S   S167      1.0  0.39709  0.90424  0.03551  1.0000
  C   C491      1.0  0.05725  0.82891  0.22647  1.0000
  C   C492      1.0  0.08783  0.99411  0.35920  1.0000
  H   H492      1.0  0.09313  0.00661  0.37427  1.0000
  C   C493      1.0  0.08386  0.79300  0.21881  1.0000
  H   H493      1.0  0.34308  0.85238  0.47444  1.0000
  C   C494      1.0  0.51228  0.82455  0.44385  1.0000
  C   C495      1.0  0.52006  0.86833  0.43183  1.0000
  H   H494      1.0  0.31791  0.79983  0.44045  1.0000
  C   C496      1.0  0.16085  0.77334  0.42860  1.0000
  H   H495      1.0  0.36202  0.84246  0.44840  1.0000
  Fe  Fe84      1.0  0.37328  0.02099  0.17719  1.0000
  C   C497      1.0  0.35834  0.80670  0.48830  1.0000
  C   C498      1.0  0.08909  0.98308  0.31626  1.0000
  C   C499      1.0  0.07459  0.96160  0.32108  1.0000
  H   H496      1.0  0.32802  0.84290  0.44602  1.0000
  H   H497      1.0  0.49614  0.81292  0.45037  1.0000
  H   H498      1.0  0.36966  0.77735  0.51419  1.0000
  N   N43       1.0  0.06590  0.78298  0.20346  1.0000
  H   H499      1.0  0.30374  0.83188  0.02248  1.0000
  C   C500      1.0  0.14409  0.77845  0.35338  1.0000
  H   H500      1.0  0.09552  0.98663  0.29731  1.0000
  C   C501      1.0  0.52053  0.78662  0.25843  1.0000
  H   H501      1.0  0.51531  0.81951  0.42391  1.0000
  Fe  Fe85      1.0  0.52163  0.87471  0.36220  1.0000
  H   H502      1.0  0.12278  0.01903  0.31327  1.0000
  H   H503      1.0  0.06916  0.77549  0.34623  1.0000
  C   C502      1.0  0.04972  0.77213  0.26760  1.0000
  C   C503      1.0  0.07971  0.96911  0.67922  1.0000
  C   C504      1.0  0.08881  0.80618  0.72772  1.0000
  S   S168      1.0  0.05672  0.88692  0.65953  1.0000
  C   C505      1.0  0.23984  0.78816  0.54867  1.0000
  Fe  Fe86      1.0  0.35681  0.87078  0.58660  1.0000
  S   S169      1.0  0.36653  0.83210  0.60076  1.0000
  S   S170      1.0  0.34113  0.89669  0.61666  1.0000
  Fe  Fe87      1.0  0.38101  0.86013  0.53561  1.0000
  S   S171      1.0  0.39240  0.82098  0.54662  1.0000
  Fe  Fe88      1.0  0.35370  0.81850  0.56326  1.0000
  C   C506      1.0  0.25632  0.78174  0.56804  1.0000
  Fe  Fe89      1.0  0.40426  0.83817  0.58309  1.0000
  S   S172      1.0  0.43881  0.82307  0.60318  1.0000
  S   S173      1.0  0.34112  0.85672  0.55005  1.0000
  S   S174      1.0  0.39571  0.87777  0.57104  1.0000
  Fe  Fe90      1.0  0.17736  0.96150  0.69977  1.0000
  S   S175      1.0  0.17510  0.97494  0.66002  1.0000
  S   S176      1.0  0.14516  0.94096  0.71916  1.0000
  Fe  Fe91      1.0  0.22840  0.98736  0.70812  1.0000
  H   H504      1.0  0.46182  0.89837  0.69683  1.0000
  H   H505      1.0  0.25007  0.01035  0.81414  1.0000
  H   H506      1.0  0.30918  0.81443  0.52377  1.0000
  Fe  Fe92      1.0  0.21622  0.96470  0.65754  1.0000
  S   S177      1.0  0.23251  0.94623  0.62280  1.0000
  S   S178      1.0  0.18835  0.99926  0.71553  1.0000
  S   S179      1.0  0.21751  0.94825  0.69625  1.0000
  H   H507      1.0  0.03171  0.83160  0.75637  1.0000
  Fe  Fe93      1.0  0.35159  0.88937  0.95445  1.0000
  S   S180      1.0  0.39212  0.89529  0.96425  1.0000
  S   S181      1.0  0.32824  0.91955  0.93498  1.0000
  Fe  Fe94      1.0  0.34953  0.83868  0.98219  1.0000
  S   S182      1.0  0.38979  0.84206  0.99475  1.0000
  S   S183      1.0  0.33165  0.80019  0.98778  1.0000
  C   C507      1.0  0.08726  0.97749  0.70283  1.0000
  Fe  Fe95      1.0  0.39732  0.85428  0.95524  1.0000
  S   S184      1.0  0.43173  0.83944  0.93471  1.0000
  S   S185      1.0  0.33961  0.87828  0.99352  1.0000
  S   S186      1.0  0.35757  0.84936  0.94212  1.0000
  H   H508      1.0  0.48802  0.78950  0.82357  1.0000
  C   C508      1.0  0.44181  0.81483  0.85807  1.0000
  H   H509      1.0  0.44408  0.84975  0.87838  1.0000
  C   C509      1.0  0.43230  0.80882  0.92204  1.0000
  C   C510      1.0  0.45544  0.79823  0.91493  1.0000
  C   C511      1.0  0.05199  0.78140  0.79142  1.0000
  H   H510      1.0  0.35486  0.98156  0.82795  1.0000
  H   H511      1.0  0.47262  0.80882  0.91756  1.0000
  C   C512      1.0  0.45085  0.88294  0.68930  1.0000
  H   H512      1.0  0.10274  0.77966  0.75537  1.0000
  H   H513      1.0  0.06485  0.95521  0.67749  1.0000
  H   H514      1.0  0.38902  0.00129  0.94241  1.0000
  H   H515      1.0  0.42429  0.90696  0.67062  1.0000
  C   C513      1.0  0.46201  0.84177  0.61770  1.0000
  C   C514      1.0  0.48203  0.82977  0.63017  1.0000
  C   C515      1.0  0.49937  0.84371  0.64435  1.0000
  C   C516      1.0  0.49668  0.86977  0.64629  1.0000
  C   C517      1.0  0.47722  0.88188  0.63305  1.0000
  C   C518      1.0  0.46000  0.86796  0.61867  1.0000
  H   H516      1.0  0.48375  0.80952  0.62936  1.0000
  H   H517      1.0  0.26622  0.99492  0.62976  1.0000
  H   H518      1.0  0.47512  0.90206  0.63441  1.0000
  H   H519      1.0  0.44489  0.87744  0.60886  1.0000
  C   C519      1.0  0.05066  0.80607  0.78191  1.0000
  S   S187      1.0  0.26470  0.99004  0.73058  1.0000
  C   C520      1.0  0.42420  0.78128  0.97996  1.0000
  C   C521      1.0  0.30928  0.90646  0.61880  1.0000
  C   C522      1.0  0.29370  0.90792  0.59773  1.0000
  C   C523      1.0  0.26977  0.91926  0.59948  1.0000
  C   C524      1.0  0.26111  0.92901  0.62230  1.0000
  C   C525      1.0  0.27622  0.92643  0.64361  1.0000
  C   C526      1.0  0.30025  0.91539  0.64181  1.0000
  H   H520      1.0  0.30043  0.90121  0.57989  1.0000
  H   H521      1.0  0.25817  0.92108  0.58291  1.0000
  H   H522      1.0  0.26959  0.93345  0.66135  1.0000
  H   H523      1.0  0.31210  0.91421  0.65824  1.0000
  C   C527      1.0  0.36416  0.98376  0.88945  1.0000
  C   C528      1.0  0.37839  0.96244  0.89606  1.0000
  C   C529      1.0  0.36770  0.94272  0.91015  1.0000
  C   C530      1.0  0.34242  0.94386  0.91721  1.0000
  C   C531      1.0  0.32805  0.96504  0.91036  1.0000
  C   C532      1.0  0.33898  0.98513  0.89692  1.0000
  H   H524      1.0  0.39787  0.96120  0.89029  1.0000
  H   H525      1.0  0.37892  0.92649  0.91524  1.0000
  H   H526      1.0  0.30847  0.96606  0.91578  1.0000
  H   H527      1.0  0.32787  0.00154  0.89226  1.0000
  C   C533      1.0  0.29620  0.01697  0.76085  1.0000
  C   C534      1.0  0.27394  0.97902  0.80469  1.0000
  C   C535      1.0  0.03290  0.81249  0.76336  1.0000
  H   H528      1.0  0.05663  0.84694  0.70662  1.0000
  H   H529      1.0  0.32209  0.93977  0.98846  1.0000
  C   C536      1.0  0.12123  0.92505  0.70246  1.0000
  C   C537      1.0  0.10002  0.91606  0.71544  1.0000
  C   C538      1.0  0.08004  0.90440  0.70261  1.0000
  C   C539      1.0  0.08130  0.90129  0.67667  1.0000
  C   C540      1.0  0.10268  0.90994  0.66377  1.0000
  C   C541      1.0  0.12249  0.92188  0.67655  1.0000
  H   H530      1.0  0.09891  0.91840  0.73550  1.0000
  H   H531      1.0  0.06369  0.89789  0.71277  1.0000
  H   H532      1.0  0.10387  0.90751  0.64372  1.0000
  H   H533      1.0  0.13875  0.92858  0.66634  1.0000
  H   H534      1.0  0.34429  0.99392  0.95248  1.0000
  H   H535      1.0  0.08712  0.97081  0.63964  1.0000
  C   C542      1.0  0.29763  0.96801  0.80816  1.0000
  H   H536      1.0  0.39227  0.80307  0.92372  1.0000
  N   N44       1.0  0.35195  0.96487  0.97921  1.0000
  C   C543      1.0  0.17178  0.79270  0.99917  1.0000
  C   C544      1.0  0.31345  0.96934  0.59594  1.0000
  H   H537      1.0  0.49408  0.79148  0.74928  1.0000
  H   H538      1.0  0.50956  0.82866  0.83611  1.0000
  H   H539      1.0  0.38464  0.78805  0.98469  1.0000
  N   N45       1.0  0.10652  0.99440  0.70513  1.0000
  C   C545      1.0  0.11900  0.00290  0.68439  1.0000
  C   C546      1.0  0.27206  0.01561  0.75016  1.0000
  C   C547      1.0  0.45654  0.77391  0.90471  1.0000
  C   C548      1.0  0.33070  0.96527  0.61523  1.0000
  H   H540      1.0  0.24047  0.80680  0.54032  1.0000
  H   H541      1.0  0.08909  0.84504  0.69696  1.0000
  H   H542      1.0  0.31016  0.00296  0.75621  1.0000
  C   C549      1.0  0.35859  0.98311  0.96227  1.0000
  C   C550      1.0  0.44213  0.77433  0.83622  1.0000
  S   S188      1.0  0.33176  0.78205  0.56178  1.0000
  H   H543      1.0  0.26996  0.79533  0.57476  1.0000
  H   H544      1.0  0.42305  0.81072  0.86495  1.0000
  S   S189      1.0  0.37840  0.00749  0.87093  1.0000
  H   H545      1.0  0.31763  0.96299  0.57715  1.0000
  C   C551      1.0  0.47811  0.84207  0.85778  1.0000
  H   H546      1.0  0.09949  0.00101  0.74391  1.0000
  C   C552      1.0  0.39556  0.95576  0.98699  1.0000
  C   C553      1.0  0.21372  0.77585  0.99527  1.0000
  H   H547      1.0  0.40977  0.94479  0.99682  1.0000
  C   C554      1.0  0.38391  0.98751  0.95663  1.0000
  N   N46       1.0  0.45408  0.79817  0.84296  1.0000
  H   H548      1.0  0.13473  0.01567  0.68628  1.0000
  H   H549      1.0  0.06495  0.83383  0.67672  1.0000
  H   H550      1.0  0.30203  0.95087  0.79823  1.0000
  C   C555      1.0  0.09005  0.78270  0.73969  1.0000
  C   C556      1.0  0.29031  0.98050  0.60117  1.0000
  N   N47       1.0  0.30172  0.98331  0.64460  1.0000
  H   H551      1.0  0.07812  0.96981  0.71931  1.0000
  H   H552      1.0  0.28083  0.97542  0.67753  1.0000
  C   C557      1.0  0.49046  0.82499  0.84233  1.0000
  H   H553      1.0  0.33981  0.95692  0.84576  1.0000
  C   C558      1.0  0.37004  0.95160  0.99186  1.0000
  C   C559      1.0  0.45363  0.83698  0.86574  1.0000
  H   H554      1.0  0.27626  0.98273  0.58657  1.0000
  C   C560      1.0  0.31002  0.77634  0.53765  1.0000
  C   C561      1.0  0.07064  0.83518  0.69671  1.0000
  C   C562      1.0  0.41021  0.79504  0.91850  1.0000
  N   N48       1.0  0.31509  0.97899  0.82346  1.0000
  H   H555      1.0  0.10096  0.82121  0.73412  1.0000
  S   S190      1.0  0.22878  0.00323  0.66904  1.0000
  H   H556      1.0  0.33760  0.96819  0.65463  1.0000
  H   H557      1.0  0.51420  0.83419  0.65452  1.0000
  H   H558      1.0  0.21047  0.77488  0.52422  1.0000
  N   N49       1.0  0.07219  0.81027  0.70853  1.0000
  C   C563      1.0  0.09229  0.97779  0.65796  1.0000
  H   H559      1.0  0.13074  0.99024  0.73632  1.0000
  N   N50       1.0  0.41691  0.86821  0.66349  1.0000
  C   C564      1.0  0.42976  0.88764  0.67427  1.0000
  C   C565      1.0  0.42472  0.84392  0.66700  1.0000
  C   C566      1.0  0.44569  0.83854  0.68198  1.0000
  C   C567      1.0  0.45883  0.85822  0.69314  1.0000
  C   C568      1.0  0.39572  0.87331  0.64663  1.0000
  H   H560      1.0  0.41538  0.82866  0.65728  1.0000
  H   H561      1.0  0.45241  0.81937  0.68388  1.0000
  H   H562      1.0  0.47593  0.85452  0.70369  1.0000
  H   H563      1.0  0.37965  0.86060  0.65085  1.0000
  H   H564      1.0  0.38866  0.89291  0.64823  1.0000
  H   H565      1.0  0.40164  0.87027  0.62698  1.0000
  H   H566      1.0  0.31930  0.97123  0.00108  1.0000
  C   C569      1.0  0.28470  0.98734  0.62576  1.0000
  C   C570      1.0  0.29474  0.98935  0.67041  1.0000
  C   C571      1.0  0.30653  0.79412  0.00857  1.0000
  H   H567      1.0  0.12229  0.00155  0.64421  1.0000
  H   H568      1.0  0.06330  0.82028  0.78902  1.0000
  C   C572      1.0  0.19712  0.79302  0.00608  1.0000
  C   C573      1.0  0.11202  0.99489  0.66051  1.0000
  C   C574      1.0  0.30947  0.00066  0.83586  1.0000
  C   C575      1.0  0.32533  0.96013  0.98464  1.0000
  H   H569      1.0  0.36479  0.93739  0.00555  1.0000
  C   C576      1.0  0.40248  0.97362  0.96902  1.0000
  H   H570      1.0  0.34827  0.95559  0.61150  1.0000
  H   H571      1.0  0.28618  0.00838  0.67141  1.0000
  H   H572      1.0  0.42218  0.97662  0.96461  1.0000
  C   C577      1.0  0.32447  0.97233  0.63963  1.0000
  Fe  Fe96      1.0  0.38062  0.88251  0.00277  1.0000
  C   C578      1.0  0.47815  0.80292  0.83520  1.0000
  C   C579      1.0  0.33970  0.96712  0.82751  1.0000
  H   H573      1.0  0.31329  0.96493  0.96825  1.0000
  H   H574      1.0  0.04201  0.79523  0.68689  1.0000
  H   H575      1.0  0.34445  0.95374  0.81239  1.0000
  C   C580      1.0  0.05596  0.79170  0.70133  1.0000
  C   C581      1.0  0.51244  0.78702  0.75686  1.0000
  C   C582      1.0  0.11491  0.00239  0.72997  1.0000
  H   H576      1.0  0.42978  0.79932  0.98757  1.0000
  H   H577      1.0  0.31117  0.98913  0.68327  1.0000
  H   H578      1.0  0.32345  0.00936  0.84776  1.0000
  H   H579      1.0  0.15858  0.80552  0.00784  1.0000
  Fe  Fe97      1.0  0.18789  0.01204  0.67539  1.0000
  H   H580      1.0  0.48756  0.85907  0.86383  1.0000
  H   H581      1.0  0.26047  0.97088  0.79176  1.0000
  S   S191      1.0  0.51496  0.88724  0.66766  1.0000
  C   C583      1.0  0.39873  0.77493  0.97808  1.0000
  H   H582      1.0  0.02644  0.78066  0.84354  1.0000
  H   H583      1.0  0.14376  0.77475  0.97605  1.0000
  C   C584      1.0  0.16346  0.77546  0.98140  1.0000
  S   S192      1.0  0.07441  0.77390  0.81459  1.0000
  C   C585      1.0  0.30204  0.79555  0.52149  1.0000
  C   C586      1.0  0.26807  0.00117  0.81725  1.0000
  C   C587      1.0  0.28589  0.01207  0.83299  1.0000
  H   H584      1.0  0.42148  0.77464  0.83942  1.0000
  H   H585      1.0  0.23326  0.77597  0.00099  1.0000
  H   H586      1.0  0.57182  0.20161  0.46305  1.0000
  S   S193      1.0  0.89921  0.06101  0.36994  1.0000
  Fe  Fe98      1.0  0.72472  0.08521  0.21646  1.0000
  S   S194      1.0  0.68557  0.07015  0.22075  1.0000
  S   S195      1.0  0.74703  0.08659  0.25261  1.0000
  Fe  Fe99      1.0  0.71557  0.10007  0.16158  1.0000
  S   S196      1.0  0.67559  0.08640  0.16224  1.0000
  S   S197      1.0  0.73484  0.11426  0.12624  1.0000
  Fe  Fe100     1.0  0.67348  0.10489  0.20016  1.0000
  S   S198      1.0  0.64195  0.13101  0.21227  1.0000
  Fe  Fe101     1.0  0.69156  0.05291  0.18281  1.0000
  S   S199      1.0  0.71241  0.12116  0.19772  1.0000
  S   S200      1.0  0.73179  0.06530  0.18020  1.0000
  Fe  Fe102     1.0  0.56869  0.23129  0.33181  1.0000
  S   S201      1.0  0.55313  0.19274  0.32414  1.0000
  C   C588      1.0  0.78292  0.05224  0.23797  1.0000
  Fe  Fe103     1.0  0.58746  0.21669  0.38427  1.0000
  S   S202      1.0  0.57380  0.17706  0.38057  1.0000
  S   S203      1.0  0.60349  0.23524  0.41902  1.0000
  Fe  Fe104     1.0  0.58926  0.17873  0.34121  1.0000
  S   S204      1.0  0.61377  0.14682  0.32682  1.0000
  Fe  Fe105     1.0  0.53886  0.19438  0.36397  1.0000
  S   S205      1.0  0.60582  0.21717  0.34651  1.0000
  S   S206      1.0  0.55150  0.23403  0.37003  1.0000
  S   S207      1.0  0.68579  0.19104  0.04829  1.0000
  H   H587      1.0  0.80710  0.04122  0.30587  1.0000
  Fe  Fe106     1.0  0.96986  0.18418  0.33570  1.0000
  S   S208      1.0  0.97998  0.17831  0.37595  1.0000
  S   S209      1.0  0.95079  0.15313  0.31373  1.0000
  Fe  Fe107     1.0  0.99643  0.23527  0.33332  1.0000
  C   C589      1.0  0.67254  0.11787  0.05175  1.0000
  Fe  Fe108     1.0  0.96964  0.21904  0.38097  1.0000
  S   S210      1.0  0.94848  0.23227  0.41548  1.0000
  C   C590      1.0  0.93325  0.26180  0.41611  1.0000
  S   S211      1.0  0.95635  0.22393  0.34140  1.0000
  H   H588      1.0  0.71368  0.13073  0.25376  1.0000
  C   C591      1.0  0.01301  0.12540  0.33549  1.0000
  H   H589      1.0  0.92981  0.26163  0.45631  1.0000
  C   C592      1.0  0.70392  0.08371  0.07580  1.0000
  H   H590      1.0  0.84886  0.07715  0.34551  1.0000
  H   H591      1.0  0.58268  0.22487  0.50154  1.0000
  C   C593      1.0  0.87063  0.24275  0.44226  1.0000
  H   H592      1.0  0.84658  0.07280  0.25216  1.0000
  H   H593      1.0  0.87916  0.11976  0.26880  1.0000
  H   H594      1.0  0.61764  0.13994  0.48856  1.0000
  H   H595      1.0  0.73608  0.21219  0.08115  1.0000
  C   C594      1.0  0.58952  0.20581  0.49927  1.0000
  H   H596      1.0  0.86479  0.22227  0.47673  1.0000
  C   C595      1.0  0.62532  0.22020  0.43918  1.0000
  C   C596      1.0  0.63319  0.23271  0.46087  1.0000
  C   C597      1.0  0.64932  0.22085  0.47821  1.0000
  C   C598      1.0  0.65782  0.19636  0.47398  1.0000
  C   C599      1.0  0.65046  0.18408  0.45194  1.0000
  C   C600      1.0  0.63421  0.19590  0.43462  1.0000
  H   H597      1.0  0.62655  0.25157  0.46446  1.0000
  H   H598      1.0  0.65503  0.23063  0.49491  1.0000
  H   H599      1.0  0.65701  0.16515  0.44848  1.0000
  H   H600      1.0  0.62833  0.18610  0.41793  1.0000
  C   C601      1.0  0.72157  0.13702  0.10581  1.0000
  C   C602      1.0  0.69832  0.14833  0.11059  1.0000
  C   C603      1.0  0.68780  0.16526  0.09304  1.0000
  C   C604      1.0  0.70028  0.17079  0.07050  1.0000
  C   C605      1.0  0.72376  0.15983  0.06600  1.0000
  C   C606      1.0  0.73437  0.14313  0.08361  1.0000
  H   H601      1.0  0.68832  0.14385  0.12768  1.0000
  H   H602      1.0  0.66971  0.17378  0.09680  1.0000
  H   H603      1.0  0.73372  0.16401  0.04891  1.0000
  H   H604      1.0  0.75242  0.13453  0.07985  1.0000
  C   C607      1.0  0.63229  0.13364  0.24389  1.0000
  C   C608      1.0  0.61589  0.15319  0.25069  1.0000
  C   C609      1.0  0.60938  0.15705  0.27595  1.0000
  C   C610      1.0  0.61896  0.14110  0.29460  1.0000
  C   C611      1.0  0.63467  0.12103  0.28769  1.0000
  C   C612      1.0  0.64147  0.11742  0.26251  1.0000
  H   H605      1.0  0.60859  0.16575  0.23641  1.0000
  H   H606      1.0  0.59723  0.17253  0.28098  1.0000
  H   H607      1.0  0.64196  0.10844  0.30194  1.0000
  H   H608      1.0  0.65394  0.10220  0.25753  1.0000
  C   C613      1.0  0.91367  0.08630  0.35393  1.0000
  C   C614      1.0  0.91983  0.08490  0.32854  1.0000
  C   C615      1.0  0.93119  0.10555  0.31642  1.0000
  C   C616      1.0  0.93676  0.12758  0.32965  1.0000
  C   C617      1.0  0.93082  0.12888  0.35507  1.0000
  C   C618      1.0  0.91920  0.10836  0.36711  1.0000
  H   H609      1.0  0.91576  0.06802  0.31820  1.0000
  H   H610      1.0  0.93574  0.10444  0.29674  1.0000
  H   H611      1.0  0.93479  0.14584  0.36539  1.0000
  H   H612      1.0  0.91448  0.10960  0.38676  1.0000
  C   C619      1.0  0.78144  0.06199  0.28208  1.0000
  C   C620      1.0  0.77224  0.06564  0.25767  1.0000
  C   C621      1.0  0.80265  0.03525  0.24269  1.0000
  C   C622      1.0  0.66526  0.10746  0.07475  1.0000
  C   C623      1.0  0.60892  0.15807  0.49179  1.0000
  N   N51       1.0  0.99948  0.10988  0.35380  1.0000
  C   C624      1.0  0.81154  0.03123  0.26715  1.0000
  H   H613      1.0  0.67616  0.08279  0.10510  1.0000
  C   C625      1.0  0.80238  0.25457  0.08388  1.0000
  C   C626      1.0  0.68114  0.09036  0.08686  1.0000
  C   C627      1.0  0.68814  0.16213  0.25076  1.0000
  H   H614      1.0  0.98509  0.08514  0.32602  1.0000
  C   C628      1.0  0.67868  0.15293  0.32917  1.0000
  C   C629      1.0  0.87137  0.12378  0.30793  1.0000
  H   H615      1.0  0.77650  0.20636  0.03682  1.0000
  C   C630      1.0  0.00081  0.11537  0.37874  1.0000
  C   C631      1.0  0.87226  0.11037  0.28550  1.0000
  N   N52       1.0  0.68244  0.15677  0.30223  1.0000
  H   H616      1.0  0.87967  0.07983  0.24801  1.0000
  S   S212      1.0  0.00881  0.19602  0.32363  1.0000
  H   H617      1.0  0.88604  0.23088  0.43604  1.0000
  H   H618      1.0  0.64783  0.11325  0.08354  1.0000
  C   C632      1.0  0.81874  0.24286  0.06724  1.0000
  H   H619      1.0  0.71464  0.03269  0.26353  1.0000
  H   H620      1.0  0.61474  0.26747  0.37300  1.0000
  H   H621      1.0  0.77311  0.07223  0.29741  1.0000
  C   C633      1.0  0.86285  0.26327  0.42763  1.0000
  H   H622      1.0  0.68946  0.16351  0.23053  1.0000
  H   H623      1.0  0.72853  0.08948  0.04450  1.0000
  C   C634      1.0  0.97317  0.07424  0.36290  1.0000
  H   H624      1.0  0.85074  0.05435  0.30536  1.0000
  H   H625      1.0  0.82183  0.21641  0.03699  1.0000
  Fe  Fe109     1.0  0.01824  0.19194  0.36441  1.0000
  C   C635      1.0  0.69836  0.14110  0.28962  1.0000
  H   H626      1.0  0.69699  0.15302  0.33918  1.0000
  N   N53       1.0  0.86502  0.08568  0.28481  1.0000
  N   N54       1.0  0.76766  0.23165  0.06641  1.0000
  H   H627      1.0  0.66901  0.13468  0.33252  1.0000
  H   H628      1.0  0.96201  0.05844  0.35646  1.0000
  C   C636      1.0  0.97354  0.08029  0.38824  1.0000
  C   C637      1.0  0.52183  0.27040  0.29497  1.0000
  C   C638      1.0  0.86546  0.07196  0.26112  1.0000
  C   C639      1.0  0.78366  0.21970  0.05034  1.0000
  S   S213      1.0  0.00905  0.23218  0.37343  1.0000
  C   C640      1.0  0.80939  0.22522  0.05041  1.0000
  H   H629      1.0  0.98802  0.10582  0.41595  1.0000
  H   H630      1.0  0.77603  0.05502  0.21910  1.0000
  H   H631      1.0  0.87041  0.05183  0.26427  1.0000
  H   H632      1.0  0.96264  0.06922  0.40149  1.0000
  C   C641      1.0  0.85883  0.23802  0.46512  1.0000
  C   C642      1.0  0.70150  0.14359  0.26375  1.0000
  S   S214      1.0  0.67617  0.17989  0.49645  1.0000
  H   H633      1.0  0.93368  0.26762  0.37624  1.0000
  H   H634      1.0  0.83012  0.25042  0.49084  1.0000
  H   H635      1.0  0.58898  0.15875  0.45660  1.0000
  C   C643      1.0  0.98620  0.08942  0.34581  1.0000
  C   C644      1.0  0.85632  0.07393  0.30592  1.0000
  C   C645      1.0  0.85498  0.08680  0.32860  1.0000
  H   H636      1.0  0.65582  0.18678  0.29941  1.0000
  C   C646      1.0  0.71056  0.09436  0.05272  1.0000
  C   C647      1.0  0.67205  0.17810  0.26378  1.0000
  H   H637      1.0  0.66651  0.16775  0.33739  1.0000
  C   C648      1.0  0.59296  0.16868  0.47383  1.0000
  C   C649      1.0  0.86265  0.11186  0.32958  1.0000
  H   H638      1.0  0.87807  0.14306  0.30866  1.0000
  H   H639      1.0  0.70829  0.12616  0.29941  1.0000
  H   H640      1.0  0.86259  0.12174  0.34727  1.0000
  C   C650      1.0  0.66935  0.17511  0.28966  1.0000
  N   N55       1.0  0.69507  0.11146  0.04118  1.0000
  C   C651      1.0  0.58324  0.19274  0.47750  1.0000
  H   H641      1.0  0.66076  0.19183  0.25368  1.0000
  H   H642      1.0  0.01776  0.14410  0.34328  1.0000
  H   H643      1.0  0.73480  0.21776  0.04785  1.0000
  H   H644      1.0  0.72927  0.24318  0.06865  1.0000
  S   S215      1.0  0.57260  0.26385  0.30445  1.0000
  H   H645      1.0  0.71675  0.07113  0.08559  1.0000
  C   C652      1.0  0.83946  0.25380  0.47306  1.0000
  H   H646      1.0  0.66050  0.13180  0.04283  1.0000
  C   C653      1.0  0.98758  0.10090  0.39629  1.0000
  C   C654      1.0  0.80084  0.04460  0.28688  1.0000
  H   H647      1.0  0.81086  0.02494  0.22735  1.0000
  H   H648      1.0  0.83851  0.24795  0.06700  1.0000
  H   H649      1.0  0.87245  0.26711  0.41011  1.0000
  H   H650      1.0  0.00114  0.12895  0.31866  1.0000
  Fe  Fe110     1.0  0.88716  0.02520  0.35045  1.0000
  H   H651      1.0  0.01182  0.13128  0.38517  1.0000
  C   C655      1.0  0.77675  0.24860  0.08331  1.0000
  C   C656      1.0  0.74070  0.22589  0.06604  1.0000
  H   H652      1.0  0.76410  0.25814  0.09600  1.0000
  C   C657      1.0  0.61481  0.17168  0.51332  1.0000
  H   H653      1.0  0.80936  0.26890  0.09650  1.0000
  N   N56       1.0  0.60482  0.19508  0.51699  1.0000
  Fe  Fe111     1.0  0.72074  0.16692  0.96451  1.0000
  S   S216      1.0  0.68202  0.17864  0.97615  1.0000
  S   S217      1.0  0.73178  0.12635  0.95729  1.0000
  Fe  Fe112     1.0  0.74273  0.21886  0.97688  1.0000
  S   S218      1.0  0.70545  0.23427  0.98961  1.0000
  S   S219      1.0  0.78023  0.23919  0.97690  1.0000
  H   H654      1.0  0.82659  0.26303  0.99050  1.0000
  Fe  Fe113     1.0  0.68990  0.21501  0.95544  1.0000
  S   S220      1.0  0.66004  0.22848  0.92756  1.0000
  S   S221      1.0  0.73941  0.18287  0.99865  1.0000
  S   S222      1.0  0.72765  0.20175  0.94145  1.0000
  H   H655      1.0  0.58060  0.22069  0.95023  1.0000
  S   S223      1.0  0.54934  0.17948  0.66039  1.0000
  H   H656      1.0  0.56897  0.24462  0.77199  1.0000
  S   S224      1.0  0.68446  0.05808  0.87224  1.0000
  Fe  Fe114     1.0  0.87808  0.04326  0.67139  1.0000
  S   S225      1.0  0.87404  0.05281  0.71204  1.0000
  Fe  Fe115     1.0  0.84983  0.09123  0.65424  1.0000
  S   S226      1.0  0.84494  0.10462  0.69357  1.0000
  S   S227      1.0  0.83528  0.11177  0.61973  1.0000
  Fe  Fe116     1.0  0.88504  0.09196  0.69948  1.0000
  S   S228      1.0  0.91524  0.11248  0.72157  1.0000
  Fe  Fe117     1.0  0.83436  0.06441  0.70203  1.0000
  S   S229      1.0  0.79575  0.05743  0.71897  1.0000
  S   S230      1.0  0.89084  0.08177  0.65937  1.0000
  S   S231      1.0  0.83769  0.05161  0.66218  1.0000
  Fe  Fe118     1.0  0.70994  0.18539  0.58533  1.0000
  S   S232      1.0  0.70385  0.22507  0.59817  1.0000
  S   S233      1.0  0.72525  0.15778  0.61451  1.0000
  H   H657      1.0  0.96191  0.05377  0.74941  1.0000
  S   S234      1.0  0.68130  0.23807  0.54267  1.0000
  Fe  Fe119     1.0  0.71958  0.23620  0.56060  1.0000
  H   H658      1.0  0.79394  0.03933  0.85184  1.0000
  Fe  Fe120     1.0  0.66614  0.22279  0.57920  1.0000
  S   S235      1.0  0.62908  0.23906  0.59343  1.0000
  S   S236      1.0  0.72748  0.19650  0.54867  1.0000
  S   S237      1.0  0.67083  0.18227  0.56896  1.0000
  H   H659      1.0  0.92823  0.03766  0.69124  1.0000
  H   H660      1.0  0.75125  0.04509  0.74663  1.0000
  C   C658      1.0  0.94094  0.12713  0.70637  1.0000
  C   C659      1.0  0.96148  0.13542  0.72070  1.0000
  C   C660      1.0  0.98180  0.14805  0.70935  1.0000
  C   C661      1.0  0.98153  0.15288  0.68359  1.0000
  C   C662      1.0  0.96120  0.14421  0.66922  1.0000
  C   C663      1.0  0.94104  0.13129  0.68052  1.0000
  H   H661      1.0  0.96153  0.13232  0.74074  1.0000
  H   H662      1.0  0.99728  0.15471  0.72064  1.0000
  H   H663      1.0  0.96078  0.14797  0.64929  1.0000
  H   H664      1.0  0.92528  0.12520  0.66928  1.0000
  C   C664      1.0  0.80624  0.12822  0.61927  1.0000
  C   C665      1.0  0.79199  0.13150  0.64099  1.0000
  C   C666      1.0  0.76782  0.14232  0.63950  1.0000
  C   C667      1.0  0.75765  0.14995  0.61634  1.0000
  C   C668      1.0  0.77240  0.14780  0.59482  1.0000
  C   C669      1.0  0.79658  0.13697  0.59630  1.0000
  H   H665      1.0  0.79932  0.12512  0.65882  1.0000
  H   H666      1.0  0.75659  0.14408  0.65625  1.0000
  H   H667      1.0  0.76479  0.15349  0.57686  1.0000
  H   H668      1.0  0.80755  0.13468  0.57943  1.0000
  H   H669      1.0  0.61528  0.19693  0.55559  1.0000
  H   H670      1.0  0.93077  0.06374  0.74013  1.0000
  C   C670      1.0  0.58779  0.21855  0.70750  1.0000
  H   H671      1.0  0.69288  0.11294  0.00146  1.0000
  H   H672      1.0  0.77004  0.09912  0.90036  1.0000
  C   C671      1.0  0.57104  0.19635  0.64150  1.0000
  C   C672      1.0  0.59295  0.18415  0.63328  1.0000
  C   C673      1.0  0.61091  0.19696  0.61859  1.0000
  C   C674      1.0  0.60710  0.22216  0.61196  1.0000
  C   C675      1.0  0.58511  0.23435  0.62011  1.0000
  C   C676      1.0  0.56719  0.22156  0.63487  1.0000
  H   H673      1.0  0.59617  0.16468  0.63841  1.0000
  H   H674      1.0  0.62779  0.18737  0.61257  1.0000
  H   H675      1.0  0.97747  0.08094  0.64431  1.0000
  H   H676      1.0  0.55061  0.23130  0.64135  1.0000
  C   C677      1.0  0.71725  0.10751  0.93434  1.0000
  C   C678      1.0  0.69923  0.11719  0.91777  1.0000
  C   C679      1.0  0.68878  0.10166  0.89921  1.0000
  C   C680      1.0  0.69630  0.07643  0.89706  1.0000
  C   C681      1.0  0.71401  0.06670  0.91392  1.0000
  C   C682      1.0  0.72446  0.08219  0.93242  1.0000
  H   H677      1.0  0.69349  0.13667  0.91913  1.0000
  H   H678      1.0  0.67501  0.10931  0.88630  1.0000
  H   H679      1.0  0.71980  0.04728  0.91263  1.0000
  H   H680      1.0  0.73835  0.07456  0.94521  1.0000
  C   C683      1.0  0.76705  0.03666  0.75634  1.0000
  H   H681      1.0  0.71396  0.06646  0.82368  1.0000
  H   H682      1.0  0.60419  0.22183  0.92569  1.0000
  H   H683      1.0  0.77045  0.07977  0.58669  1.0000
  C   C684      1.0  0.81208  0.27002  0.00281  1.0000
  C   C685      1.0  0.97573  0.07566  0.70772  1.0000
  N   N57       1.0  0.59104  0.25735  0.93806  1.0000
  H   H684      1.0  0.63070  0.24687  0.88633  1.0000
  H   H685      1.0  0.74739  0.07066  0.69333  1.0000
  H   H686      1.0  0.98469  0.08344  0.72416  1.0000
  H   H687      1.0  0.74950  0.26352  0.01448  1.0000
  C   C686      1.0  0.94704  0.05170  0.73495  1.0000
  C   C687      1.0  0.63727  0.26308  0.89656  1.0000
  N   N58       1.0  0.74983  0.08409  0.65581  1.0000
  C   C688      1.0  0.57464  0.23714  0.75402  1.0000
  H   H688      1.0  0.75546  0.10340  0.68980  1.0000
  H   H689      1.0  0.54307  0.21154  0.75239  1.0000
  C   C689      1.0  0.76422  0.08012  0.60601  1.0000
  H   H690      1.0  0.79815  0.06320  0.62043  1.0000
  H   H691      1.0  0.56706  0.24830  0.90742  1.0000
  H   H692      1.0  0.72348  0.09308  0.68474  1.0000
  H   H693      1.0  0.55560  0.19426  0.71110  1.0000
  H   H694      1.0  0.99894  0.09723  0.68224  1.0000
  Fe  Fe121     1.0  0.70115  0.19658  0.00898  1.0000
  C   C690      1.0  0.77221  0.07292  0.64993  1.0000
  S   S238      1.0  0.00498  0.17139  0.66893  1.0000
  H   H695      1.0  0.61832  0.24490  0.70919  1.0000
  N   N59       1.0  0.95618  0.05906  0.71008  1.0000
  H   H696      1.0  0.69703  0.14298  0.01656  1.0000
  Fe  Fe122     1.0  0.68783  0.19750  0.53337  1.0000
  H   H697      1.0  0.70874  0.09600  0.83814  1.0000
  C   C691      1.0  0.65329  0.25958  0.91730  1.0000
  C   C692      1.0  0.74127  0.09120  0.61215  1.0000
  N   N60       1.0  0.95941  0.20565  0.71470  1.0000
  C   C693      1.0  0.95026  0.20519  0.69076  1.0000
  C   C694      1.0  0.94543  0.19617  0.73407  1.0000
  C   C695      1.0  0.92687  0.19428  0.68562  1.0000
  C   C696      1.0  0.92205  0.18495  0.72957  1.0000
  C   C697      1.0  0.91281  0.18392  0.70516  1.0000
  C   C698      1.0  0.98394  0.21716  0.71977  1.0000
  H   H698      1.0  0.96147  0.21244  0.67535  1.0000
  H   H699      1.0  0.95259  0.19672  0.75307  1.0000
  H   H700      1.0  0.59301  0.21139  0.68923  1.0000
  C   C699      1.0  0.73438  0.09319  0.63731  1.0000
  H   H701      1.0  0.89509  0.17453  0.70133  1.0000
  H   H702      1.0  0.98142  0.23736  0.72427  1.0000
  H   H703      1.0  0.99362  0.20762  0.73568  1.0000
  H   H704      1.0  0.99667  0.21547  0.70336  1.0000
  N   N61       1.0  0.74447  0.07904  0.84604  1.0000
  C   C700      1.0  0.76099  0.06019  0.84040  1.0000
  C   C701      1.0  0.74796  0.09331  0.86696  1.0000
  C   C702      1.0  0.78126  0.05472  0.85624  1.0000
  C   C703      1.0  0.76789  0.08823  0.88337  1.0000
  C   C704      1.0  0.78457  0.06872  0.87798  1.0000
  C   C705      1.0  0.72343  0.08429  0.82903  1.0000
  H   H705      1.0  0.75831  0.04896  0.82379  1.0000
  H   H706      1.0  0.73496  0.10835  0.87145  1.0000
  H   H707      1.0  0.61281  0.22899  0.95701  1.0000
  H   H708      1.0  0.71731  0.10336  0.64188  1.0000
  C   C706      1.0  0.95181  0.05763  0.66537  1.0000
  H   H709      1.0  0.73029  0.09413  0.81197  1.0000
  C   C707      1.0  0.98387  0.08355  0.68403  1.0000
  C   C708      1.0  0.59733  0.23093  0.94308  1.0000
  H   H710      1.0  0.91144  0.17646  0.74477  1.0000
  C   C709      1.0  0.78732  0.26108  0.00041  1.0000
  N   N62       1.0  0.59544  0.24635  0.74196  1.0000
  H   H711      1.0  0.78476  0.06653  0.66468  1.0000
  C   C710      1.0  0.94412  0.05025  0.68932  1.0000
  H   H712      1.0  0.59747  0.22323  0.54456  1.0000
  H   H713      1.0  0.92009  0.19312  0.66650  1.0000
  C   C711      1.0  0.56668  0.20897  0.71973  1.0000
  C   C712      1.0  0.57483  0.26310  0.91893  1.0000
  H   H714      1.0  0.72964  0.09975  0.59769  1.0000
  C   C713      1.0  0.60201  0.23743  0.71891  1.0000
  C   C714      1.0  0.55987  0.21843  0.74303  1.0000
  H   H715      1.0  0.79991  0.06435  0.89069  1.0000
  C   C715      1.0  0.76864  0.27015  0.01633  1.0000
  H   H716      1.0  0.94196  0.05061  0.64902  1.0000
  C   C716      1.0  0.61073  0.26617  0.75338  1.0000
  C   C717      1.0  0.74359  0.08801  0.68220  1.0000
  C   C718      1.0  0.79148  0.03979  0.74676  1.0000
  S   S239      1.0  0.75117  0.26502  0.56038  1.0000
  C   C719      1.0  0.77977  0.07079  0.62497  1.0000
  H   H717      1.0  0.58209  0.25390  0.61517  1.0000
  C   C720      1.0  0.61215  0.20945  0.53911  1.0000
  H   H718      1.0  0.62824  0.16384  0.52657  1.0000
  C   C721      1.0  0.76295  0.02276  0.77848  1.0000
  C   C722      1.0  0.97174  0.07451  0.66275  1.0000
  H   H719      1.0  0.72299  0.12194  0.01409  1.0000
  H   H720      1.0  0.94090  0.03170  0.73516  1.0000
  H   H721      1.0  0.62984  0.21984  0.53528  1.0000
  C   C723      1.0  0.81180  0.02882  0.75938  1.0000
  H   H722      1.0  0.52486  0.23344  0.58891  1.0000
  H   H723      1.0  0.63067  0.26009  0.75494  1.0000
  C   C724      1.0  0.70232  0.12277  0.01716  1.0000
  H   H724      1.0  0.53026  0.27086  0.71726  1.0000
  H   H725      1.0  0.83067  0.03109  0.75214  1.0000
  H   H726      1.0  0.60407  0.27104  0.77248  1.0000
  C   C725      1.0  0.55747  0.47236  0.21651  1.0000
  S   S240      1.0  0.54763  0.39083  0.16433  1.0000
  H   H727      1.0  0.56684  0.47401  0.17751  1.0000
  S   S241      1.0  0.67604  0.50732  0.22528  1.0000
  Fe  Fe123     1.0  0.71085  0.46654  0.17598  1.0000
  S   S242      1.0  0.70248  0.45295  0.21505  1.0000
  S   S243      1.0  0.72572  0.43769  0.14830  1.0000
  Fe  Fe124     1.0  0.66428  0.47010  0.20949  1.0000
  S   S244      1.0  0.62998  0.45073  0.22599  1.0000
  Fe  Fe125     1.0  0.71497  0.49126  0.22740  1.0000
  H   H728      1.0  0.57619  0.28241  0.41575  1.0000
  S   S245      1.0  0.67146  0.48136  0.16963  1.0000
  Fe  Fe126     1.0  0.84080  0.34283  0.06289  1.0000
  S   S246      1.0  0.83606  0.38205  0.04769  1.0000
  S   S247      1.0  0.80631  0.31780  0.06150  1.0000
  Fe  Fe127     1.0  0.89347  0.35428  0.08341  1.0000
  S   S248      1.0  0.89213  0.39426  0.06978  1.0000
  S   S249      1.0  0.92734  0.33642  0.10270  1.0000
  Fe  Fe128     1.0  0.85224  0.39440  0.08439  1.0000
  S   S250      1.0  0.83787  0.42771  0.10684  1.0000
  Fe  Fe129     1.0  0.87608  0.37790  0.03447  1.0000
  S   S251      1.0  0.85481  0.35546  0.10053  1.0000
  S   S252      1.0  0.87962  0.33767  0.04700  1.0000
  H   H729      1.0  0.99280  0.28725  0.36632  1.0000
  Fe  Fe130     1.0  0.87339  0.35709  0.44881  1.0000
  S   S253      1.0  0.83609  0.37034  0.43357  1.0000
  S   S254      1.0  0.89932  0.34103  0.41908  1.0000
  C   C726      1.0  0.82900  0.45153  0.03408  1.0000
  S   S255      1.0  0.82204  0.38797  0.48990  1.0000
  Fe  Fe131     1.0  0.82003  0.35228  0.46814  1.0000
  S   S256      1.0  0.78488  0.32856  0.46558  1.0000
  Fe  Fe132     1.0  0.84212  0.40483  0.45681  1.0000
  S   S257      1.0  0.83148  0.44551  0.44881  1.0000
  S   S258      1.0  0.85683  0.33699  0.48208  1.0000
  S   S259      1.0  0.88059  0.39309  0.46979  1.0000
  C   C727      1.0  0.74572  0.28195  0.51166  1.0000
  C   C728      1.0  0.77473  0.28793  0.03466  1.0000
  H   H730      1.0  0.69149  0.39285  0.22363  1.0000
  C   C729      1.0  0.01136  0.31548  0.08744  1.0000
  H   H731      1.0  0.90986  0.30391  0.45834  1.0000
  C   C730      1.0  0.91034  0.30970  0.41845  1.0000
  S   S260      1.0  0.00268  0.27335  0.31483  1.0000
  C   C731      1.0  0.91691  0.29916  0.39533  1.0000
  H   H732      1.0  0.97983  0.29267  0.43383  1.0000
  H   H733      1.0  0.91362  0.30971  0.37824  1.0000
  C   C732      1.0  0.81163  0.49060  0.27816  1.0000
  C   C733      1.0  0.86823  0.49410  0.38749  1.0000
  C   C734      1.0  0.84908  0.50385  0.40251  1.0000
  C   C735      1.0  0.83802  0.48872  0.42122  1.0000
  C   C736      1.0  0.84594  0.46375  0.42503  1.0000
  C   C737      1.0  0.86507  0.45400  0.41001  1.0000
  C   C738      1.0  0.87614  0.46914  0.39130  1.0000
  H   H734      1.0  0.62266  0.30035  0.36910  1.0000
  H   H735      1.0  0.82315  0.49635  0.43269  1.0000
  H   H736      1.0  0.87131  0.43481  0.41276  1.0000
  H   H737      1.0  0.89089  0.46146  0.37970  1.0000
  C   C739      1.0  0.94917  0.35300  0.12159  1.0000
  C   C740      1.0  0.94911  0.37927  0.12319  1.0000
  C   C741      1.0  0.96808  0.39173  0.13684  1.0000
  C   C742      1.0  0.98738  0.37808  0.14883  1.0000
  C   C743      1.0  0.98728  0.35184  0.14735  1.0000
  C   C744      1.0  0.96825  0.33940  0.13390  1.0000
  H   H738      1.0  0.93453  0.38999  0.11383  1.0000
  H   H739      1.0  0.96785  0.41203  0.13801  1.0000
  H   H740      1.0  0.74076  0.29889  0.47516  1.0000
  H   H741      1.0  0.96843  0.31909  0.13289  1.0000
  C   C745      1.0  0.98300  0.30407  0.37228  1.0000
  H   H742      1.0  0.63854  0.38722  0.12803  1.0000
  H   H743      1.0  0.76989  0.36687  0.51535  1.0000
  H   H744      1.0  0.66448  0.37529  0.23359  1.0000
  C   C746      1.0  0.84915  0.47040  0.51321  1.0000
  C   C747      1.0  0.75726  0.43492  0.13768  1.0000
  C   C748      1.0  0.76364  0.41486  0.12190  1.0000
  C   C749      1.0  0.78836  0.41207  0.11276  1.0000
  C   C750      1.0  0.80695  0.42944  0.11925  1.0000
  C   C751      1.0  0.80058  0.44955  0.13500  1.0000
  C   C752      1.0  0.77589  0.45225  0.14425  1.0000
  H   H745      1.0  0.74939  0.40135  0.11669  1.0000
  H   H746      1.0  0.79296  0.39655  0.10062  1.0000
  H   H747      1.0  0.81482  0.46310  0.14012  1.0000
  H   H748      1.0  0.77124  0.46779  0.15635  1.0000
  C   C753      1.0  0.79947  0.29680  0.03715  1.0000
  C   C754      1.0  0.57055  0.40727  0.18163  1.0000
  C   C755      1.0  0.58907  0.42118  0.16887  1.0000
  C   C756      1.0  0.60766  0.43444  0.18216  1.0000
  C   C757      1.0  0.60781  0.43376  0.20832  1.0000
  C   C758      1.0  0.58940  0.41973  0.22102  1.0000
  C   C759      1.0  0.57079  0.40661  0.20775  1.0000
  H   H749      1.0  0.58904  0.42171  0.14863  1.0000
  H   H750      1.0  0.62176  0.44522  0.17221  1.0000
  H   H751      1.0  0.58940  0.41916  0.24127  1.0000
  H   H752      1.0  0.55678  0.39580  0.21776  1.0000
  H   H753      1.0  0.66273  0.40913  0.23103  1.0000
  H   H754      1.0  0.01052  0.29614  0.41939  1.0000
  C   C760      1.0  0.85047  0.44368  0.02117  1.0000
  C   C761      1.0  0.82666  0.48924  0.32784  1.0000
  N   N63       1.0  0.83116  0.46404  0.05625  1.0000
  C   C762      1.0  0.54885  0.30405  0.35225  1.0000
  H   H755      1.0  0.85614  0.47856  0.08390  1.0000
  H   H756      1.0  0.53341  0.32403  0.24641  1.0000
  C   C763      1.0  0.83675  0.30055  0.42031  1.0000
  S   S261      1.0  0.72636  0.50374  0.18878  1.0000
  S   S262      1.0  0.88215  0.51223  0.36330  1.0000
  N   N64       1.0  0.84380  0.27859  0.43552  1.0000
  C   C764      1.0  0.85440  0.46928  0.06598  1.0000
  C   C765      1.0  0.99042  0.29169  0.41593  1.0000
  H   H757      1.0  0.80527  0.49128  0.25887  1.0000
  C   C766      1.0  0.75331  0.29660  0.49098  1.0000
  C   C767      1.0  0.81817  0.28787  0.02115  1.0000
  H   H758      1.0  0.89458  0.46483  0.06195  1.0000
  C   C768      1.0  0.91465  0.29590  0.44040  1.0000
  H   H759      1.0  0.94705  0.36342  0.39294  1.0000
  C   C769      1.0  0.83880  0.50477  0.31042  1.0000
  H   H760      1.0  0.79527  0.45566  0.07160  1.0000
  H   H761      1.0  0.83498  0.47527  0.49931  1.0000
  C   C770      1.0  0.79900  0.47490  0.29511  1.0000
  H   H762      1.0  0.58689  0.30185  0.33909  1.0000
  C   C771      1.0  0.92838  0.27536  0.39414  1.0000
  H   H763      1.0  0.95194  0.35436  0.34756  1.0000
  H   H764      1.0  0.54335  0.46719  0.25397  1.0000
  C   C772      1.0  0.63927  0.37940  0.19122  1.0000
  C   C773      1.0  0.98904  0.32363  0.07622  1.0000
  H   H765      1.0  0.54132  0.30917  0.33401  1.0000
  H   H766      1.0  0.81246  0.47861  0.08857  1.0000
  H   H767      1.0  0.96515  0.33435  0.42432  1.0000
  H   H768      1.0  0.86647  0.44249  0.48997  1.0000
  H   H769      1.0  0.79677  0.46248  0.33356  1.0000
  C   C774      1.0  0.67063  0.39189  0.22244  1.0000
  C   C775      1.0  0.97305  0.32030  0.35408  1.0000
  C   C776      1.0  0.64524  0.38784  0.14720  1.0000
  H   H770      1.0  0.98885  0.27188  0.40955  1.0000
  H   H771      1.0  0.81059  0.44724  0.02647  1.0000
  C   C777      1.0  0.95763  0.34708  0.38690  1.0000
  N   N65       1.0  0.66211  0.39006  0.19641  1.0000
  H   H772      1.0  0.54395  0.45017  0.14649  1.0000
  C   C778      1.0  0.61118  0.28675  0.38006  1.0000
  H   H773      1.0  0.83283  0.48888  0.34722  1.0000
  C   C779      1.0  0.54277  0.29319  0.39572  1.0000
  H   H774      1.0  0.83734  0.29438  0.02318  1.0000
  C   C780      1.0  0.53283  0.30065  0.37263  1.0000
  C   C781      1.0  0.66828  0.39911  0.15273  1.0000
  H   H775      1.0  0.99757  0.38649  0.08169  1.0000
  C   C782      1.0  0.79294  0.30557  0.51136  1.0000
  H   H776      1.0  0.62736  0.37246  0.20622  1.0000
  S   S263      1.0  0.73635  0.49553  0.26383  1.0000
  C   C783      1.0  0.80827  0.47191  0.06935  1.0000
  H   H777      1.0  0.81734  0.28643  0.46439  1.0000
  H   H778      1.0  0.57530  0.48033  0.22249  1.0000
  C   C784      1.0  0.57468  0.29988  0.35524  1.0000
  S   S264      1.0  0.01149  0.39437  0.16512  1.0000
  H   H779      1.0  0.97496  0.31015  0.07025  1.0000
  C   C785      1.0  0.80654  0.47434  0.32013  1.0000
  H   H780      1.0  0.96669  0.35577  0.06559  1.0000
  H   H781      1.0  0.79870  0.48723  0.05881  1.0000
  C   C786      1.0  0.96017  0.34187  0.36148  1.0000
  C   C787      1.0  0.55050  0.29714  0.27184  1.0000
  C   C788      1.0  0.98439  0.34932  0.07355  1.0000
  H   H782      1.0  0.61238  0.36957  0.16253  1.0000
  H   H783      1.0  0.69441  0.40885  0.18162  1.0000
  C   C789      1.0  0.55264  0.46857  0.19107  1.0000
  H   H784      1.0  0.00163  0.34101  0.15685  1.0000
  C   C790      1.0  0.67647  0.40004  0.17757  1.0000
  Fe  Fe133     1.0  0.86007  0.37439  0.50169  1.0000
  H   H785      1.0  0.81106  0.31480  0.51150  1.0000
  C   C791      1.0  0.63067  0.37778  0.16653  1.0000
  C   C792      1.0  0.56871  0.28908  0.39800  1.0000
  H   H786      1.0  0.67976  0.40729  0.13796  1.0000
  C   C793      1.0  0.53010  0.30913  0.25991  1.0000
  C   C794      1.0  0.00184  0.36658  0.08286  1.0000
  N   N66       1.0  0.83095  0.50562  0.28604  1.0000
  N   N67       1.0  0.58429  0.29256  0.37791  1.0000
  H   H787      1.0  0.76022  0.29479  0.04705  1.0000
  H   H788      1.0  0.61770  0.28737  0.39983  1.0000
  N   N68       1.0  0.97997  0.30905  0.39718  1.0000
  C   C795      1.0  0.87625  0.46145  0.05371  1.0000
  C   C796      1.0  0.77669  0.30887  0.49100  1.0000
  H   H789      1.0  0.85447  0.51622  0.31658  1.0000
  C   C797      1.0  0.96788  0.33047  0.40460  1.0000
  H   H790      1.0  0.81803  0.30816  0.42575  1.0000
  H   H791      1.0  0.56952  0.30290  0.26744  1.0000
  N   N69       1.0  0.53080  0.45731  0.18349  1.0000
  C   C798      1.0  0.87421  0.44860  0.03114  1.0000
  H   H792      1.0  0.89097  0.44206  0.02158  1.0000
  H   H793      1.0  0.78302  0.46383  0.28892  1.0000
  C   C799      1.0  0.53963  0.46484  0.23416  1.0000
  C   C800      1.0  0.54645  0.27771  0.28933  1.0000
  H   H794      1.0  0.85096  0.31564  0.42270  1.0000
  H   H795      1.0  0.97512  0.31594  0.33436  1.0000
  Fe  Fe134     1.0  0.68620  0.51746  0.18587  1.0000
  H   H796      1.0  0.83573  0.29560  0.40019  1.0000
  C   C801      1.0  0.83223  0.27417  0.45798  1.0000
  C   C802      1.0  0.86685  0.45185  0.50791  1.0000
  H   H797      1.0  0.01510  0.29555  0.08980  1.0000
  H   H798      1.0  0.72734  0.27320  0.51184  1.0000
  C   C803      1.0  0.75652  0.52121  0.26932  1.0000
  H   H799      1.0  0.01192  0.31741  0.28518  1.0000
  C   C804      1.0  0.52607  0.45334  0.15678  1.0000
  H   H800      1.0  0.75776  0.51434  0.30910  1.0000
  H   H801      1.0  0.53042  0.28988  0.41154  1.0000
  H   H802      1.0  0.86145  0.51278  0.26148  1.0000
  C   C805      1.0  0.92609  0.27203  0.43921  1.0000
  Fe  Fe135     1.0  0.60142  0.35191  0.86296  1.0000
  S   S265      1.0  0.61759  0.36066  0.82493  1.0000
  S   S266      1.0  0.62518  0.33894  0.89627  1.0000
  Fe  Fe136     1.0  0.54981  0.37377  0.84869  1.0000
  S   S267      1.0  0.56218  0.38364  0.80994  1.0000
  Fe  Fe137     1.0  0.58077  0.34575  0.81013  1.0000
  S   S268      1.0  0.57984  0.32287  0.77439  1.0000
  Fe  Fe138     1.0  0.59763  0.39778  0.82807  1.0000
  S   S269      1.0  0.61099  0.43566  0.81337  1.0000
  S   S270      1.0  0.56585  0.33443  0.84798  1.0000
  S   S271      1.0  0.58388  0.39041  0.86705  1.0000
  S   S272      1.0  0.88653  0.39354  0.99612  1.0000
  S   S273      1.0  0.87254  0.37837  0.54209  1.0000
  H   H803      1.0  0.73514  0.52032  0.74069  1.0000
  Fe  Fe139     1.0  0.86778  0.46661  0.69756  1.0000
  S   S274      1.0  0.82832  0.45493  0.68740  1.0000
  S   S275      1.0  0.89539  0.43803  0.71376  1.0000
  S   S276      1.0  0.82216  0.51038  0.66128  1.0000
  Fe  Fe140     1.0  0.81747  0.49388  0.69967  1.0000
  S   S277      1.0  0.77997  0.50085  0.71868  1.0000
  Fe  Fe141     1.0  0.83640  0.47238  0.64989  1.0000
  S   S278      1.0  0.82127  0.45934  0.61247  1.0000
  C   C806      1.0  0.93229  0.49157  0.71933  1.0000
  S   S279      1.0  0.87661  0.48147  0.65882  1.0000
  S   S280      1.0  0.00003  0.33462  0.86109  1.0000
  Fe  Fe142     1.0  0.96088  0.39201  0.83685  1.0000
  S   S281      1.0  0.94445  0.35326  0.84067  1.0000
  S   S282      1.0  0.93848  0.42627  0.82393  1.0000
  Fe  Fe143     1.0  0.96485  0.35171  0.87769  1.0000
  S   S283      1.0  0.95040  0.33466  0.91421  1.0000
  Fe  Fe144     1.0  0.98102  0.34005  0.82382  1.0000
  H   H804      1.0  0.81897  0.36928  0.59378  1.0000
  S   S284      1.0  0.97896  0.39141  0.87514  1.0000
  C   C807      1.0  0.88485  0.45749  0.54896  1.0000
  H   H805      1.0  0.99037  0.37336  0.93002  1.0000
  C   C808      1.0  0.56858  0.28815  0.91355  1.0000
  C   C809      1.0  0.90315  0.43297  0.74567  1.0000
  C   C810      1.0  0.89762  0.45070  0.76408  1.0000
  C   C811      1.0  0.90762  0.44782  0.78839  1.0000
  C   C812      1.0  0.92297  0.42711  0.79456  1.0000
  C   C813      1.0  0.92741  0.40875  0.77650  1.0000
  C   C814      1.0  0.91765  0.41177  0.75215  1.0000
  H   H806      1.0  0.88637  0.46702  0.75939  1.0000
  H   H807      1.0  0.90399  0.46202  0.80231  1.0000
  H   H808      1.0  0.93909  0.39267  0.78103  1.0000
  H   H809      1.0  0.92194  0.39791  0.73807  1.0000
  H   H810      1.0  0.83580  0.49656  0.54058  1.0000
  C   C815      1.0  0.00477  0.35861  0.93380  1.0000
  C   C816      1.0  0.66171  0.28068  0.93033  1.0000
  C   C817      1.0  0.53669  0.29606  0.78512  1.0000
  C   C818      1.0  0.00346  0.29094  0.78368  1.0000
  C   C819      1.0  0.83534  0.43590  0.59398  1.0000
  C   C820      1.0  0.85630  0.42213  0.60207  1.0000
  C   C821      1.0  0.86740  0.40431  0.58612  1.0000
  C   C822      1.0  0.85787  0.40045  0.56191  1.0000
  C   C823      1.0  0.83699  0.41435  0.55393  1.0000
  C   C824      1.0  0.82564  0.43176  0.56996  1.0000
  H   H811      1.0  0.86390  0.42517  0.62061  1.0000
  H   H812      1.0  0.88356  0.39363  0.59249  1.0000
  H   H813      1.0  0.82971  0.41207  0.53529  1.0000
  H   H814      1.0  0.80951  0.44245  0.56353  1.0000
  H   H815      1.0  0.61675  0.28971  0.87341  1.0000
  H   H816      1.0  0.57534  0.44358  0.88768  1.0000
  C   C825      1.0  0.59886  0.47575  0.89378  1.0000
  H   H817      1.0  0.73421  0.34119  0.53134  1.0000
  C   C826      1.0  0.90508  0.37716  0.97396  1.0000
  C   C827      1.0  0.91099  0.38895  0.95108  1.0000
  C   C828      1.0  0.92504  0.37630  0.93269  1.0000
  C   C829      1.0  0.93312  0.35159  0.93693  1.0000
  C   C830      1.0  0.92728  0.33983  0.95985  1.0000
  C   C831      1.0  0.91343  0.35256  0.97834  1.0000
  H   H818      1.0  0.90456  0.40794  0.94745  1.0000
  H   H819      1.0  0.92930  0.38554  0.91509  1.0000
  H   H820      1.0  0.93347  0.32073  0.96330  1.0000
  H   H821      1.0  0.90910  0.34326  0.99586  1.0000
  H   H822      1.0  0.77685  0.32382  0.59735  1.0000
  H   H823      1.0  0.87420  0.47602  0.59341  1.0000
  H   H824      1.0  0.80187  0.34763  0.00008  1.0000
  S   S285      1.0  0.68036  0.51104  0.87399  1.0000
  C   C832      1.0  0.63166  0.45557  0.82984  1.0000
  C   C833      1.0  0.64173  0.44873  0.85308  1.0000
  C   C834      1.0  0.65708  0.46574  0.86619  1.0000
  C   C835      1.0  0.66222  0.48974  0.85629  1.0000
  C   C836      1.0  0.65257  0.49635  0.83280  1.0000
  C   C837      1.0  0.63742  0.47928  0.81961  1.0000
  H   H825      1.0  0.63755  0.43043  0.86104  1.0000
  H   H826      1.0  0.66466  0.46041  0.88427  1.0000
  C   C838      1.0  0.84716  0.34186  0.97908  1.0000
  H   H827      1.0  0.62975  0.48465  0.80157  1.0000
  C   C839      1.0  0.55445  0.30293  0.76709  1.0000
  H   H828      1.0  0.68924  0.46074  0.80296  1.0000
  C   C840      1.0  0.80163  0.29994  0.94604  1.0000
  C   C841      1.0  0.63723  0.30838  0.90260  1.0000
  C   C842      1.0  0.62937  0.28734  0.88914  1.0000
  H   H829      1.0  0.60410  0.31611  0.95824  1.0000
  C   C843      1.0  0.65363  0.30493  0.92304  1.0000
  H   H830      1.0  0.77459  0.51284  0.82822  1.0000
  H   H831      1.0  0.65977  0.32110  0.93359  1.0000
  N   N70       1.0  0.74319  0.49311  0.81257  1.0000
  C   C844      1.0  0.75641  0.48600  0.79185  1.0000
  H   H832      1.0  0.70885  0.49019  0.83284  1.0000
  C   C845      1.0  0.75378  0.51157  0.82986  1.0000
  H   H833      1.0  0.85869  0.34694  0.96244  1.0000
  H   H834      1.0  0.84114  0.30799  0.94323  1.0000
  H   H835      1.0  0.83499  0.34806  0.57292  1.0000
  C   C846      1.0  0.75096  0.34368  0.54269  1.0000
  H   H836      1.0  0.94227  0.50343  0.76643  1.0000
  H   H837      1.0  0.85821  0.32895  0.99128  1.0000
  H   H838      1.0  0.52764  0.36206  0.76614  1.0000
  H   H839      1.0  0.75614  0.46456  0.75768  1.0000
  C   C847      1.0  0.55215  0.29363  0.74266  1.0000
  H   H840      1.0  0.57503  0.32686  0.92344  1.0000
  C   C848      1.0  0.70818  0.46769  0.79966  1.0000
  H   H841      1.0  0.73787  0.31962  0.57260  1.0000
  C   C849      1.0  0.71935  0.48428  0.81655  1.0000
  S   S286      1.0  0.98205  0.31568  0.78911  1.0000
  H   H842      1.0  0.53564  0.46362  0.84480  1.0000
  C   C850      1.0  0.95866  0.45493  0.73000  1.0000
  S   S287      1.0  0.99608  0.37910  0.81782  1.0000
  C   C851      1.0  0.82373  0.31249  0.95282  1.0000
  H   H843      1.0  0.01834  0.28949  0.82112  1.0000
  H   H844      1.0  0.95512  0.44730  0.71156  1.0000
  C   C852      1.0  0.84975  0.48228  0.53650  1.0000
  S   S288      1.0  0.85636  0.50442  0.71259  1.0000
  H   H845      1.0  0.88188  0.50486  0.57688  1.0000
  C   C853      1.0  0.80180  0.33482  0.98435  1.0000
  H   H846      1.0  0.65643  0.51473  0.82494  1.0000
  C   C854      1.0  0.86841  0.48896  0.57799  1.0000
  H   H847      1.0  0.76227  0.32626  0.98847  1.0000
  H   H848      1.0  0.60622  0.46875  0.91145  1.0000
  H   H849      1.0  0.96673  0.47868  0.79753  1.0000
  H   H850      1.0  0.84375  0.35959  0.98945  1.0000
  H   H851      1.0  0.53843  0.30296  0.80402  1.0000
  C   C855      1.0  0.97291  0.44079  0.74709  1.0000
  C   C856      1.0  0.78534  0.29099  0.53204  1.0000
  H   H852      1.0  0.84957  0.49630  0.58332  1.0000
  H   H853      1.0  0.98583  0.43812  0.78532  1.0000
  H   H854      1.0  0.98029  0.42255  0.74189  1.0000
  C   C857      1.0  0.59812  0.50721  0.86107  1.0000
  H   H855      1.0  0.55349  0.43531  0.85029  1.0000
  H   H856      1.0  0.81964  0.33586  0.60021  1.0000
  C   C858      1.0  0.57891  0.30730  0.92799  1.0000
  H   H857      1.0  0.89804  0.43015  0.52220  1.0000
  H   H858      1.0  0.89856  0.45190  0.56299  1.0000
  C   C859      1.0  0.96527  0.47236  0.77832  1.0000
  H   H859      1.0  0.62125  0.50960  0.89413  1.0000
  H   H860      1.0  0.71296  0.44779  0.76497  1.0000
  C   C860      1.0  0.72150  0.46039  0.77841  1.0000
  N   N71       1.0  0.57305  0.46980  0.85732  1.0000
  N   N72       1.0  0.79499  0.34771  0.57057  1.0000
  C   C861      1.0  0.79301  0.35988  0.54802  1.0000
  C   C862      1.0  0.77529  0.33382  0.57966  1.0000
  C   C863      1.0  0.88476  0.44521  0.52588  1.0000
  C   C864      1.0  0.75301  0.33160  0.56587  1.0000
  H   H861      1.0  0.57464  0.49872  0.82952  1.0000
  C   C865      1.0  0.58157  0.46149  0.88011  1.0000
  C   C866      1.0  0.77930  0.30523  0.95863  1.0000
  Fe  Fe145     1.0  0.01270  0.37455  0.85629  1.0000
  H   H862      1.0  0.91282  0.49296  0.72674  1.0000
  H   H863      1.0  0.56573  0.29905  0.72856  1.0000
  C   C867      1.0  0.81822  0.35032  0.58517  1.0000
  N   N73       1.0  0.82354  0.32983  0.97161  1.0000
  H   H864      1.0  0.77508  0.49346  0.78830  1.0000
  C   C868      1.0  0.77933  0.32277  0.97792  1.0000
  H   H865      1.0  0.56009  0.45395  0.82323  1.0000
  C   C869      1.0  0.97608  0.44954  0.77143  1.0000
  N   N74       1.0  0.94805  0.47727  0.73695  1.0000
  N   N75       1.0  0.86741  0.47569  0.55404  1.0000
  C   C870      1.0  0.77103  0.35802  0.53370  1.0000
  C   C871      1.0  0.74576  0.46961  0.77442  1.0000
  C   C872      1.0  0.55461  0.45500  0.84328  1.0000
  H   H866      1.0  0.00673  0.34685  0.91683  1.0000
  C   C873      1.0  0.58102  0.49237  0.84779  1.0000
  H   H867      1.0  0.84880  0.43339  0.00379  1.0000
  H   H868      1.0  0.60969  0.28368  0.74192  1.0000
  Fe  Fe146     1.0  0.86173  0.51825  0.67291  1.0000
  C   C874      1.0  0.59524  0.30125  0.94759  1.0000
  C   C875      1.0  0.53212  0.27764  0.73621  1.0000
  H   H869      1.0  0.79764  0.28912  0.54809  1.0000
  H   H870      1.0  0.99261  0.28769  0.74497  1.0000
  H   H871      1.0  0.99719  0.34663  0.94916  1.0000
  C   C876      1.0  0.95129  0.48611  0.76071  1.0000
  H   H872      1.0  0.74921  0.50656  0.84958  1.0000
  H   H873      1.0  0.93085  0.48221  0.70084  1.0000
  H   H874      1.0  0.76225  0.29495  0.95410  1.0000
  H   H875      1.0  0.80873  0.37064  0.54080  1.0000
  C   C877      1.0  0.01958  0.28198  0.80241  1.0000
  C   C878      1.0  0.60717  0.49874  0.88415  1.0000
  H   H876      1.0  0.55631  0.29278  0.89795  1.0000
  H   H877      1.0  0.52304  0.34444  0.72374  1.0000
  H   H878      1.0  0.67394  0.27827  0.94637  1.0000
  H   H879      1.0  0.94002  0.51076  0.71636  1.0000
  C   C879      1.0  0.00500  0.28074  0.75954  1.0000
  H   H880      1.0  0.80191  0.28563  0.93166  1.0000
  C   C880      1.0  0.76153  0.27953  0.53247  1.0000
  C   C881      1.0  0.60117  0.27603  0.95239  1.0000
  H   H881      1.0  0.61456  0.27157  0.96711  1.0000
  S   S289      1.0  0.87798  0.68986  0.48409  1.0000
  C   C882      1.0  0.65174  0.76250  0.12114  1.0000
  S   S290      1.0  0.67862  0.55654  0.17041  1.0000
  H   H882      1.0  0.83219  0.65960  0.48782  1.0000
  Fe  Fe147     1.0  0.83720  0.58356  0.31998  1.0000
  S   S291      1.0  0.87670  0.56888  0.31715  1.0000
  S   S292      1.0  0.81427  0.58323  0.28418  1.0000
  Fe  Fe148     1.0  0.84477  0.59973  0.37429  1.0000
  S   S293      1.0  0.88482  0.58639  0.37529  1.0000
  S   S294      1.0  0.82516  0.61418  0.40902  1.0000
  Fe  Fe149     1.0  0.88783  0.60416  0.33689  1.0000
  S   S295      1.0  0.92077  0.62923  0.32610  1.0000
  Fe  Fe150     1.0  0.86984  0.55238  0.35547  1.0000
  S   S296      1.0  0.84872  0.62018  0.33750  1.0000
  S   S297      1.0  0.82945  0.56437  0.35674  1.0000
  Fe  Fe151     1.0  0.98722  0.73795  0.20512  1.0000
  H   H883      1.0  0.91634  0.70065  0.31590  1.0000
  Fe  Fe152     1.0  0.97646  0.71790  0.15219  1.0000
  S   S298      1.0  0.99212  0.67988  0.16192  1.0000
  S   S299      1.0  0.96782  0.72937  0.11203  1.0000
  Fe  Fe153     1.0  0.97112  0.68384  0.19833  1.0000
  S   S300      1.0  0.94573  0.65226  0.21194  1.0000
  S   S301      1.0  0.95309  0.72060  0.18712  1.0000
  S   S302      1.0  0.00886  0.73895  0.16921  1.0000
  S   S303      1.0  0.87512  0.68780  0.04911  1.0000
  Fe  Fe154     1.0  0.58646  0.66497  0.20604  1.0000
  S   S304      1.0  0.57326  0.67538  0.16748  1.0000
  S   S305      1.0  0.59345  0.62466  0.21841  1.0000
  Fe  Fe155     1.0  0.57767  0.71871  0.22531  1.0000
  S   S306      1.0  0.56315  0.73266  0.18830  1.0000
  S   S307      1.0  0.58388  0.74404  0.25854  1.0000
  Fe  Fe156     1.0  0.54210  0.69571  0.18740  1.0000
  Fe  Fe157     1.0  0.59571  0.71109  0.17235  1.0000
  S   S308      1.0  0.62493  0.72493  0.14438  1.0000
  S   S309      1.0  0.55421  0.68366  0.22575  1.0000
  S   S310      1.0  0.61135  0.69878  0.20964  1.0000
  C   C883      1.0  0.81683  0.72797  0.05263  1.0000
  H   H884      1.0  0.87008  0.66201  0.26293  1.0000
  C   C884      1.0  0.77439  0.74299  0.05815  1.0000
  H   H885      1.0  0.88871  0.66152  0.21886  1.0000
  C   C885      1.0  0.84931  0.57910  0.46566  1.0000
  C   C886      1.0  0.88447  0.67594  0.26676  1.0000
  H   H886      1.0  0.87098  0.69070  0.21729  1.0000
  H   H887      1.0  0.78884  0.54805  0.31757  1.0000
  H   H888      1.0  0.85692  0.75927  0.09006  1.0000
  C   C887      1.0  0.66433  0.58696  0.26066  1.0000
  C   C888      1.0  0.94204  0.71742  0.09481  1.0000
  C   C889      1.0  0.93821  0.72581  0.07009  1.0000
  C   C890      1.0  0.91794  0.71673  0.05577  1.0000
  C   C891      1.0  0.90132  0.69913  0.06610  1.0000
  C   C892      1.0  0.90511  0.69077  0.09083  1.0000
  C   C893      1.0  0.92540  0.69983  0.10514  1.0000
  H   H889      1.0  0.95095  0.73949  0.06201  1.0000
  H   H890      1.0  0.91512  0.72342  0.03681  1.0000
  H   H891      1.0  0.89233  0.67716  0.09895  1.0000
  H   H892      1.0  0.92819  0.69319  0.12413  1.0000
  C   C894      1.0  0.92933  0.63337  0.29434  1.0000
  C   C895      1.0  0.94893  0.65004  0.28817  1.0000
  C   C896      1.0  0.95459  0.65564  0.26300  1.0000
  C   C897      1.0  0.94089  0.64431  0.24378  1.0000
  C   C898      1.0  0.92187  0.62700  0.24995  1.0000
  C   C899      1.0  0.91597  0.62168  0.27510  1.0000
  H   H893      1.0  0.95941  0.65908  0.30295  1.0000
  H   H894      1.0  0.96938  0.66887  0.25848  1.0000
  H   H895      1.0  0.91132  0.61800  0.23519  1.0000
  H   H896      1.0  0.90088  0.60879  0.27960  1.0000
  H   H897      1.0  0.63645  0.74752  0.19410  1.0000
  H   H898      1.0  0.74412  0.72968  0.48967  1.0000
  C   C900      1.0  0.65366  0.57468  0.18257  1.0000
  C   C901      1.0  0.65046  0.59962  0.17426  1.0000
  C   C902      1.0  0.63177  0.61507  0.18475  1.0000
  C   C903      1.0  0.61607  0.60560  0.20355  1.0000
  C   C904      1.0  0.61897  0.58054  0.21153  1.0000
  C   C905      1.0  0.63769  0.56514  0.20111  1.0000
  H   H899      1.0  0.66268  0.60711  0.15985  1.0000
  H   H900      1.0  0.62967  0.63435  0.17842  1.0000
  H   H901      1.0  0.60689  0.57309  0.22607  1.0000
  H   H902      1.0  0.63984  0.54595  0.20754  1.0000
  H   H903      1.0  0.88220  0.67028  0.30678  1.0000
  H   H904      1.0  0.75964  0.53248  0.23070  1.0000
  C   C906      1.0  0.79151  0.55974  0.27904  1.0000
  C   C907      1.0  0.78280  0.55556  0.25460  1.0000
  H   H905      1.0  0.85616  0.72525  0.08906  1.0000
  C   C908      1.0  0.86294  0.66898  0.46329  1.0000
  C   C909      1.0  0.87364  0.66467  0.43969  1.0000
  C   C910      1.0  0.86223  0.64801  0.42275  1.0000
  C   C911      1.0  0.83978  0.63589  0.42918  1.0000
  C   C912      1.0  0.82886  0.64057  0.45257  1.0000
  C   C913      1.0  0.84054  0.65677  0.46968  1.0000
  H   H906      1.0  0.89098  0.67404  0.43456  1.0000
  H   H907      1.0  0.87079  0.64453  0.40474  1.0000
  H   H908      1.0  0.81151  0.63119  0.45765  1.0000
  C   C914      1.0  0.72520  0.57822  0.21011  1.0000
  C   C915      1.0  0.70051  0.56390  0.24612  1.0000
  C   C916      1.0  0.78881  0.74163  0.44572  1.0000
  S   S311      1.0  0.00376  0.70140  0.21848  1.0000
  C   C917      1.0  0.76543  0.74238  0.45771  1.0000
  C   C918      1.0  0.78269  0.75782  0.07794  1.0000
  H   H909      1.0  0.84827  0.72812  0.45645  1.0000
  H   H910      1.0  0.53801  0.62881  0.20253  1.0000
  H   H911      1.0  0.88291  0.64072  0.51233  1.0000
  H   H912      1.0  0.77937  0.70430  0.50717  1.0000
  C   C919      1.0  0.76191  0.72867  0.47979  1.0000
  H   H913      1.0  0.83310  0.56723  0.46218  1.0000
  C   C920      1.0  0.53137  0.62369  0.18349  1.0000
  H   H914      1.0  0.65582  0.62081  0.23983  1.0000
  C   C921      1.0  0.88955  0.68222  0.22167  1.0000
  H   H915      1.0  0.71287  0.54773  0.24787  1.0000
  H   H916      1.0  0.52920  0.64161  0.17285  1.0000
  H   H917      1.0  0.63814  0.75922  0.22588  1.0000
  C   C922      1.0  0.91035  0.69769  0.29673  1.0000
  N   N76       1.0  0.80820  0.72780  0.45562  1.0000
  C   C923      1.0  0.83253  0.72663  0.44277  1.0000
  H   H918      1.0  0.64840  0.58889  0.27316  1.0000
  N   N77       1.0  0.87130  0.60846  0.49178  1.0000
  C   C924      1.0  0.85167  0.74280  0.07851  1.0000
  N   N78       1.0  0.89678  0.68777  0.24753  1.0000
  C   C925      1.0  0.80488  0.71426  0.47721  1.0000
  C   C926      1.0  0.68048  0.56635  0.26287  1.0000
  C   C927      1.0  0.68871  0.60183  0.22551  1.0000
  N   N79       1.0  0.70412  0.58127  0.22747  1.0000
  C   C928      1.0  0.56054  0.76611  0.26649  1.0000
  H   H919      1.0  0.90226  0.60041  0.43707  1.0000
  H   H920      1.0  0.78995  0.56697  0.23934  1.0000
  N   N80       1.0  0.82495  0.74304  0.07161  1.0000
  C   C929      1.0  0.66856  0.60495  0.24201  1.0000
  H   H921      1.0  0.52856  0.73735  0.30605  1.0000
  H   H922      1.0  0.69142  0.61553  0.21062  1.0000
  H   H923      1.0  0.83006  0.71618  0.04274  1.0000
  C   C930      1.0  0.92256  0.70997  0.27702  1.0000
  C   C931      1.0  0.79152  0.72788  0.04542  1.0000
  H   H924      1.0  0.79142  0.75262  0.42875  1.0000
  C   C932      1.0  0.89108  0.68069  0.29162  1.0000
  C   C933      1.0  0.62996  0.75653  0.13486  1.0000
  H   H925      1.0  0.67743  0.55216  0.27724  1.0000
  H   H926      1.0  0.74290  0.58486  0.21890  1.0000
  H   H927      1.0  0.93795  0.72284  0.28071  1.0000
  H   H928      1.0  0.92550  0.71391  0.23718  1.0000
  H   H929      1.0  0.90522  0.62388  0.47685  1.0000
  H   H930      1.0  0.66477  0.74770  0.11624  1.0000
  H   H931      1.0  0.54611  0.61205  0.17447  1.0000
  H   H932      1.0  0.72728  0.55816  0.20483  1.0000
  H   H933      1.0  0.86366  0.74331  0.06146  1.0000
  H   H934      1.0  0.83433  0.70837  0.43290  1.0000
  H   H935      1.0  0.72186  0.58866  0.19229  1.0000
  C   C934      1.0  0.87325  0.62238  0.51530  1.0000
  H   H936      1.0  0.90367  0.68941  0.20803  1.0000
  C   C935      1.0  0.91546  0.70478  0.25238  1.0000
  C   C936      1.0  0.78170  0.71443  0.48960  1.0000
  C   C937      1.0  0.88967  0.61099  0.47401  1.0000
  C   C938      1.0  0.80821  0.75764  0.08445  1.0000
  H   H937      1.0  0.82039  0.70368  0.48519  1.0000
  H   H938      1.0  0.00845  0.69249  0.10950  1.0000
  H   H939      1.0  0.83480  0.74219  0.42899  1.0000
  C   C939      1.0  0.85148  0.59250  0.48801  1.0000
  H   H940      1.0  0.78540  0.71665  0.02966  1.0000
  H   H941      1.0  0.84273  0.52299  0.39965  1.0000
  C   C940      1.0  0.88817  0.59774  0.45152  1.0000
  C   C941      1.0  0.78237  0.54487  0.29867  1.0000
  H   H942      1.0  0.86591  0.57207  0.42962  1.0000
  C   C942      1.0  0.86779  0.58178  0.44733  1.0000
  H   H943      1.0  0.75485  0.74368  0.05228  1.0000
  H   H944      1.0  0.82082  0.75725  0.51668  1.0000
  C   C943      1.0  0.80245  0.76583  0.51515  1.0000
  C   C944      1.0  0.76553  0.53619  0.24969  1.0000
  H   H945      1.0  0.83690  0.59055  0.50207  1.0000
  H   H946      1.0  0.75042  0.75420  0.45037  1.0000
  C   C945      1.0  0.54015  0.77082  0.25061  1.0000
  H   H947      1.0  0.84898  0.54024  0.27696  1.0000
  C   C946      1.0  0.62960  0.76224  0.20712  1.0000
  H   H948      1.0  0.60893  0.75964  0.20879  1.0000
  H   H949      1.0  0.81457  0.76974  0.09942  1.0000
  H   H950      1.0  0.53913  0.76177  0.23259  1.0000
  C   C947      1.0  0.76471  0.52584  0.29383  1.0000
  H   H951      1.0  0.83182  0.52679  0.25185  1.0000
  H   H952      1.0  0.52443  0.71233  0.26847  1.0000
  H   H953      1.0  0.59622  0.77142  0.15131  1.0000
  H   H954      1.0  0.76964  0.77022  0.08746  1.0000
  C   C948      1.0  0.84400  0.52203  0.26814  1.0000
  S   S312      1.0  0.99280  0.68949  0.86397  1.0000
  Fe  Fe158     1.0  0.87964  0.71302  0.57684  1.0000
  S   S313      1.0  0.84234  0.70077  0.59287  1.0000
  S   S314      1.0  0.90936  0.72827  0.60346  1.0000
  C   C949      1.0  0.96357  0.67955  0.95928  1.0000
  S   S315      1.0  0.82753  0.68176  0.53677  1.0000
  Fe  Fe159     1.0  0.82622  0.71794  0.55779  1.0000
  S   S316      1.0  0.79055  0.74104  0.55889  1.0000
  Fe  Fe160     1.0  0.84747  0.66557  0.57036  1.0000
  S   S317      1.0  0.83516  0.62552  0.57905  1.0000
  S   S318      1.0  0.86306  0.73231  0.54304  1.0000
  S   S319      1.0  0.88592  0.67625  0.55670  1.0000
  Fe  Fe161     1.0  0.86557  0.69445  0.52440  1.0000
  H   H955      1.0  0.01487  0.73065  0.96348  1.0000
  S   S320      1.0  0.55268  0.67567  0.87219  1.0000
  Fe  Fe162     1.0  0.88631  0.72258  0.96034  1.0000
  S   S321      1.0  0.88633  0.68293  0.97508  1.0000
  S   S322      1.0  0.92145  0.74096  0.94431  1.0000
  Fe  Fe163     1.0  0.83226  0.73230  0.97763  1.0000
  S   S323      1.0  0.82844  0.69335  0.99358  1.0000
  C   C950      1.0  0.01809  0.76947  0.76353  1.0000
  H   H956      1.0  0.79875  0.60837  0.85306  1.0000
  Fe  Fe164     1.0  0.84727  0.68060  0.95850  1.0000
  S   S324      1.0  0.83475  0.64661  0.93617  1.0000
  S   S325      1.0  0.86986  0.73937  0.99547  1.0000
  S   S326      1.0  0.84875  0.71918  0.94114  1.0000
  Fe  Fe165     1.0  0.68948  0.55039  0.85992  1.0000
  S   S327      1.0  0.68824  0.56163  0.81937  1.0000
  Fe  Fe166     1.0  0.70897  0.60206  0.87664  1.0000
  S   S328      1.0  0.70850  0.61695  0.83735  1.0000
  S   S329      1.0  0.72008  0.63047  0.90615  1.0000
  Fe  Fe167     1.0  0.67107  0.59761  0.83390  1.0000
  S   S330      1.0  0.63861  0.61728  0.81412  1.0000
  Fe  Fe168     1.0  0.72561  0.57989  0.82694  1.0000
  S   S331      1.0  0.76246  0.57924  0.80578  1.0000
  S   S332      1.0  0.67010  0.58523  0.87405  1.0000
  S   S333      1.0  0.72827  0.56610  0.86664  1.0000
  H   H957      1.0  0.77709  0.62792  0.63892  1.0000
  S   S334      1.0  0.88070  0.55558  0.66481  1.0000
  C   C951      1.0  0.76702  0.55794  0.78108  1.0000
  C   C952      1.0  0.79160  0.55250  0.77320  1.0000
  H   H958      1.0  0.60635  0.70514  0.85475  1.0000
  H   H959      1.0  0.80741  0.56142  0.78232  1.0000
  C   C953      1.0  0.79590  0.53518  0.75391  1.0000
  C   C954      1.0  0.57066  0.76685  0.69710  1.0000
  C   C955      1.0  0.80243  0.64101  0.93034  1.0000
  C   C956      1.0  0.79538  0.61983  0.91641  1.0000
  C   C957      1.0  0.77010  0.61598  0.90948  1.0000
  C   C958      1.0  0.75162  0.63327  0.91652  1.0000
  C   C959      1.0  0.75854  0.65401  0.93114  1.0000
  C   C960      1.0  0.78385  0.65794  0.93796  1.0000
  H   H960      1.0  0.80961  0.60653  0.91065  1.0000
  H   H961      1.0  0.76497  0.59974  0.89855  1.0000
  H   H962      1.0  0.74435  0.66739  0.93683  1.0000
  H   H963      1.0  0.78903  0.67428  0.94875  1.0000
  C   C961      1.0  0.57384  0.65629  0.85549  1.0000
  C   C962      1.0  0.59101  0.64116  0.86881  1.0000
  C   C963      1.0  0.61041  0.62832  0.85632  1.0000
  C   C964      1.0  0.61278  0.63048  0.83033  1.0000
  C   C965      1.0  0.59501  0.64479  0.81691  1.0000
  C   C966      1.0  0.57563  0.65766  0.82941  1.0000
  H   H964      1.0  0.58963  0.63974  0.88895  1.0000
  H   H965      1.0  0.62385  0.61726  0.86686  1.0000
  H   H966      1.0  0.59665  0.64648  0.79679  1.0000
  H   H967      1.0  0.56265  0.66934  0.81893  1.0000
  N   N81       1.0  0.62648  0.68811  0.88506  1.0000
  H   H968      1.0  0.78756  0.62705  0.82688  1.0000
  H   H969      1.0  0.88390  0.61122  0.52941  1.0000
  H   H970      1.0  0.67148  0.66231  0.83462  1.0000
  C   C967      1.0  0.64631  0.67314  0.89198  1.0000
  C   C968      1.0  0.84964  0.60596  0.60175  1.0000
  C   C969      1.0  0.86893  0.61460  0.61730  1.0000
  C   C970      1.0  0.87885  0.59874  0.63614  1.0000
  C   C971      1.0  0.86943  0.57427  0.63965  1.0000
  C   C972      1.0  0.85042  0.56557  0.62381  1.0000
  C   C973      1.0  0.84062  0.58133  0.60495  1.0000
  H   H971      1.0  0.87606  0.63354  0.61500  1.0000
  H   H972      1.0  0.89361  0.60560  0.64827  1.0000
  H   H973      1.0  0.84316  0.54674  0.62615  1.0000
  H   H974      1.0  0.82574  0.57449  0.59297  1.0000
  H   H975      1.0  0.00552  0.75520  0.75642  1.0000
  C   C974      1.0  0.66302  0.66397  0.87402  1.0000
  C   C975      1.0  0.56036  0.73529  0.72809  1.0000
  H   H976      1.0  0.77794  0.54853  0.68477  1.0000
  H   H977      1.0  0.57834  0.77073  0.78337  1.0000
  C   C976      1.0  0.97228  0.73635  0.81579  1.0000
  C   C977      1.0  0.96040  0.69965  0.97560  1.0000
  H   H978      1.0  0.60506  0.52473  0.85313  1.0000
  C   C978      1.0  0.97286  0.70440  0.88584  1.0000
  C   C979      1.0  0.97973  0.72688  0.89742  1.0000
  C   C980      1.0  0.96349  0.73811  0.91486  1.0000
  C   C981      1.0  0.94044  0.72683  0.92118  1.0000
  C   C982      1.0  0.93351  0.70440  0.90955  1.0000
  C   C983      1.0  0.94960  0.69334  0.89181  1.0000
  H   H979      1.0  0.99751  0.73565  0.89303  1.0000
  C   C984      1.0  0.93459  0.76509  0.62913  1.0000
  H   H980      1.0  0.91579  0.69555  0.91426  1.0000
  H   H981      1.0  0.94410  0.67599  0.88289  1.0000
  H   H982      1.0  0.94241  0.74964  0.63989  1.0000
  H   H983      1.0  0.98731  0.66297  0.93141  1.0000
  Fe  Fe169     1.0  0.86750  0.69940  0.00885  1.0000
  H   H984      1.0  0.94321  0.70140  0.98642  1.0000
  H   H985      1.0  0.75353  0.65911  0.86229  1.0000
  C   C985      1.0  0.53857  0.76274  0.78524  1.0000
  C   C986      1.0  0.63911  0.68547  0.84199  1.0000
  H   H986      1.0  0.83580  0.61836  0.66386  1.0000
  C   C987      1.0  0.81623  0.65245  0.86707  1.0000
  N   N82       1.0  0.80101  0.60025  0.65522  1.0000
  C   C988      1.0  0.78492  0.58096  0.66093  1.0000
  H   H987      1.0  0.67836  0.65162  0.87952  1.0000
  C   C989      1.0  0.79051  0.56408  0.68039  1.0000
  H   H988      1.0  0.59728  0.68005  0.91083  1.0000
  H   H989      1.0  0.76306  0.69797  0.88562  1.0000
  C   C990      1.0  0.79467  0.61755  0.63465  1.0000
  H   H990      1.0  0.76775  0.57838  0.65027  1.0000
  H   H991      1.0  0.59500  0.71048  0.89659  1.0000
  C   C991      1.0  0.95921  0.74701  0.79568  1.0000
  C   C992      1.0  0.57826  0.75041  0.71610  1.0000
  H   H992      1.0  0.61858  0.70492  0.92020  1.0000
  C   C993      1.0  0.82276  0.60337  0.66858  1.0000
  H   H993      1.0  0.80983  0.63158  0.63115  1.0000
  C   C994      1.0  0.77556  0.52360  0.74207  1.0000
  H   H994      1.0  0.72767  0.55040  0.77520  1.0000
  C   C995      1.0  0.74669  0.54623  0.76935  1.0000
  H   H995      1.0  0.54056  0.74843  0.79961  1.0000
  H   H996      1.0  0.94688  0.73550  0.78433  1.0000
  C   C996      1.0  0.97899  0.71808  0.97719  1.0000
  H   H997      1.0  0.85435  0.62674  0.52309  1.0000
  H   H998      1.0  0.79223  0.60695  0.61696  1.0000
  H   H999      1.0  0.96894  0.75548  0.92378  1.0000
  H   H1000     1.0  0.76654  0.61732  0.85158  1.0000
  H   H1001     1.0  0.94887  0.66552  0.95746  1.0000
  C   C997      1.0  0.65931  0.67014  0.84888  1.0000
  C   C998      1.0  0.60854  0.69637  0.90413  1.0000
  C   C999      1.0  0.75096  0.52930  0.74974  1.0000
  H   H1002     1.0  0.63550  0.68946  0.82238  1.0000
  H   H1003     1.0  0.80721  0.70739  0.89789  1.0000
  C   C1000     1.0  0.00058  0.71614  0.96235  1.0000
  S   S335      1.0  0.79717  0.75662  0.97774  1.0000
  C   C1001     1.0  0.62271  0.69426  0.86042  1.0000
  H   H1004     1.0  0.83118  0.63928  0.86280  1.0000
  C   C1002     1.0  0.78405  0.76073  0.53312  1.0000
  H   H1005     1.0  0.84132  0.67783  0.88629  1.0000
  C   C1003     1.0  0.98530  0.67828  0.94457  1.0000
  C   C1004     1.0  0.80296  0.69092  0.88677  1.0000
  C   C1005     1.0  0.78594  0.62393  0.84739  1.0000
  C   C1006     1.0  0.77294  0.66355  0.86677  1.0000
  C   C1007     1.0  0.82215  0.67436  0.88017  1.0000
  C   C1008     1.0  0.82905  0.58669  0.68796  1.0000
  N   N83       1.0  0.79182  0.64712  0.86087  1.0000
  C   C1009     1.0  0.77820  0.68561  0.87991  1.0000
  H   H1006     1.0  0.97004  0.71654  0.82044  1.0000
  H   H1007     1.0  0.81777  0.55351  0.70838  1.0000
  C   C1010     1.0  0.81282  0.56692  0.69381  1.0000
  H   H1008     1.0  0.64905  0.66776  0.91142  1.0000
  C   C1011     1.0  0.98856  0.75133  0.82985  1.0000
  H   H1009     1.0  0.81493  0.53051  0.74852  1.0000
  H   H1010     1.0  0.84684  0.58856  0.69779  1.0000
  H   H1011     1.0  0.56637  0.72296  0.74320  1.0000
  C   C1012     1.0  0.91739  0.76005  0.60978  1.0000
  H   H1012     1.0  0.97629  0.73409  0.98936  1.0000
  H   H1013     1.0  0.74597  0.76808  0.54484  1.0000
  H   H1014     1.0  0.74579  0.53041  0.82561  1.0000
  N   N84       1.0  0.00331  0.69660  0.94605  1.0000
  H   H1015     1.0  0.99874  0.74282  0.84532  1.0000
  H   H1016     1.0  0.59776  0.75021  0.72215  1.0000
  N   N85       1.0  0.53552  0.73671  0.72147  1.0000
  C   C1013     1.0  0.54536  0.76788  0.69016  1.0000
  C   C1014     1.0  0.52794  0.75249  0.70255  1.0000
  H   H1017     1.0  0.52258  0.71652  0.75371  1.0000
  Fe  Fe170     1.0  0.73376  0.83964  0.46686  1.0000
  S   S336      1.0  0.73975  0.87984  0.47810  1.0000
  S   S337      1.0  0.76738  0.81340  0.46726  1.0000
  Fe  Fe171     1.0  0.67989  0.84971  0.44911  1.0000
  S   S338      1.0  0.68205  0.89054  0.45887  1.0000
  S   S339      1.0  0.64633  0.83088  0.43068  1.0000
  Fe  Fe172     1.0  0.72080  0.88975  0.44182  1.0000
  S   S340      1.0  0.73132  0.92046  0.41385  1.0000
  H   H1018     1.0  0.71163  0.01987  0.21929  1.0000
  S   S341      1.0  0.71721  0.84974  0.42941  1.0000
  S   S342      1.0  0.69614  0.83578  0.48580  1.0000
  Fe  Fe173     1.0  0.86002  0.97498  0.35868  1.0000
  S   S343      1.0  0.86742  0.96303  0.31917  1.0000
  S   S344      1.0  0.84554  0.94590  0.38664  1.0000
  H   H1019     1.0  0.99043  0.81421  0.26253  1.0000
  Fe  Fe174     1.0  0.85665  0.00253  0.30844  1.0000
  H   H1020     1.0  0.53421  0.86185  0.41882  1.0000
  Fe  Fe175     1.0  0.90645  0.97809  0.32477  1.0000
  S   S345      1.0  0.93939  0.95670  0.30835  1.0000
  H   H1021     1.0  0.65821  0.94666  0.38425  1.0000
  S   S346      1.0  0.90008  0.98750  0.36498  1.0000
  C   C1015     1.0  0.74629  0.00843  0.27143  1.0000
  C   C1016     1.0  0.71504  0.97398  0.02132  1.0000
  Fe  Fe176     1.0  0.71186  0.90114  0.08463  1.0000
  S   S347      1.0  0.67333  0.89099  0.07095  1.0000
  S   S348      1.0  0.72338  0.94175  0.09173  1.0000
  Fe  Fe177     1.0  0.73288  0.84893  0.07028  1.0000
  S   S349      1.0  0.69572  0.83555  0.05521  1.0000
  S   S350      1.0  0.76969  0.82725  0.06902  1.0000
  Fe  Fe178     1.0  0.69309  0.87432  0.03797  1.0000
  Fe  Fe179     1.0  0.67958  0.85338  0.08982  1.0000
  S   S351      1.0  0.64730  0.83885  0.11403  1.0000
  S   S352      1.0  0.73129  0.88612  0.05056  1.0000
  S   S353      1.0  0.71711  0.86480  0.10607  1.0000
  H   H1022     1.0  0.62939  0.92230  0.36157  1.0000
  C   C1017     1.0  0.65697  0.78751  0.11393  1.0000
  S   S354      1.0  0.55716  0.89177  0.37888  1.0000
  H   H1023     1.0  0.73940  0.80603  0.02909  1.0000
  C   C1018     1.0  0.67169  0.93108  0.38784  1.0000
  H   H1024     1.0  0.54279  0.80266  0.31582  1.0000
  H   H1025     1.0  0.01195  0.90105  0.31945  1.0000
  H   H1026     1.0  0.67509  0.93000  0.40838  1.0000
  C   C1019     1.0  0.61828  0.80076  0.13358  1.0000
  C   C1020     1.0  0.64031  0.80679  0.12024  1.0000
  S   S355      1.0  0.84631  0.01370  0.34765  1.0000
  H   H1027     1.0  0.66789  0.93226  0.02761  1.0000
  H   H1028     1.0  0.60528  0.81557  0.13852  1.0000
  C   C1021     1.0  0.77734  0.80879  0.04279  1.0000
  H   H1029     1.0  0.73816  0.00538  0.18301  1.0000
  C   C1022     1.0  0.62551  0.83134  0.19380  1.0000
  C   C1023     1.0  0.69130  0.99329  0.15264  1.0000
  C   C1024     1.0  0.70929  0.00220  0.13570  1.0000
  C   C1025     1.0  0.71887  0.98617  0.11713  1.0000
  C   C1026     1.0  0.71051  0.96116  0.11526  1.0000
  C   C1027     1.0  0.69240  0.95231  0.13209  1.0000
  C   C1028     1.0  0.68290  0.96831  0.15074  1.0000
  H   H1030     1.0  0.77520  0.97190  0.22845  1.0000
  H   H1031     1.0  0.73294  0.99314  0.10423  1.0000
  H   H1032     1.0  0.68580  0.93311  0.13083  1.0000
  H   H1033     1.0  0.66901  0.96126  0.16380  1.0000
  C   C1029     1.0  0.96342  0.94260  0.32652  1.0000
  C   C1030     1.0  0.96506  0.94608  0.35238  1.0000
  C   C1031     1.0  0.98364  0.93329  0.36634  1.0000
  C   C1032     1.0  0.00051  0.91679  0.35461  1.0000
  C   C1033     1.0  0.99921  0.91379  0.32869  1.0000
  C   C1034     1.0  0.98076  0.92669  0.31472  1.0000
  H   H1034     1.0  0.95183  0.95832  0.36166  1.0000
  H   H1035     1.0  0.98456  0.93574  0.38639  1.0000
  S   S356      1.0  0.67986  0.01223  0.17726  1.0000
  H   H1036     1.0  0.97963  0.92397  0.29470  1.0000
  C   C1035     1.0  0.64044  0.90554  0.36534  1.0000
  Fe  Fe180     1.0  0.70071  0.87686  0.49430  1.0000
  C   C1036     1.0  0.72626  0.01185  0.23102  1.0000
  C   C1037     1.0  0.62048  0.84790  0.41828  1.0000
  C   C1038     1.0  0.61870  0.87403  0.42050  1.0000
  C   C1039     1.0  0.59877  0.88712  0.40890  1.0000
  C   C1040     1.0  0.58053  0.87425  0.39491  1.0000
  C   C1041     1.0  0.58191  0.84806  0.39322  1.0000
  C   C1042     1.0  0.60181  0.83496  0.40489  1.0000
  H   H1037     1.0  0.63288  0.88419  0.43082  1.0000
  H   H1038     1.0  0.59776  0.90738  0.41037  1.0000
  H   H1039     1.0  0.56805  0.83795  0.38240  1.0000
  H   H1040     1.0  0.60307  0.81474  0.40308  1.0000
  C   C1043     1.0  0.76315  0.92730  0.40636  1.0000
  C   C1044     1.0  0.76857  0.94644  0.38886  1.0000
  C   C1045     1.0  0.79366  0.95238  0.38253  1.0000
  C   C1046     1.0  0.81358  0.93921  0.39371  1.0000
  C   C1047     1.0  0.80812  0.92004  0.41115  1.0000
  C   C1048     1.0  0.78307  0.91408  0.41744  1.0000
  H   H1041     1.0  0.75331  0.95680  0.38023  1.0000
  H   H1042     1.0  0.79759  0.96719  0.36913  1.0000
  H   H1043     1.0  0.82337  0.90975  0.41990  1.0000
  H   H1044     1.0  0.77919  0.89930  0.43090  1.0000
  C   C1049     1.0  0.64496  0.86049  0.36242  1.0000
  H   H1045     1.0  0.81682  0.80734  0.05200  1.0000
  H   H1046     1.0  0.65111  0.85355  0.17141  1.0000
  N   N86       1.0  0.66238  0.90687  0.37874  1.0000
  C   C1050     1.0  0.76332  0.99125  0.26144  1.0000
  H   H1047     1.0  0.61353  0.88125  0.34716  1.0000
  C   C1051     1.0  0.75879  0.80071  0.02613  1.0000
  C   C1052     1.0  0.80237  0.80111  0.03920  1.0000
  C   C1053     1.0  0.65725  0.79116  0.18418  1.0000
  H   H1048     1.0  0.81133  0.78595  0.48114  1.0000
  H   H1049     1.0  0.80934  0.84868  0.50751  1.0000
  C   C1054     1.0  0.77330  0.79343  0.49290  1.0000
  C   C1055     1.0  0.75487  0.78835  0.51086  1.0000
  C   C1056     1.0  0.64719  0.83520  0.17959  1.0000
  H   H1050     1.0  0.67400  0.79189  0.10374  1.0000
  N   N87       1.0  0.91712  0.90090  0.34571  1.0000
  C   C1057     1.0  0.93833  0.88919  0.35452  1.0000
  C   C1058     1.0  0.90119  0.91286  0.36182  1.0000
  C   C1059     1.0  0.94444  0.88991  0.37998  1.0000
  C   C1060     1.0  0.90679  0.91408  0.38735  1.0000
  C   C1061     1.0  0.92863  0.90262  0.39643  1.0000
  C   C1062     1.0  0.91087  0.89958  0.31903  1.0000
  H   H1051     1.0  0.95110  0.87987  0.34176  1.0000
  H   H1052     1.0  0.88408  0.92173  0.35501  1.0000
  H   H1053     1.0  0.96180  0.88138  0.38669  1.0000
  H   H1054     1.0  0.89423  0.92400  0.39992  1.0000
  H   H1055     1.0  0.93337  0.90374  0.41613  1.0000
  H   H1056     1.0  0.89981  0.91631  0.31296  1.0000
  H   H1057     1.0  0.92822  0.89977  0.30740  1.0000
  H   H1058     1.0  0.89988  0.88231  0.31519  1.0000
  N   N88       1.0  0.63569  0.78743  0.19766  1.0000
  H   H1059     1.0  0.69333  0.88670  0.39442  1.0000
  H   H1060     1.0  0.67763  0.84511  0.38099  1.0000
  H   H1061     1.0  0.69735  0.93309  0.04358  1.0000
  C   C1063     1.0  0.66335  0.81509  0.17499  1.0000
  H   H1062     1.0  0.61272  0.84683  0.19725  1.0000
  S   S357      1.0  0.83544  0.00875  0.27208  1.0000
  H   H1063     1.0  0.63766  0.84228  0.35699  1.0000
  C   C1064     1.0  0.63144  0.88235  0.35693  1.0000
  H   H1064     1.0  0.68988  0.93576  0.37864  1.0000
  C   C1065     1.0  0.67595  0.88558  0.38383  1.0000
  C   C1066     1.0  0.66739  0.86207  0.37592  1.0000
  H   H1065     1.0  0.02086  0.82763  0.20854  1.0000
  H   H1066     1.0  0.72490  0.97064  0.03889  1.0000
  H   H1067     1.0  0.74796  0.01418  0.29079  1.0000
  C   C1067     1.0  0.68222  0.94516  0.03564  1.0000
  N   N89       1.0  0.74331  0.99535  0.22125  1.0000
  C   C1068     1.0  0.76158  0.98490  0.23614  1.0000
  C   C1069     1.0  0.80875  0.78508  0.01935  1.0000
  C   C1070     1.0  0.79705  0.78209  0.49505  1.0000
  H   H1068     1.0  0.66934  0.77540  0.17959  1.0000
  H   H1069     1.0  0.72503  0.97550  0.19219  1.0000
  H   H1070     1.0  0.67370  0.95606  0.05112  1.0000
  C   C1071     1.0  0.54216  0.79413  0.29751  1.0000
  H   H1071     1.0  0.75858  0.97901  0.18791  1.0000
  H   H1072     1.0  0.77836  0.98359  0.27300  1.0000
  H   H1073     1.0  0.52545  0.90733  0.42172  1.0000
  H   H1074     1.0  0.60315  0.80422  0.21387  1.0000
  H   H1075     1.0  0.52933  0.81966  0.45488  1.0000
  H   H1076     1.0  0.67973  0.81781  0.16317  1.0000
  C   C1072     1.0  0.74128  0.98837  0.19485  1.0000
  C   C1073     1.0  0.00691  0.80234  0.26408  1.0000
  S   S358      1.0  0.02171  0.89902  0.37313  1.0000
  C   C1074     1.0  0.56184  0.77834  0.28966  1.0000
  C   C1075     1.0  0.61316  0.77578  0.14096  1.0000
  C   C1076     1.0  0.00808  0.77989  0.25043  1.0000
  C   C1077     1.0  0.62012  0.80719  0.20294  1.0000
  H   H1077     1.0  0.57771  0.77491  0.30194  1.0000
  H   H1078     1.0  0.73647  0.79692  0.50921  1.0000
  S   S359      1.0  0.89642  0.01669  0.31054  1.0000
  C   C1078     1.0  0.72763  0.01884  0.25615  1.0000
  H   H1079     1.0  0.71598  0.02136  0.13703  1.0000
  S   S360      1.0  0.98345  0.77232  0.22961  1.0000
  Fe  Fe181     1.0  0.99161  0.83705  0.70878  1.0000
  H   H1080     1.0  0.72179  0.00545  0.96604  1.0000
  Fe  Fe182     1.0  0.97090  0.89034  0.70083  1.0000
  S   S361      1.0  0.98303  0.89131  0.66076  1.0000
  S   S362      1.0  0.94919  0.92194  0.71939  1.0000
  Fe  Fe183     1.0  0.96801  0.85171  0.65862  1.0000
  S   S363      1.0  0.94135  0.84163  0.62670  1.0000
  S   S364      1.0  0.95349  0.85195  0.69796  1.0000
  H   H1081     1.0  0.75077  0.77878  0.99326  1.0000
  H   H1082     1.0  0.83174  0.77530  0.57458  1.0000
  C   C1079     1.0  0.76026  0.77198  0.53094  1.0000
  C   C1080     1.0  0.69018  0.98229  0.97633  1.0000
  Fe  Fe184     1.0  0.69132  0.96647  0.84517  1.0000
  S   S365      1.0  0.73046  0.95392  0.85555  1.0000
  S   S366      1.0  0.66631  0.93557  0.82967  1.0000
  Fe  Fe185     1.0  0.72372  0.97347  0.89189  1.0000
  S   S367      1.0  0.73883  0.95982  0.92926  1.0000
  Fe  Fe186     1.0  0.74260  0.99149  0.84041  1.0000
  S   S368      1.0  0.77931  0.99463  0.81919  1.0000
  S   S369      1.0  0.68370  0.98355  0.88302  1.0000
  H   H1083     1.0  0.79406  0.88509  0.99086  1.0000
  Fe  Fe187     1.0  0.58313  0.83842  0.71524  1.0000
  S   S370      1.0  0.56597  0.87659  0.72117  1.0000
  S   S371      1.0  0.58508  0.80746  0.74462  1.0000
  Fe  Fe188     1.0  0.60334  0.85228  0.66333  1.0000
  S   S372      1.0  0.58788  0.89143  0.66543  1.0000
  S   S373      1.0  0.62348  0.83555  0.62980  1.0000
  Fe  Fe189     1.0  0.60222  0.89148  0.70519  1.0000
  S   S374      1.0  0.62409  0.92568  0.71872  1.0000
  Fe  Fe190     1.0  0.55311  0.87315  0.68103  1.0000
  S   S375      1.0  0.62036  0.85352  0.70179  1.0000
  S   S376      1.0  0.56753  0.83377  0.67643  1.0000
  C   C1081     1.0  0.00908  0.79146  0.83895  1.0000
  H   H1084     1.0  0.71905  0.92061  0.81049  1.0000
  S   S377      1.0  0.67954  0.88268  0.99851  1.0000
  H   H1085     1.0  0.53190  0.81377  0.73309  1.0000
  H   H1086     1.0  0.82354  0.00650  0.79118  1.0000
  C   C1082     1.0  0.94191  0.78993  0.63462  1.0000
  C   C1083     1.0  0.79675  0.81019  0.56768  1.0000
  C   C1084     1.0  0.72197  0.93824  0.94789  1.0000
  C   C1085     1.0  0.73156  0.93189  0.97155  1.0000
  C   C1086     1.0  0.71852  0.91520  0.98730  1.0000
  C   C1087     1.0  0.69583  0.90454  0.97950  1.0000
  C   C1088     1.0  0.68619  0.91091  0.95580  1.0000
  C   C1089     1.0  0.69920  0.92775  0.94002  1.0000
  H   H1087     1.0  0.74913  0.94001  0.97777  1.0000
  C   C1090     1.0  0.77758  0.82525  0.55758  1.0000
  H   H1088     1.0  0.66860  0.90278  0.94961  1.0000
  H   H1089     1.0  0.69161  0.93263  0.92181  1.0000
  C   C1091     1.0  0.76524  0.78510  0.00601  1.0000
  H   H1090     1.0  0.67502  0.89697  0.73863  1.0000
  C   C1092     1.0  0.71330  0.99391  0.98061  1.0000
  C   C1093     1.0  0.83968  0.79337  0.56751  1.0000
  H   H1091     1.0  0.84297  0.82245  0.52653  1.0000
  C   C1094     1.0  0.65300  0.93431  0.79931  1.0000
  C   C1095     1.0  0.65637  0.95362  0.78172  1.0000
  C   C1096     1.0  0.64670  0.95106  0.75730  1.0000
  C   C1097     1.0  0.63364  0.92921  0.75026  1.0000
  C   C1098     1.0  0.63012  0.91002  0.76791  1.0000
  C   C1099     1.0  0.63974  0.91260  0.79231  1.0000
  H   H1092     1.0  0.66653  0.97042  0.78689  1.0000
  H   H1093     1.0  0.64950  0.96599  0.74373  1.0000
  H   H1094     1.0  0.62019  0.89308  0.76269  1.0000
  H   H1095     1.0  0.63705  0.89757  0.80580  1.0000
  C   C1100     1.0  0.67499  0.88598  0.55787  1.0000
  C   C1101     1.0  0.66739  0.85475  0.55842  1.0000
  C   C1102     1.0  0.65096  0.84164  0.58254  1.0000
  C   C1103     1.0  0.63957  0.85559  0.60894  1.0000
  C   C1104     1.0  0.64193  0.88598  0.61747  1.0000
  C   C1105     1.0  0.65694  0.90773  0.59950  1.0000
  H   H1096     1.0  0.67319  0.84307  0.54298  1.0000
  H   H1097     1.0  0.64716  0.82173  0.58102  1.0000
  H   H1098     1.0  0.63382  0.89171  0.63505  1.0000
  H   H1099     1.0  0.65763  0.92703  0.60645  1.0000
  N   N90       1.0  0.70310  0.92373  0.74926  1.0000
  C   C1106     1.0  0.93766  0.94798  0.70203  1.0000
  C   C1107     1.0  0.94346  0.95127  0.67671  1.0000
  C   C1108     1.0  0.93241  0.97104  0.66292  1.0000
  C   C1109     1.0  0.91538  0.98759  0.67426  1.0000
  C   C1110     1.0  0.91019  0.98487  0.69978  1.0000
  C   C1111     1.0  0.92135  0.96514  0.71361  1.0000
  H   H1100     1.0  0.95615  0.93841  0.66763  1.0000
  H   H1101     1.0  0.93666  0.97315  0.64322  1.0000
  H   H1102     1.0  0.89698  0.99741  0.70870  1.0000
  H   H1103     1.0  0.91679  0.96273  0.73321  1.0000
  C   C1112     1.0  0.93221  0.81007  0.62067  1.0000
  C   C1113     1.0  0.91490  0.80510  0.60135  1.0000
  C   C1114     1.0  0.73068  0.94989  0.78487  1.0000
  H   H1104     1.0  0.93985  0.89917  0.62163  1.0000
  H   H1105     1.0  0.90744  0.82054  0.59036  1.0000
  H   H1106     1.0  0.91917  0.91921  0.60402  1.0000
  C   C1115     1.0  0.78219  0.83929  0.53591  1.0000
  C   C1116     1.0  0.74009  0.85111  0.98688  1.0000
  S   S378      1.0  0.00787  0.87546  0.71577  1.0000
  H   H1107     1.0  0.74133  0.96017  0.79879  1.0000
  H   H1108     1.0  0.68071  0.98479  0.95846  1.0000
  S   S379      1.0  0.73950  0.01004  0.87776  1.0000
  C   C1117     1.0  0.72893  0.95907  0.76043  1.0000
  S   S380      1.0  0.69261  0.89697  0.53071  1.0000
  H   H1109     1.0  0.66247  0.95676  0.99088  1.0000
  N   N91       1.0  0.99183  0.77620  0.82396  1.0000
  Fe  Fe191     1.0  0.70002  0.01890  0.86627  1.0000
  C   C1118     1.0  0.96230  0.77250  0.79008  1.0000
  C   C1119     1.0  0.53379  0.79967  0.74768  1.0000
  C   C1120     1.0  0.82470  0.82330  0.53550  1.0000
  C   C1121     1.0  0.68952  0.90947  0.73014  1.0000
  H   H1110     1.0  0.70032  0.86029  0.93980  1.0000
  H   H1111     1.0  0.71355  0.95296  0.72379  1.0000
  N   N92       1.0  0.81986  0.80918  0.55648  1.0000
  C   C1122     1.0  0.68005  0.96638  0.99469  1.0000
  N   N93       1.0  0.90673  0.90977  0.64113  1.0000
  C   C1123     1.0  0.89162  0.93059  0.64241  1.0000
  C   C1124     1.0  0.90965  0.89437  0.66152  1.0000
  C   C1125     1.0  0.87950  0.93676  0.66477  1.0000
  C   C1126     1.0  0.89800  0.90006  0.68422  1.0000
  C   C1127     1.0  0.88292  0.92147  0.68584  1.0000
  C   C1128     1.0  0.91971  0.90350  0.61781  1.0000
  H   H1112     1.0  0.88953  0.94311  0.62643  1.0000
  H   H1113     1.0  0.92147  0.87780  0.66042  1.0000
  H   H1114     1.0  0.86851  0.95392  0.66603  1.0000
  H   H1115     1.0  0.90144  0.88846  0.70067  1.0000
  H   H1116     1.0  0.87461  0.92663  0.70360  1.0000
  C   C1129     1.0  0.66258  0.92926  0.56091  1.0000
  C   C1130     1.0  0.77695  0.87730  0.98300  1.0000
  H   H1117     1.0  0.70282  0.89781  0.71925  1.0000
  H   H1118     1.0  0.91105  0.88653  0.60936  1.0000
  H   H1119     1.0  0.95524  0.79342  0.64951  1.0000
  H   H1120     1.0  0.98130  0.80663  0.79978  1.0000
  H   H1121     1.0  0.85425  0.78839  0.55350  1.0000
  H   H1122     1.0  0.84889  0.80329  0.58328  1.0000
  S   S381      1.0  0.00523  0.83459  0.66906  1.0000
  H   H1123     1.0  0.60446  0.92972  0.55907  1.0000
  H   H1124     1.0  0.74122  0.87924  0.93039  1.0000
  C   C1131     1.0  0.71498  0.94565  0.74273  1.0000
  H   H1125     1.0  0.70495  0.93894  0.57351  1.0000
  H   H1126     1.0  0.78037  0.89711  0.94777  1.0000
  C   C1132     1.0  0.71004  0.84659  0.95232  1.0000
  C   C1133     1.0  0.70484  0.91455  0.77318  1.0000
  C   C1134     1.0  0.76938  0.88389  0.95880  1.0000
  H   H1127     1.0  0.60670  0.90287  0.53856  1.0000
  C   C1135     1.0  0.55991  0.77537  0.77603  1.0000
  S   S382      1.0  0.99291  0.80132  0.73217  1.0000
  C   C1136     1.0  0.55762  0.79372  0.75712  1.0000
  C   C1137     1.0  0.76227  0.86078  0.99714  1.0000
  C   C1138     1.0  0.61706  0.91918  0.54634  1.0000
  H   H1128     1.0  0.69497  0.89750  0.77860  1.0000
  C   C1139     1.0  0.71850  0.92755  0.79135  1.0000
  H   H1129     1.0  0.73828  0.97652  0.75532  1.0000
  H   H1130     1.0  0.62260  0.93138  0.53033  1.0000
  H   H1131     1.0  0.76722  0.85029  0.52730  1.0000
  N   N94       1.0  0.63927  0.91069  0.56012  1.0000
  H   H1132     1.0  0.75900  0.82528  0.56596  1.0000
  C   C1140     1.0  0.63755  0.88401  0.57331  1.0000
  C   C1141     1.0  0.69096  0.92433  0.57572  1.0000
  C   C1142     1.0  0.67936  0.87399  0.59641  1.0000
  C   C1143     1.0  0.69973  0.89849  0.59246  1.0000
  H   H1133     1.0  0.71503  0.82950  0.94162  1.0000
  H   H1134     1.0  0.66103  0.94680  0.55065  1.0000
  H   H1135     1.0  0.62005  0.87330  0.57156  1.0000
  H   H1136     1.0  0.67919  0.92235  0.71722  1.0000
  H   H1137     1.0  0.68549  0.85778  0.60758  1.0000
  H   H1138     1.0  0.71835  0.89751  0.60059  1.0000
  H   H1139     1.0  0.72621  0.91057  0.00537  1.0000
  S   S383      1.0  0.70406  0.00285  0.82739  1.0000
  C   C1144     1.0  0.90747  0.78022  0.59595  1.0000
  N   N95       1.0  0.73278  0.85769  0.96317  1.0000
  C   C1145     1.0  0.74717  0.87374  0.94907  1.0000
  C   C1146     1.0  0.80770  0.01490  0.78147  1.0000
  C   C1147     1.0  0.72578  0.98990  0.00329  1.0000
  C   C1148     1.0  0.78333  0.01191  0.79116  1.0000
  H   H1140     1.0  0.79278  0.79857  0.58399  1.0000
  S   S384      1.0  0.89974  0.01017  0.65543  1.0000
  H   H1141     1.0  0.53929  0.78086  0.67558  1.0000
  H   H1142     1.0  0.69624  0.84142  0.96713  1.0000
  C   C1149     1.0  0.01649  0.79417  0.75424  1.0000
  C   C1150     1.0  0.97860  0.78697  0.80467  1.0000
  H   H1143     1.0  0.74390  0.99861  0.00666  1.0000
  H   H1144     1.0  0.99977  0.79724  0.85658  1.0000
  H   H1145     1.0  0.72858  0.83858  0.99812  1.0000
  C   C1151     1.0  0.79016  0.77697  0.00272  1.0000
  N   N96       1.0  0.69267  0.96218  0.01668  1.0000
  H   H1146     1.0  0.58430  0.77924  0.68825  1.0000
  H   H1147     1.0  0.74409  0.02048  0.78570  1.0000
  H   H1148     1.0  0.01541  0.80848  0.82851  1.0000
  Fe  Fe192     1.0  0.01902  0.87419  0.67525  1.0000
  C   C1152     1.0  0.80588  0.83837  0.52478  1.0000
  H   H1149     1.0  0.95276  0.78091  0.77408  1.0000
  H   H1150     1.0  0.89450  0.77655  0.58085  1.0000
  H   H1151     1.0  0.82803  0.77910  0.01684  1.0000
  H   H1152     1.0  0.76795  0.85561  0.01603  1.0000
