data_image0
_chemical_formula_structural       S3FeS2FeSCFeSFeS4C2FeH2FeS2HC2H3C6H4CNC6H4CHCH4FeHC7H4C2HCFeC5HCHNCHNSCSHCFeSHCNHC2H2C3SH5FeCFeH2CHSH3SHCHNC2H3C3SH8FeCH3SHFeSC2HNH2SFeHCHFeSCFeSCHCSH5SCSH2C3H2C7SCHC5SCH2SCH4FeSHFeS2FeSFeS3HSCFeHCS3HSFeSCSFeSFeSC2SH3NC8H5NH4CHC6H4CH3C9H5C5H2CHFeSH3C3HCHCHCHNCNCHSHS2NCFeHNCH2CHCH2CH2FeC2H2C2H4CH4SC3HNHSCH4C3H2C2H3CHCH2CHC3HCH2CH3C2NC3HFeCH4SHC2HCH3C4H2CH2C3HC3NCHCSC5NCFeS4FeHSNFeSHCHC2SHSFeS3FeS2FeSFeS2FeS2FeSFeSFeS2HFeCSCFe2SC7H4C3H2C6HCH2CH3C8H5CSH4FeC7H4C2H2C2SHSHS2NCHSH5SCNCHC3H4CH3SCHCFeH4CH3CHNC2FeHCHC3HCHC4NC2SCH4CH4NC6H6FeC3S3HCFeHC2FeCNSC2SH7CH2C4S2HCH2C2H2CH3CSHFeS2FeS2FeSFeS3C2H2C3HC6H5FeH2CH2SCHNHCSCH2C8SHCHC4FeH5SHCNC2H2C2H8CH2NHCH2FeHC2H2FeNHCSCHSFeS2FeSH2S2H3CHCSC3HC2HSHC6H6C2HSC2H2FeCSC2HSCNC6H3C2H3CFeC2HCSHCH3CFeH2CH2CHS2FeCSFeHSH2FeSCSH3CHNHCNC4HC2SFeH2CSC7H4C3HFeCSH2C2HSHC2HCHSC2FeH2C2HCNCHC2H3CHCH2CH4C2HC2NCHC4SC3H2CSFe2H3C3H2C3H2C2NSCH2C3H2C2SC2H2SCHFeC4HFeHCHC2NHCHNS2C2H2CHCH3CHSCHC2H2FeCHSHCH2CH2FeHC2HSFeCSCH2CFeSHSHSNCHSCH5SH3SC2H2SFeS2FeSCFeSFeS3CHCFeSFeSHSNH2CSCH2C3H2C6H5CHC6H4CHCH3CSNC4HC2H4NC3H3C2H2CHC5H3C3FeHCSH7CHFeCSHCHSC2HSCSNHC2FeS2FeSFeS3CS3C2HCSHFeC2Fe2HCHNHCHCH5SH3C5SCH2FeC6H9CHCSCH2NFeC2HC6H3SHFeC2NH3CHCHCS3C2HCFeCH5CHFeCHSH2CSCH2C2HCNC6H2C2H7C2HSHC3HCSNHSFeHSC2HSC2H2FeCSFeCH2C2HCSHC2H2C2H3C2HC4SH2CHFeC4HCHC2SNCH3NH2C3H3CH6NHCNSHSCFeSNCSFe2SFeSHFeS2FeSFeS3H2SHC2SCFeS2FeSFeSFeS3HC4H3C6H6SC6H4C6H4SHC2HC6H4CSH2C3SHSHCHNC6H9NH2CNC3FeC2H2CS2H2CH3C3H3SCHCHC2FeCH3CH2FeH2C2HC2SFeC3H3CH2CHNHCH2NCSHC7H5CH3C2H2CFeHC2H2SHC2H3NCNC2HC3H3CH2CH2C6H3FeS2FeS2HC2HCHSHSHFeS2HFeCH2FeSHFeS2FeS2FeSFeS3NS2CH2C2H2C6H7C10H2C6H6CHSHFeCH2C3H2C2H2FeCNHCFeSH2C4H3FeC2SHS2C3HC4H4CFeHSHCHCHNHCFeH2CH2CSC2HNFeC2NS2CHCHSCHSHC2SHC2NH2CHCHSCH2CHCFeHSH3CHSCSH2SCFeSFeSC5H2C2H3C2HSC6H5NHNCH2CFe2C2H4C2HCHCH2C2HCHNFeS3FeS2FeS2FeSFeS3FeS2H3C5H3C6H4CH2C7H5CHC2FeNC5H6C2NH2CH4CFeCH2CH2NC2HCHC3HC2HC3NC2HCSHNSFeH4SC2HCS2H4SC2H4C2HSHC3HCHCHNCH2C2H3CH3CSC2H2C
_chemical_formula_sum              "S288 Fe144 C864 H864 N72"
_cell_length_a       61.5289
_cell_length_b       69.677
_cell_length_c       32.1031
_cell_angle_alpha    84.89
_cell_angle_beta     87.54
_cell_angle_gamma    108.225

_space_group_name_H-M_alt    "P 1"
_space_group_IT_number       1

loop_
  _space_group_symop_operation_xyz
  'x, y, z'

loop_
  _atom_site_type_symbol
  _atom_site_label
  _atom_site_symmetry_multiplicity
  _atom_site_fract_x
  _atom_site_fract_y
  _atom_site_fract_z
  _atom_site_occupancy
  S   S1        1.0  0.37783  0.21300  0.28466  1.0000
  S   S2        1.0  0.29144  0.07516  0.11073  1.0000
  S   S3        1.0  0.34873  0.06734  0.10127  1.0000
  Fe  Fe1       1.0  0.28435  0.03422  0.33808  1.0000
  S   S4        1.0  0.29554  0.06819  0.33225  1.0000
  S   S5        1.0  0.27981  0.01757  0.28028  1.0000
  Fe  Fe2       1.0  0.28884  0.03073  0.43276  1.0000
  S   S6        1.0  0.30035  0.06456  0.43424  1.0000
  C   C1        1.0  0.24396  0.03021  0.52546  1.0000
  Fe  Fe3       1.0  0.27282  0.06415  0.39090  1.0000
  S   S7        1.0  0.24798  0.08134  0.40114  1.0000
  Fe  Fe4       1.0  0.32205  0.06550  0.37597  1.0000
  S   S8        1.0  0.35822  0.08654  0.36445  1.0000
  S   S9        1.0  0.25916  0.02997  0.39386  1.0000
  S   S10       1.0  0.31275  0.03174  0.37749  1.0000
  S   S11       1.0  0.97941  0.22664  0.48171  1.0000
  C   C2        1.0  0.38399  0.04236  0.33510  1.0000
  C   C3        1.0  0.38053  0.06579  0.46465  1.0000
  Fe  Fe5       1.0  0.35093  0.21973  0.32527  1.0000
  H   H1        1.0  0.36448  0.17111  0.31985  1.0000
  H   H2        1.0  0.35829  0.13396  0.33500  1.0000
  Fe  Fe6       1.0  0.30024  0.20143  0.34748  1.0000
  S   S12       1.0  0.26990  0.17473  0.33605  1.0000
  S   S13       1.0  0.33066  0.20003  0.38214  1.0000
  H   H3        1.0  0.40908  0.19230  0.04327  1.0000
  C   C4        1.0  0.26032  0.24471  0.22391  1.0000
  C   C5        1.0  0.31110  0.15231  0.28591  1.0000
  H   H4        1.0  0.33406  0.18271  0.28809  1.0000
  H   H5        1.0  0.41868  0.08104  0.26697  1.0000
  H   H6        1.0  0.27216  0.12376  0.28316  1.0000
  C   C6        1.0  0.25544  0.10756  0.38408  1.0000
  C   C7        1.0  0.23872  0.11461  0.36605  1.0000
  C   C8        1.0  0.24356  0.13521  0.35200  1.0000
  C   C9        1.0  0.26497  0.14925  0.35689  1.0000
  C   C10       1.0  0.28175  0.14241  0.37588  1.0000
  C   C11       1.0  0.27710  0.12148  0.38893  1.0000
  H   H7        1.0  0.22193  0.10405  0.36251  1.0000
  H   H8        1.0  0.23049  0.14033  0.33751  1.0000
  H   H9        1.0  0.29831  0.15317  0.38005  1.0000
  H   H10       1.0  0.29002  0.11620  0.40346  1.0000
  C   C12       1.0  0.21786  0.03400  0.47383  1.0000
  N   N1        1.0  0.30773  0.13196  0.29473  1.0000
  C   C13       1.0  0.28760  0.05904  0.15780  1.0000
  C   C14       1.0  0.29392  0.04141  0.15867  1.0000
  C   C15       1.0  0.29105  0.02859  0.19612  1.0000
  C   C16       1.0  0.28250  0.03362  0.23334  1.0000
  C   C17       1.0  0.27616  0.05127  0.23255  1.0000
  C   C18       1.0  0.27850  0.06387  0.19474  1.0000
  H   H11       1.0  0.30074  0.03753  0.13023  1.0000
  H   H12       1.0  0.29572  0.01490  0.19615  1.0000
  H   H13       1.0  0.26886  0.05494  0.26079  1.0000
  H   H14       1.0  0.27333  0.07736  0.19414  1.0000
  C   C19       1.0  0.37579  0.07377  0.34318  1.0000
  H   H15       1.0  0.28972  0.23896  0.45344  1.0000
  C   C20       1.0  0.38799  0.06663  0.18894  1.0000
  H   H16       1.0  0.35888  0.18693  0.05450  1.0000
  H   H17       1.0  0.28896  0.11149  0.25400  1.0000
  H   H18       1.0  0.29055  0.23799  0.24164  1.0000
  H   H19       1.0  0.37423  0.03366  0.14831  1.0000
  Fe  Fe7       1.0  0.36933  0.09043  0.04956  1.0000
  H   H20       1.0  0.33675  0.10647  0.10714  1.0000
  C   C21       1.0  0.39346  0.01134  0.46953  1.0000
  C   C22       1.0  0.37175  0.05311  0.35556  1.0000
  C   C23       1.0  0.40562  0.07324  0.29180  1.0000
  C   C24       1.0  0.35071  0.15660  0.08641  1.0000
  C   C25       1.0  0.40042  0.05227  0.30231  1.0000
  C   C26       1.0  0.32456  0.12540  0.31163  1.0000
  C   C27       1.0  0.28639  0.11709  0.28454  1.0000
  H   H21       1.0  0.32216  0.10935  0.31826  1.0000
  H   H22       1.0  0.28061  0.10397  0.30925  1.0000
  H   H23       1.0  0.38861  0.07068  0.43309  1.0000
  H   H24       1.0  0.30504  0.01190  0.09091  1.0000
  C   C28       1.0  0.34861  0.16007  0.31262  1.0000
  C   C29       1.0  0.35690  0.04586  0.24012  1.0000
  H   H25       1.0  0.35899  0.12566  0.12721  1.0000
  C   C30       1.0  0.20275  0.01485  0.48950  1.0000
  Fe  Fe8       1.0  0.31857  0.07015  0.06795  1.0000
  C   C31       1.0  0.32019  0.13106  0.06137  1.0000
  C   C32       1.0  0.34747  0.01371  0.19153  1.0000
  C   C33       1.0  0.39519  0.14106  0.03813  1.0000
  C   C34       1.0  0.37495  0.24569  0.23510  1.0000
  C   C35       1.0  0.33991  0.02759  0.25469  1.0000
  H   H26       1.0  0.34372  0.00130  0.17200  1.0000
  C   C36       1.0  0.35657  0.05911  0.47043  1.0000
  H   H27       1.0  0.35929  0.04534  0.38104  1.0000
  N   N2        1.0  0.36907  0.04791  0.20237  1.0000
  C   C37       1.0  0.33154  0.16662  0.29476  1.0000
  H   H28       1.0  0.40084  0.02725  0.45797  1.0000
  N   N3        1.0  0.39355  0.06615  0.49823  1.0000
  S   S14       1.0  0.39528  0.11860  0.06802  1.0000
  C   C38       1.0  0.23856  0.04169  0.49202  1.0000
  S   S15       1.0  0.32048  0.21967  0.28955  1.0000
  H   H29       1.0  0.38546  0.07984  0.20306  1.0000
  C   C39       1.0  0.34078  0.12152  0.11932  1.0000
  Fe  Fe9       1.0  0.34902  0.04394  0.05795  1.0000
  S   S16       1.0  0.41301  0.03838  0.27195  1.0000
  H   H30       1.0  0.36045  0.05829  0.25948  1.0000
  C   C40       1.0  0.38503  0.23192  0.15960  1.0000
  N   N4        1.0  0.20807  0.00377  0.52260  1.0000
  H   H31       1.0  0.42422  0.06799  0.46237  1.0000
  C   C41       1.0  0.38529  0.22065  0.19825  1.0000
  C   C42       1.0  0.34516  0.13931  0.32110  1.0000
  H   H32       1.0  0.38917  0.20653  0.19885  1.0000
  H   H33       1.0  0.18675  0.00890  0.47497  1.0000
  C   C43       1.0  0.36459  0.03211  0.17819  1.0000
  C   C44       1.0  0.37991  0.22746  0.23602  1.0000
  C   C45       1.0  0.41864  0.07327  0.49144  1.0000
  S   S17       1.0  0.35224  0.01309  0.07717  1.0000
  H   H34       1.0  0.36416  0.16116  0.10773  1.0000
  H   H35       1.0  0.34275  0.00240  0.50867  1.0000
  H   H36       1.0  0.34635  0.05877  0.44369  1.0000
  H   H37       1.0  0.33037  0.02598  0.28470  1.0000
  H   H38       1.0  0.21374  0.04283  0.44745  1.0000
  Fe  Fe10      1.0  0.32934  0.22947  0.40535  1.0000
  C   C46       1.0  0.39310  0.00508  0.51238  1.0000
  Fe  Fe11      1.0  0.39752  0.00469  0.28856  1.0000
  H   H39       1.0  0.38877  0.22654  0.13041  1.0000
  H   H40       1.0  0.32938  0.11988  0.14805  1.0000
  C   C47       1.0  0.39330  0.08400  0.31226  1.0000
  H   H41       1.0  0.39680  0.10006  0.30307  1.0000
  S   S18       1.0  0.29728  0.22934  0.37437  1.0000
  H   H42       1.0  0.29773  0.15764  0.27301  1.0000
  H   H43       1.0  0.38052  0.02636  0.34439  1.0000
  H   H44       1.0  0.44805  0.00124  0.14505  1.0000
  S   S19       1.0  0.29109  0.01328  0.49417  1.0000
  H   H45       1.0  0.40437  0.06473  0.19882  1.0000
  C   C48       1.0  0.33529  0.01141  0.23028  1.0000
  H   H46       1.0  0.25046  0.05646  0.47986  1.0000
  N   N5        1.0  0.33736  0.13671  0.08790  1.0000
  C   C49       1.0  0.40371  0.15995  0.05390  1.0000
  C   C50       1.0  0.34776  0.17128  0.05649  1.0000
  H   H47       1.0  0.41094  0.16075  0.08409  1.0000
  H   H48       1.0  0.38943  0.07029  0.15432  1.0000
  H   H49       1.0  0.30910  0.11538  0.06344  1.0000
  C   C51       1.0  0.28377  0.24708  0.21990  1.0000
  C   C52       1.0  0.34596  0.05300  0.51083  1.0000
  C   C53       1.0  0.98895  0.24661  0.51354  1.0000
  S   S20       1.0  0.33641  0.24068  0.46940  1.0000
  H   H50       1.0  0.04561  0.24240  0.48181  1.0000
  H   H51       1.0  0.24919  0.23375  0.24814  1.0000
  H   H52       1.0  0.47294  0.00887  0.43347  1.0000
  H   H53       1.0  0.38502  0.00200  0.40830  1.0000
  H   H54       1.0  0.41199  0.00187  0.11405  1.0000
  H   H55       1.0  0.32738  0.04774  0.51562  1.0000
  H   H56       1.0  0.42663  0.06700  0.51758  1.0000
  H   H57       1.0  0.42518  0.09012  0.48896  1.0000
  Fe  Fe12      1.0  0.32127  0.24740  0.32024  1.0000
  C   C54       1.0  0.29499  0.24803  0.47885  1.0000
  H   H58       1.0  0.38033  0.12583  0.98581  1.0000
  H   H59       1.0  0.37859  0.15709  0.94520  1.0000
  H   H60       1.0  0.08438  0.23738  0.77778  1.0000
  S   S21       1.0  0.44037  0.02845  0.64317  1.0000
  H   H61       1.0  0.38966  0.08127  0.92513  1.0000
  Fe  Fe13      1.0  0.41774  0.03090  0.69801  1.0000
  S   S22       1.0  0.42602  0.05941  0.73060  1.0000
  C   C55       1.0  0.34112  0.03921  0.87934  1.0000
  C   C56       1.0  0.33349  0.05554  0.84358  1.0000
  H   H62       1.0  0.40700  0.23802  0.81400  1.0000
  N   N6        1.0  0.36793  0.08886  0.87154  1.0000
  H   H63       1.0  0.33179  0.02312  0.88303  1.0000
  H   H64       1.0  0.36796  0.03903  0.93298  1.0000
  S   S23       1.0  0.40401  0.02349  0.54670  1.0000
  Fe  Fe14      1.0  0.40747  0.01352  0.61446  1.0000
  H   H65       1.0  0.35136  0.04908  0.57658  1.0000
  C   C57       1.0  0.37773  0.11086  0.87157  1.0000
  H   H66       1.0  0.35311  0.03448  0.80975  1.0000
  Fe  Fe15      1.0  0.34168  0.06903  0.98171  1.0000
  S   S24       1.0  0.33489  0.06736  0.91312  1.0000
  C   C58       1.0  0.33098  0.16552  0.02812  1.0000
  Fe  Fe16      1.0  0.39042  0.22755  0.98501  1.0000
  S   S25       1.0  0.39174  0.19839  0.96102  1.0000
  C   C59       1.0  0.36307  0.04891  0.90989  1.0000
  H   H67       1.0  0.40503  0.08891  0.84757  1.0000
  C   C60       1.0  0.38330  0.06071  0.53811  1.0000
  S   S26       1.0  0.33902  0.09440  0.01814  1.0000
  H   H68       1.0  0.31927  0.04989  0.82451  1.0000
  H   H69       1.0  0.36518  0.11658  0.88816  1.0000
  H   H70       1.0  0.42938  0.08606  0.79329  1.0000
  H   H71       1.0  0.38019  0.03341  0.75824  1.0000
  H   H72       1.0  0.39380  0.11485  0.88797  1.0000
  S   S27       1.0  0.41616  0.00088  0.73182  1.0000
  C   C61       1.0  0.34821  0.08100  0.84055  1.0000
  S   S28       1.0  0.38520  0.01892  0.66642  1.0000
  H   H73       1.0  0.30366  0.14065  0.00911  1.0000
  H   H74       1.0  0.38166  0.11832  0.83891  1.0000
  C   C62       1.0  0.38547  0.15794  0.97568  1.0000
  C   C63       1.0  0.39338  0.17674  0.99177  1.0000
  C   C64       1.0  0.42150  0.22874  0.86918  1.0000
  H   H75       1.0  0.34322  0.09166  0.81966  1.0000
  H   H76       1.0  0.39363  0.06108  0.56481  1.0000
  C   C65       1.0  0.37617  0.07464  0.90527  1.0000
  C   C66       1.0  0.40644  0.05972  0.77197  1.0000
  C   C67       1.0  0.41241  0.07491  0.79814  1.0000
  C   C68       1.0  0.39711  0.07613  0.83062  1.0000
  C   C69       1.0  0.37331  0.06231  0.84010  1.0000
  C   C70       1.0  0.36911  0.04664  0.81024  1.0000
  C   C71       1.0  0.38495  0.04546  0.77851  1.0000
  S   S29       1.0  0.31723  0.04514  0.02789  1.0000
  C   C72       1.0  0.41980  0.24268  0.83647  1.0000
  H   H77       1.0  0.32899  0.17672  0.00409  1.0000
  C   C73       1.0  0.22835  0.01123  0.54067  1.0000
  C   C74       1.0  0.31692  0.14530  0.03076  1.0000
  C   C75       1.0  0.35938  0.05382  0.54498  1.0000
  C   C76       1.0  0.38625  0.14017  0.99883  1.0000
  C   C77       1.0  0.43749  0.23517  0.89887  1.0000
  S   S30       1.0  0.37366  0.06664  0.00984  1.0000
  C   C78       1.0  0.40262  0.17779  0.03092  1.0000
  H   H78       1.0  0.40992  0.21321  0.87259  1.0000
  H   H79       1.0  0.43806  0.22440  0.92510  1.0000
  S   S31       1.0  0.35912  0.23069  0.01894  1.0000
  C   C79       1.0  0.00219  0.24465  0.54727  1.0000
  H   H80       1.0  0.23280  0.00235  0.56644  1.0000
  H   H81       1.0  0.34563  0.99883  0.58543  1.0000
  H   H82       1.0  0.26031  0.03580  0.53907  1.0000
  H   H83       1.0  0.00581  0.23055  0.55458  1.0000
  Fe  Fe17      1.0  0.42590  0.42621  0.29542  1.0000
  S   S32       1.0  0.39530  0.43267  0.32413  1.0000
  H   H84       1.0  0.02354  0.38472  0.48816  1.0000
  Fe  Fe18      1.0  0.40238  0.38027  0.30898  1.0000
  S   S33       1.0  0.37056  0.38303  0.34032  1.0000
  S   S34       1.0  0.40583  0.34981  0.29916  1.0000
  Fe  Fe19      1.0  0.37442  0.40779  0.28819  1.0000
  S   S35       1.0  0.34178  0.40561  0.25694  1.0000
  Fe  Fe20      1.0  0.39431  0.40722  0.37323  1.0000
  S   S36       1.0  0.38750  0.41057  0.44133  1.0000
  S   S37       1.0  0.40504  0.40353  0.25473  1.0000
  S   S38       1.0  0.42616  0.40225  0.34685  1.0000
  H   H85       1.0  0.24544  0.39727  0.14154  1.0000
  S   S39       1.0  0.31624  0.27584  0.28843  1.0000
  C   C80       1.0  0.98425  0.26486  0.50449  1.0000
  Fe  Fe21      1.0  0.99113  0.40113  0.39209  1.0000
  H   H86       1.0  0.46308  0.44282  0.36434  1.0000
  C   C81       1.0  0.35190  0.34095  0.12695  1.0000
  S   S40       1.0  0.07067  0.37850  0.10933  1.0000
  S   S41       1.0  0.07703  0.32502  0.10862  1.0000
  S   S42       1.0  0.28161  0.35448  0.07051  1.0000
  H   H87       1.0  0.99259  0.44504  0.38009  1.0000
  S   S43       1.0  0.28403  0.29983  0.06569  1.0000
  Fe  Fe22      1.0  0.00637  0.38510  0.31283  1.0000
  S   S44       1.0  0.04307  0.39431  0.32840  1.0000
  C   C82       1.0  0.32295  0.43150  0.08677  1.0000
  S   S45       1.0  0.02668  0.41141  0.41289  1.0000
  Fe  Fe23      1.0  0.03688  0.42309  0.34519  1.0000
  S   S46       1.0  0.05882  0.45499  0.32121  1.0000
  Fe  Fe24      1.0  0.02860  0.38166  0.39419  1.0000
  S   S47       1.0  0.03519  0.35702  0.43661  1.0000
  C   C83       1.0  0.05557  0.47478  0.34890  1.0000
  C   C84       1.0  0.04811  0.47127  0.39147  1.0000
  S   S48       1.0  0.99475  0.36669  0.25854  1.0000
  H   H88       1.0  0.04494  0.45639  0.40820  1.0000
  H   H89       1.0  0.25074  0.38061  0.10512  1.0000
  H   H90       1.0  0.06976  0.31080  0.53022  1.0000
  N   N7        1.0  0.04961  0.29156  0.48860  1.0000
  C   C85       1.0  0.31656  0.25063  0.49397  1.0000
  C   C86       1.0  0.32257  0.26343  0.18576  1.0000
  C   C87       1.0  0.04970  0.37440  0.15139  1.0000
  C   C88       1.0  0.03064  0.35676  0.15769  1.0000
  C   C89       1.0  0.01384  0.35445  0.19067  1.0000
  C   C90       1.0  0.01633  0.36950  0.21813  1.0000
  C   C91       1.0  0.03571  0.38682  0.21245  1.0000
  C   C92       1.0  0.05218  0.38935  0.17896  1.0000
  H   H91       1.0  0.02859  0.34516  0.13654  1.0000
  H   H92       1.0  0.99887  0.34106  0.19477  1.0000
  H   H93       1.0  0.03769  0.39862  0.23308  1.0000
  H   H94       1.0  0.06679  0.40308  0.17416  1.0000
  H   H95       1.0  0.38101  0.35918  0.20983  1.0000
  N   N8        1.0  0.27667  0.40923  0.10183  1.0000
  H   H96       1.0  0.32656  0.25078  0.20400  1.0000
  H   H97       1.0  0.37112  0.25105  0.26409  1.0000
  H   H98       1.0  0.00925  0.40975  0.52172  1.0000
  H   H99       1.0  0.38425  0.30213  0.14766  1.0000
  C   C93       1.0  0.99259  0.33617  0.47443  1.0000
  H   H100      1.0  0.33517  0.39442  0.46175  1.0000
  C   C94       1.0  0.38100  0.33018  0.29034  1.0000
  C   C95       1.0  0.35971  0.33334  0.28714  1.0000
  C   C96       1.0  0.33984  0.31672  0.28451  1.0000
  C   C97       1.0  0.34127  0.29699  0.28554  1.0000
  C   C98       1.0  0.36274  0.29418  0.28594  1.0000
  C   C99       1.0  0.38252  0.31068  0.28833  1.0000
  H   H101      1.0  0.35844  0.34844  0.28778  1.0000
  H   H102      1.0  0.32328  0.31906  0.28345  1.0000
  H   H103      1.0  0.36415  0.27924  0.28464  1.0000
  H   H104      1.0  0.39901  0.30821  0.28979  1.0000
  C   C100      1.0  0.40416  0.40220  0.47738  1.0000
  H   H105      1.0  0.37906  0.37448  0.16302  1.0000
  H   H106      1.0  0.37220  0.33154  0.38499  1.0000
  H   H107      1.0  0.34816  0.39499  0.51122  1.0000
  C   C101      1.0  0.40461  0.40811  0.51802  1.0000
  C   C102      1.0  0.16734  0.35553  0.03662  1.0000
  C   C103      1.0  0.08787  0.33767  0.23069  1.0000
  C   C104      1.0  0.34457  0.39526  0.11866  1.0000
  C   C105      1.0  0.36391  0.40774  0.13562  1.0000
  C   C106      1.0  0.36334  0.41051  0.17834  1.0000
  C   C107      1.0  0.34326  0.40110  0.20415  1.0000
  C   C108      1.0  0.32390  0.38852  0.18729  1.0000
  C   C109      1.0  0.32465  0.38538  0.14470  1.0000
  H   H108      1.0  0.37936  0.41545  0.11557  1.0000
  H   H109      1.0  0.37824  0.42044  0.19103  1.0000
  H   H110      1.0  0.30834  0.38122  0.20724  1.0000
  H   H111      1.0  0.30965  0.37578  0.13190  1.0000
  H   H112      1.0  0.38754  0.30564  0.41655  1.0000
  C   C110      1.0  0.42994  0.38314  0.49569  1.0000
  C   C111      1.0  0.99312  0.28113  0.52826  1.0000
  C   C112      1.0  0.33259  0.38760  0.49493  1.0000
  C   C113      1.0  0.00857  0.33765  0.44101  1.0000
  C   C114      1.0  0.10246  0.36838  0.18313  1.0000
  H   H113      1.0  0.01406  0.32715  0.38155  1.0000
  H   H114      1.0  0.33762  0.34215  0.37709  1.0000
  C   C115      1.0  0.06662  0.26170  0.52363  1.0000
  H   H115      1.0  0.45161  0.43782  0.49729  1.0000
  Fe  Fe25      1.0  0.10415  0.32755  0.05769  1.0000
  S   S49       1.0  0.13593  0.32120  0.07945  1.0000
  H   H116      1.0  0.02501  0.30090  0.45390  1.0000
  H   H117      1.0  0.35356  0.36093  0.19679  1.0000
  H   H118      1.0  0.31820  0.39110  0.51123  1.0000
  C   C116      1.0  0.25146  0.25666  0.19672  1.0000
  C   C117      1.0  0.97968  0.31184  0.40923  1.0000
  C   C118      1.0  0.32259  0.26176  0.52853  1.0000
  H   H119      1.0  0.33681  0.32334  0.07712  1.0000
  C   C119      1.0  0.28952  0.27300  0.16347  1.0000
  H   H120      1.0  0.01480  0.29812  0.17964  1.0000
  C   C120      1.0  0.04316  0.27274  0.47459  1.0000
  H   H121      1.0  0.21924  0.33675  0.06011  1.0000
  C   C121      1.0  0.37480  0.31280  0.14205  1.0000
  H   H122      1.0  0.97846  0.48585  0.46163  1.0000
  N   N9        1.0  0.45547  0.44115  0.43033  1.0000
  C   C122      1.0  0.41670  0.38957  0.46633  1.0000
  N   N10       1.0  0.29798  0.26091  0.18957  1.0000
  C   C123      1.0  0.11711  0.34106  0.17540  1.0000
  H   H123      1.0  0.39489  0.41787  0.52673  1.0000
  S   S50       1.0  0.00090  0.41457  0.32508  1.0000
  H   H124      1.0  0.38022  0.29145  0.37201  1.0000
  S   S51       1.0  0.99220  0.37071  0.37767  1.0000
  S   S52       1.0  0.34569  0.39315  0.06456  1.0000
  N   N11       1.0  0.11633  0.36000  0.16180  1.0000
  C   C124      1.0  0.31219  0.29114  0.39763  1.0000
  Fe  Fe26      1.0  0.38462  0.25544  0.04854  1.0000
  H   H125      1.0  0.29206  0.35803  0.50676  1.0000
  N   N12       1.0  0.35316  0.30006  0.39910  1.0000
  C   C125      1.0  0.27974  0.25667  0.49741  1.0000
  H   H126      1.0  0.98810  0.46486  0.29290  1.0000
  H   H127      1.0  0.99647  0.27239  0.17776  1.0000
  C   C126      1.0  0.37518  0.25709  0.19695  1.0000
  H   H128      1.0  0.13529  0.36141  0.10363  1.0000
  C   C127      1.0  0.43902  0.45238  0.42542  1.0000
  H   H129      1.0  0.01307  0.45963  0.31218  1.0000
  H   H130      1.0  0.42719  0.44976  0.45406  1.0000
  C   C128      1.0  0.05997  0.49427  0.32767  1.0000
  H   H131      1.0  0.41620  0.38470  0.43526  1.0000
  H   H132      1.0  0.99697  0.28373  0.22554  1.0000
  Fe  Fe27      1.0  0.07190  0.35225  0.07394  1.0000
  C   C129      1.0  0.20486  0.34206  0.05355  1.0000
  C   C130      1.0  0.99563  0.49388  0.35774  1.0000
  H   H133      1.0  0.12151  0.38037  0.10605  1.0000
  H   H134      1.0  0.29550  0.27950  0.39994  1.0000
  C   C131      1.0  0.45807  0.47949  0.32003  1.0000
  C   C132      1.0  0.28949  0.41578  0.13470  1.0000
  H   H135      1.0  0.14684  0.38226  0.13443  1.0000
  H   H136      1.0  0.03090  0.26914  0.45082  1.0000
  H   H137      1.0  0.12832  0.33448  0.15880  1.0000
  H   H138      1.0  0.23329  0.25496  0.19931  1.0000
  C   C133      1.0  0.35531  0.32016  0.38990  1.0000
  H   H139      1.0  0.42797  0.44708  0.39951  1.0000
  H   H140      1.0  0.98052  0.45151  0.45024  1.0000
  H   H141      1.0  0.36396  0.36898  0.48773  1.0000
  H   H142      1.0  0.10290  0.31426  0.21951  1.0000
  S   S53       1.0  0.02494  0.28049  0.09883  1.0000
  C   C134      1.0  0.13080  0.37163  0.12477  1.0000
  C   C135      1.0  0.00608  0.26635  0.06528  1.0000
  C   C136      1.0  0.05146  0.25751  0.49202  1.0000
  H   H143      1.0  0.03603  0.31584  0.49511  1.0000
  N   N13       1.0  0.36635  0.34279  0.15872  1.0000
  H   H144      1.0  0.33027  0.26966  0.40808  1.0000
  S   S54       1.0  0.46004  0.44938  0.27087  1.0000
  C   C137      1.0  0.37767  0.32892  0.16657  1.0000
  H   H145      1.0  0.32864  0.26368  0.15251  1.0000
  H   H146      1.0  0.03820  0.36111  0.53125  1.0000
  H   H147      1.0  0.31081  0.27262  0.07638  1.0000
  H   H148      1.0  0.30084  0.28434  0.14016  1.0000
  C   C138      1.0  0.33198  0.28562  0.40228  1.0000
  C   C139      1.0  0.37372  0.29389  0.40326  1.0000
  C   C140      1.0  0.04080  0.30743  0.47024  1.0000
  H   H149      1.0  0.37156  0.27129  0.19698  1.0000
  H   H150      1.0  0.44071  0.47009  0.33000  1.0000
  C   C141      1.0  0.26613  0.27095  0.16636  1.0000
  C   C142      1.0  0.31273  0.42723  0.12762  1.0000
  H   H151      1.0  0.36992  0.27950  0.42450  1.0000
  H   H152      1.0  0.05394  0.31839  0.44751  1.0000
  H   H153      1.0  0.98956  0.29523  0.52061  1.0000
  C   C143      1.0  0.46022  0.43488  0.46953  1.0000
  H   H154      1.0  0.97905  0.25390  0.11445  1.0000
  C   C144      1.0  0.25253  0.39668  0.10947  1.0000
  H   H155      1.0  0.28196  0.41189  0.16672  1.0000
  H   H156      1.0  0.10212  0.38354  0.17277  1.0000
  C   C145      1.0  0.35999  0.31070  0.10979  1.0000
  H   H157      1.0  0.33235  0.27781  0.19801  1.0000
  C   C146      1.0  0.31416  0.31161  0.38906  1.0000
  C   C147      1.0  0.00204  0.32553  0.40826  1.0000
  C   C148      1.0  0.00364  0.47089  0.31011  1.0000
  H   H158      1.0  0.99725  0.34580  0.49927  1.0000
  C   C149      1.0  0.33584  0.32626  0.38516  1.0000
  H   H159      1.0  0.34323  0.35214  0.12021  1.0000
  H   H160      1.0  0.43982  0.37353  0.48691  1.0000
  C   C150      1.0  0.30648  0.35241  0.50239  1.0000
  H   H161      1.0  0.28497  0.32090  0.50907  1.0000
  H   H162      1.0  0.38923  0.33038  0.19161  1.0000
  H   H163      1.0  0.35780  0.29831  0.09036  1.0000
  C   C151      1.0  0.08779  0.35727  0.21748  1.0000
  C   C152      1.0  0.43075  0.38939  0.53609  1.0000
  N   N14       1.0  0.32843  0.36562  0.49694  1.0000
  C   C153      1.0  0.37018  0.36014  0.18333  1.0000
  C   C154      1.0  0.34832  0.32478  0.10228  1.0000
  C   C155      1.0  0.06470  0.29588  0.51918  1.0000
  H   H164      1.0  0.29894  0.31602  0.38452  1.0000
  Fe  Fe28      1.0  0.05256  0.30727  0.06608  1.0000
  C   C156      1.0  0.04537  0.48720  0.41280  1.0000
  H   H165      1.0  0.03997  0.48446  0.44591  1.0000
  H   H166      1.0  0.32303  0.43193  0.15381  1.0000
  H   H167      1.0  0.31776  0.30775  0.50138  1.0000
  H   H168      1.0  0.17964  0.31522  0.08533  1.0000
  S   S55       1.0  0.37800  0.26454  0.11231  1.0000
  H   H169      1.0  0.44830  0.46890  0.41843  1.0000
  C   C157      1.0  0.10276  0.32954  0.20979  1.0000
  C   C158      1.0  0.30981  0.42462  0.05354  1.0000
  H   H170      1.0  0.07634  0.32879  0.25693  1.0000
  C   C159      1.0  0.32082  0.32400  0.49976  1.0000
  H   H171      1.0  0.26306  0.25446  0.48540  1.0000
  H   H172      1.0  0.34122  0.43944  0.08101  1.0000
  H   H173      1.0  0.25949  0.28040  0.14505  1.0000
  C   C160      1.0  0.18244  0.32989  0.06780  1.0000
  C   C161      1.0  0.16363  0.33656  0.05932  1.0000
  C   C162      1.0  0.34662  0.35847  0.49225  1.0000
  C   C163      1.0  0.30236  0.33142  0.50389  1.0000
  H   H174      1.0  0.07615  0.36375  0.23315  1.0000
  H   H175      1.0  0.06586  0.49709  0.29477  1.0000
  C   C164      1.0  0.34313  0.33756  0.49391  1.0000
  H   H176      1.0  0.01550  0.48480  0.29181  1.0000
  H   H177      1.0  0.24187  0.40195  0.08678  1.0000
  C   C165      1.0  0.28653  0.41352  0.06166  1.0000
  C   C166      1.0  0.30915  0.27571  0.04335  1.0000
  C   C167      1.0  0.98349  0.48278  0.43078  1.0000
  H   H178      1.0  0.35762  0.33194  0.49102  1.0000
  C   C168      1.0  0.02377  0.38532  0.52172  1.0000
  C   C169      1.0  0.99783  0.28694  0.19085  1.0000
  C   C170      1.0  0.98471  0.46357  0.42446  1.0000
  N   N15       1.0  0.99715  0.47510  0.35198  1.0000
  C   C171      1.0  0.37979  0.25012  0.15907  1.0000
  H   H179      1.0  0.98786  0.29362  0.11225  1.0000
  C   C172      1.0  0.99152  0.45996  0.38457  1.0000
  S   S56       1.0  0.35328  0.24885  0.35211  1.0000
  C   C173      1.0  0.98887  0.49804  0.39720  1.0000
  C   C174      1.0  0.47572  0.42396  0.47449  1.0000
  C   C175      1.0  0.28570  0.26780  0.53177  1.0000
  C   C176      1.0  0.98399  0.25463  0.08149  1.0000
  C   C177      1.0  0.47105  0.47306  0.29080  1.0000
  N   N16       1.0  0.97936  0.29453  0.17693  1.0000
  C   C178      1.0  0.46653  0.43756  0.39544  1.0000
  Fe  Fe29      1.0  0.42391  0.40603  0.70676  1.0000
  S   S57       1.0  0.41608  0.37611  0.68142  1.0000
  S   S58       1.0  0.39186  0.41288  0.72482  1.0000
  S   S59       1.0  0.44534  0.39862  0.75651  1.0000
  S   S60       1.0  0.45314  0.42152  0.65823  1.0000
  Fe  Fe30      1.0  0.41339  0.27345  0.96612  1.0000
  H   H180      1.0  0.30346  0.28641  0.92431  1.0000
  S   S61       1.0  0.44258  0.29977  0.93366  1.0000
  N   N17       1.0  0.45166  0.25486  0.89564  1.0000
  Fe  Fe31      1.0  0.31506  0.37300  0.03611  1.0000
  S   S62       1.0  0.03995  0.42084  0.69823  1.0000
  H   H181      1.0  0.12596  0.27198  0.73257  1.0000
  C   C179      1.0  0.20860  0.36116  0.03148  1.0000
  H   H182      1.0  0.07073  0.42257  0.76812  1.0000
  C   C180      1.0  0.40179  0.33177  0.63316  1.0000
  C   C181      1.0  0.04889  0.38039  0.86045  1.0000
  S   S63       1.0  0.29857  0.38438  0.98272  1.0000
  H   H183      1.0  0.40888  0.36268  0.86586  1.0000
  S   S64       1.0  0.41610  0.25063  0.01841  1.0000
  Fe  Fe32      1.0  0.07454  0.33599  0.98957  1.0000
  S   S65       1.0  0.07419  0.34500  0.92026  1.0000
  S   S66       1.0  0.07986  0.30720  0.01762  1.0000
  S   S67       1.0  0.08033  0.31634  0.62122  1.0000
  Fe  Fe33      1.0  0.05067  0.29171  0.73032  1.0000
  S   S68       1.0  0.08857  0.30709  0.72052  1.0000
  S   S69       1.0  0.03613  0.27870  0.79606  1.0000
  Fe  Fe34      1.0  0.07948  0.33085  0.68047  1.0000
  S   S70       1.0  0.10023  0.36343  0.68232  1.0000
  Fe  Fe35      1.0  0.08632  0.29119  0.66268  1.0000
  S   S71       1.0  0.11265  0.27645  0.64504  1.0000
  S   S72       1.0  0.04152  0.31688  0.69461  1.0000
  Fe  Fe36      1.0  0.29566  0.34053  0.62549  1.0000
  S   S73       1.0  0.30428  0.31159  0.63520  1.0000
  S   S74       1.0  0.32361  0.36837  0.59682  1.0000
  Fe  Fe37      1.0  0.24519  0.32024  0.65682  1.0000
  S   S75       1.0  0.21410  0.32891  0.67642  1.0000
  Fe  Fe38      1.0  0.28269  0.30654  0.69596  1.0000
  S   S76       1.0  0.29308  0.29642  0.75868  1.0000
  Fe  Fe39      1.0  0.44715  0.39041  0.63761  1.0000
  S   S77       1.0  0.27661  0.33657  0.68793  1.0000
  S   S78       1.0  0.26380  0.32731  0.59293  1.0000
  H   H184      1.0  0.07476  0.26932  0.82844  1.0000
  Fe  Fe40      1.0  0.30057  0.35735  0.95176  1.0000
  C   C182      1.0  0.01253  0.26701  0.02270  1.0000
  S   S79       1.0  0.31265  0.36428  0.88316  1.0000
  C   C183      1.0  0.01591  0.39970  0.58394  1.0000
  Fe  Fe41      1.0  0.36168  0.25522  0.96713  1.0000
  Fe  Fe42      1.0  0.27099  0.29776  0.60703  1.0000
  S   S80       1.0  0.23658  0.37728  0.01545  1.0000
  C   C184      1.0  0.39347  0.34962  0.86805  1.0000
  C   C185      1.0  0.29929  0.31516  0.79363  1.0000
  C   C186      1.0  0.29669  0.30950  0.83709  1.0000
  C   C187      1.0  0.30079  0.32442  0.86520  1.0000
  C   C188      1.0  0.30790  0.34501  0.84976  1.0000
  C   C189      1.0  0.31124  0.35060  0.80642  1.0000
  C   C190      1.0  0.30694  0.33575  0.77846  1.0000
  H   H185      1.0  0.29119  0.29356  0.84900  1.0000
  H   H186      1.0  0.29847  0.32006  0.89870  1.0000
  H   H187      1.0  0.31693  0.36653  0.79440  1.0000
  H   H188      1.0  0.30999  0.34033  0.74519  1.0000
  C   C191      1.0  0.08371  0.37932  0.68942  1.0000
  C   C192      1.0  0.06195  0.37183  0.71073  1.0000
  C   C193      1.0  0.04844  0.38459  0.71400  1.0000
  H   H189      1.0  0.05563  0.35631  0.72508  1.0000
  H   H190      1.0  0.03186  0.37889  0.73123  1.0000
  C   C194      1.0  0.14112  0.29146  0.65099  1.0000
  C   C195      1.0  0.14571  0.31085  0.66407  1.0000
  C   C196      1.0  0.16820  0.32219  0.67133  1.0000
  C   C197      1.0  0.18636  0.31439  0.66504  1.0000
  C   C198      1.0  0.18190  0.29510  0.65135  1.0000
  C   C199      1.0  0.15928  0.28363  0.64452  1.0000
  H   H191      1.0  0.13196  0.31720  0.66858  1.0000
  C   C200      1.0  0.09234  0.39972  0.67292  1.0000
  H   H192      1.0  0.19581  0.28895  0.64642  1.0000
  H   H193      1.0  0.15587  0.26863  0.63440  1.0000
  C   C201      1.0  0.39036  0.33388  0.90034  1.0000
  H   H194      1.0  0.36427  0.36704  0.79750  1.0000
  H   H195      1.0  0.36826  0.30431  0.92724  1.0000
  H   H196      1.0  0.31778  0.42732  0.02182  1.0000
  C   C202      1.0  0.99470  0.30394  0.94998  1.0000
  C   C203      1.0  0.12033  0.27804  0.75952  1.0000
  C   C204      1.0  0.06475  0.32581  0.88687  1.0000
  C   C205      1.0  0.05339  0.30554  0.90251  1.0000
  C   C206      1.0  0.04435  0.29102  0.87467  1.0000
  C   C207      1.0  0.04700  0.29672  0.83124  1.0000
  C   C208      1.0  0.05879  0.31685  0.81579  1.0000
  C   C209      1.0  0.06759  0.33131  0.84345  1.0000
  H   H197      1.0  0.05104  0.30115  0.93601  1.0000
  H   H198      1.0  0.03526  0.27542  0.88682  1.0000
  H   H199      1.0  0.06095  0.32141  0.78241  1.0000
  H   H200      1.0  0.07663  0.34680  0.83087  1.0000
  H   H201      1.0  0.41854  0.40660  0.57845  1.0000
  C   C210      1.0  0.30513  0.28351  0.95746  1.0000
  S   S81       1.0  0.33319  0.26204  0.93471  1.0000
  H   H202      1.0  0.46709  0.33675  0.88098  1.0000
  H   H203      1.0  0.24592  0.29085  0.79545  1.0000
  H   H204      1.0  0.36749  0.35690  0.59027  1.0000
  H   H205      1.0  0.03800  0.34373  0.60025  1.0000
  Fe  Fe43      1.0  0.28550  0.32994  0.03299  1.0000
  C   C211      1.0  0.45018  0.26861  0.86356  1.0000
  C   C212      1.0  0.37195  0.40202  0.68929  1.0000
  C   C213      1.0  0.34945  0.39036  0.70348  1.0000
  C   C214      1.0  0.33424  0.38018  0.67521  1.0000
  C   C215      1.0  0.34140  0.38210  0.63262  1.0000
  C   C216      1.0  0.36366  0.39427  0.61839  1.0000
  C   C217      1.0  0.37902  0.40394  0.64675  1.0000
  H   H206      1.0  0.34397  0.38889  0.73640  1.0000
  H   H207      1.0  0.31701  0.37105  0.68637  1.0000
  H   H208      1.0  0.36922  0.39578  0.58557  1.0000
  H   H209      1.0  0.39637  0.41301  0.63581  1.0000
  C   C218      1.0  0.43609  0.31109  0.88644  1.0000
  C   C219      1.0  0.41605  0.30161  0.86755  1.0000
  H   H210      1.0  0.40386  0.28778  0.88266  1.0000
  H   H211      1.0  0.39621  0.30232  0.81417  1.0000
  C   C220      1.0  0.38940  0.32478  0.67211  1.0000
  C   C221      1.0  0.06479  0.41073  0.79419  1.0000
  S   S82       1.0  0.04496  0.33437  0.03497  1.0000
  H   H212      1.0  0.13927  0.31716  0.81900  1.0000
  S   S83       1.0  0.32017  0.34786  0.00234  1.0000
  H   H213      1.0  0.02967  0.27595  0.01017  1.0000
  S   S84       1.0  0.47013  0.38126  0.68221  1.0000
  S   S85       1.0  0.44844  0.38198  0.57129  1.0000
  N   N18       1.0  0.07905  0.40067  0.80977  1.0000
  C   C222      1.0  0.07153  0.38600  0.84307  1.0000
  H   H214      1.0  0.21970  0.28852  0.82636  1.0000
  S   S86       1.0  0.10117  0.35647  0.02589  1.0000
  H   H215      1.0  0.08304  0.37843  0.85621  1.0000
  H   H216      1.0  0.15297  0.36076  0.02969  1.0000
  H   H217      1.0  0.40320  0.33473  0.92286  1.0000
  H   H218      1.0  0.03076  0.41322  0.79731  1.0000
  H   H219      1.0  0.11497  0.40647  0.81327  1.0000
  S   S87       1.0  0.38447  0.28020  0.99902  1.0000
  C   C223      1.0  0.04205  0.40549  0.81070  1.0000
  N   N19       1.0  0.03165  0.37212  0.58899  1.0000
  C   C224      1.0  0.35719  0.32235  0.72252  1.0000
  H   H220      1.0  0.34987  0.33390  0.73338  1.0000
  C   C225      1.0  0.01105  0.26099  0.57121  1.0000
  C   C226      1.0  0.44690  0.33797  0.82792  1.0000
  C   C227      1.0  0.00672  0.31989  0.87933  1.0000
  H   H221      1.0  0.19264  0.38265  0.00599  1.0000
  H   H222      1.0  0.01765  0.33227  0.85752  1.0000
  H   H223      1.0  0.10733  0.41879  0.76717  1.0000
  H   H224      1.0  0.99637  0.30373  0.98352  1.0000
  C   C228      1.0  0.46751  0.26142  0.92825  1.0000
  H   H225      1.0  0.41775  0.32870  0.62645  1.0000
  H   H226      1.0  0.00972  0.41051  0.59908  1.0000
  H   H227      1.0  0.34287  0.30809  0.72034  1.0000
  S   S88       1.0  0.26594  0.33707  0.97915  1.0000
  C   C229      1.0  0.39389  0.34337  0.60349  1.0000
  H   H228      1.0  0.15219  0.30268  0.75790  1.0000
  C   C230      1.0  0.13529  0.29538  0.77385  1.0000
  Fe  Fe44      1.0  0.47433  0.41167  0.70603  1.0000
  H   H229      1.0  0.00184  0.25604  0.96364  1.0000
  H   H230      1.0  0.04305  0.36856  0.88659  1.0000
  H   H231      1.0  0.39580  0.31595  0.69517  1.0000
  H   H232      1.0  0.34635  0.34430  0.65958  1.0000
  C   C231      1.0  0.31835  0.27147  0.97120  1.0000
  H   H233      1.0  0.98903  0.30347  0.83083  1.0000
  H   H234      1.0  0.02136  0.25939  0.59693  1.0000
  H   H235      1.0  0.10237  0.39186  0.77143  1.0000
  C   C232      1.0  0.43422  0.26276  0.83358  1.0000
  H   H236      1.0  0.33061  0.25830  0.02489  1.0000
  N   N20       1.0  0.36996  0.32961  0.68151  1.0000
  C   C233      1.0  0.37372  0.34775  0.61292  1.0000
  C   C234      1.0  0.00662  0.27933  0.56151  1.0000
  Fe  Fe45      1.0  0.00241  0.40439  0.71210  1.0000
  H   H237      1.0  0.43271  0.27391  0.80895  1.0000
  C   C235      1.0  0.00891  0.32001  0.92242  1.0000
  H   H238      1.0  0.10029  0.30014  0.85457  1.0000
  C   C236      1.0  0.37089  0.31674  0.90265  1.0000
  C   C237      1.0  0.10619  0.29396  0.82800  1.0000
  C   C238      1.0  0.99056  0.30347  0.86436  1.0000
  H   H239      1.0  0.08537  0.42812  0.66243  1.0000
  C   C239      1.0  0.18981  0.36789  0.02318  1.0000
  H   H240      1.0  0.40363  0.34925  0.57357  1.0000
  C   C240      1.0  0.29446  0.29216  0.98660  1.0000
  C   C241      1.0  0.03394  0.39000  0.84363  1.0000
  C   C242      1.0  0.12804  0.30349  0.80806  1.0000
  C   C243      1.0  0.04074  0.35823  0.61432  1.0000
  N   N21       1.0  0.09864  0.26926  0.77829  1.0000
  C   C244      1.0  0.09175  0.27660  0.81291  1.0000
  C   C245      1.0  0.32042  0.26761  0.01413  1.0000
  S   S89       1.0  0.01759  0.30044  0.58980  1.0000
  C   C246      1.0  0.99684  0.25570  0.99650  1.0000
  H   H241      1.0  0.45888  0.35198  0.81263  1.0000
  H   H242      1.0  0.02181  0.33237  0.93442  1.0000
  H   H243      1.0  0.28458  0.30175  0.97584  1.0000
  H   H244      1.0  0.36852  0.31943  0.74671  1.0000
  C   C247      1.0  0.35859  0.33146  0.84083  1.0000
  H   H245      1.0  0.34621  0.33027  0.81752  1.0000
  H   H246      1.0  0.33995  0.30199  0.87388  1.0000
  H   H247      1.0  0.39166  0.37979  0.81473  1.0000
  H   H248      1.0  0.38947  0.36169  0.77711  1.0000
  N   N22       1.0  0.24329  0.31839  0.81530  1.0000
  C   C248      1.0  0.25097  0.33039  0.84659  1.0000
  C   C249      1.0  0.23942  0.32678  0.77733  1.0000
  C   C250      1.0  0.25602  0.35148  0.83955  1.0000
  C   C251      1.0  0.24406  0.34780  0.76934  1.0000
  C   C252      1.0  0.25268  0.36022  0.80054  1.0000
  C   C253      1.0  0.23850  0.29633  0.82246  1.0000
  H   H249      1.0  0.25388  0.32380  0.87692  1.0000
  H   H250      1.0  0.23299  0.31725  0.75270  1.0000
  H   H251      1.0  0.26302  0.36101  0.86394  1.0000
  H   H252      1.0  0.24123  0.35435  0.73885  1.0000
  H   H253      1.0  0.25686  0.37659  0.79446  1.0000
  H   H254      1.0  0.24642  0.29193  0.85072  1.0000
  Fe  Fe46      1.0  0.43920  0.36924  0.72825  1.0000
  C   C254      1.0  0.41170  0.30994  0.82866  1.0000
  C   C255      1.0  0.35497  0.31542  0.87257  1.0000
  C   C256      1.0  0.38088  0.36497  0.80550  1.0000
  S   S90       1.0  0.04885  0.27335  0.67558  1.0000
  S   S91       1.0  0.24978  0.28961  0.66912  1.0000
  S   S92       1.0  0.42077  0.33751  0.75960  1.0000
  H   H255      1.0  0.10929  0.40556  0.65676  1.0000
  C   C257      1.0  0.42706  0.32811  0.80873  1.0000
  Fe  Fe47      1.0  0.04294  0.29999  0.63856  1.0000
  H   H256      1.0  0.17155  0.33716  0.68160  1.0000
  C   C258      1.0  0.10208  0.40471  0.78949  1.0000
  C   C259      1.0  0.05671  0.40477  0.69580  1.0000
  Fe  Fe48      1.0  0.26522  0.36349  0.01400  1.0000
  C   C260      1.0  0.45152  0.32932  0.86656  1.0000
  N   N23       1.0  0.37740  0.34845  0.83936  1.0000
  S   S93       1.0  0.26594  0.27884  0.55241  1.0000
  C   C261      1.0  0.36189  0.34067  0.65230  1.0000
  C   C262      1.0  0.07883  0.41244  0.67604  1.0000
  S   S94       1.0  0.98412  0.40507  0.77303  1.0000
  H   H257      1.0  0.45792  0.26373  0.95647  1.0000
  H   H258      1.0  0.05945  0.36545  0.61675  1.0000
  H   H259      1.0  0.46093  0.28437  0.86162  1.0000
  H   H260      1.0  0.27645  0.40808  0.03568  1.0000
  H   H261      1.0  0.01612  0.38546  0.85598  1.0000
  H   H262      1.0  0.31185  0.27869  0.57429  1.0000
  H   H263      1.0  0.02410  0.38640  0.64135  1.0000
  C   C263      1.0  0.02402  0.38594  0.60777  1.0000
  H   H264      1.0  0.03203  0.35431  0.64642  1.0000
  H   H265      1.0  0.33917  0.26368  0.54074  1.0000
  C   C264      1.0  0.30717  0.27027  0.54754  1.0000
  C   C265      1.0  0.29639  0.28818  0.02955  1.0000
  C   C266      1.0  0.01577  0.39934  0.54060  1.0000
  C   C267      1.0  0.41793  0.40174  0.54734  1.0000
  S   S95       1.0  0.39049  0.25011  0.93048  1.0000
  S   S96       1.0  0.98617  0.37101  0.71105  1.0000
  H   H266      1.0  0.08517  0.28437  0.56192  1.0000
  C   C268      1.0  0.08283  0.25163  0.76177  1.0000
  H   H267      1.0  0.08653  0.25205  0.72736  1.0000
  H   H268      1.0  0.06477  0.25158  0.76648  1.0000
  C   C269      1.0  0.03187  0.37185  0.54643  1.0000
  C   C270      1.0  0.97843  0.28796  0.93394  1.0000
  H   H269      1.0  0.97974  0.31122  0.64537  1.0000
  H   H270      1.0  0.47604  0.24991  0.93702  1.0000
  C   C271      1.0  0.07340  0.28102  0.53724  1.0000
  H   H271      1.0  0.07297  0.24996  0.53789  1.0000
  H   H272      1.0  0.03263  0.70411  0.21145  1.0000
  H   H273      1.0  0.99185  0.73760  0.12397  1.0000
  C   C272      1.0  0.01441  0.69106  0.48735  1.0000
  S   S97       1.0  0.09700  0.68627  0.16876  1.0000
  H   H274      1.0  0.13076  0.72409  0.19132  1.0000
  Fe  Fe49      1.0  0.04191  0.58365  0.30619  1.0000
  S   S98       1.0  0.01973  0.55123  0.32491  1.0000
  S   S99       1.0  0.05104  0.59312  0.23662  1.0000
  Fe  Fe50      1.0  0.03825  0.59514  0.39450  1.0000
  S   S100      1.0  0.01567  0.56422  0.42013  1.0000
  S   S101      1.0  0.04932  0.62043  0.43565  1.0000
  Fe  Fe51      1.0  0.03952  0.55286  0.38209  1.0000
  S   S102      1.0  0.04521  0.52602  0.41904  1.0000
  Fe  Fe52      1.0  0.99775  0.56486  0.36151  1.0000
  S   S103      1.0  0.10149  0.73430  0.10348  1.0000
  S   S104      1.0  0.06406  0.58408  0.36063  1.0000
  S   S105      1.0  0.01808  0.59713  0.33842  1.0000
  C   C273      1.0  0.04701  0.61371  0.49016  1.0000
  C   C274      1.0  0.02717  0.59954  0.51085  1.0000
  H   H275      1.0  0.01315  0.59182  0.49297  1.0000
  H   H276      1.0  0.46770  0.55642  0.32996  1.0000
  C   C275      1.0  0.06209  0.56442  0.49984  1.0000
  C   C276      1.0  0.97946  0.67415  0.18769  1.0000
  C   C277      1.0  0.15248  0.72159  0.13887  1.0000
  H   H277      1.0  0.05985  0.52502  0.33207  1.0000
  C   C278      1.0  0.08364  0.66036  0.18680  1.0000
  C   C279      1.0  0.07491  0.64583  0.15926  1.0000
  C   C280      1.0  0.06516  0.62520  0.17488  1.0000
  C   C281      1.0  0.06370  0.61906  0.21809  1.0000
  C   C282      1.0  0.07207  0.63365  0.24564  1.0000
  C   C283      1.0  0.08218  0.65420  0.22997  1.0000
  H   H278      1.0  0.07609  0.65041  0.12592  1.0000
  H   H279      1.0  0.05879  0.61397  0.15339  1.0000
  H   H280      1.0  0.07108  0.62907  0.27896  1.0000
  H   H281      1.0  0.08897  0.66535  0.25144  1.0000
  H   H282      1.0  0.02227  0.53609  0.49307  1.0000
  Fe  Fe53      1.0  0.09382  0.70052  0.10402  1.0000
  H   H283      1.0  0.00867  0.57785  0.15764  1.0000
  H   H284      1.0  0.01297  0.62887  0.16295  1.0000
  C   C284      1.0  0.47264  0.57017  0.30670  1.0000
  H   H285      1.0  0.01377  0.68883  0.45444  1.0000
  H   H286      1.0  0.05911  0.70162  0.18933  1.0000
  S   S106      1.0  0.04149  0.74225  0.08275  1.0000
  C   C285      1.0  0.99506  0.69249  0.50979  1.0000
  H   H287      1.0  0.00744  0.63241  0.46449  1.0000
  N   N24       1.0  0.04426  0.55452  0.53370  1.0000
  H   H288      1.0  0.01071  0.61633  0.23860  1.0000
  C   C286      1.0  0.06490  0.62384  0.51358  1.0000
  S   S107      1.0  0.06083  0.69579  0.07356  1.0000
  C   C287      1.0  0.02588  0.66043  0.17373  1.0000
  H   H289      1.0  0.06589  0.55287  0.48151  1.0000
  H   H290      1.0  0.45698  0.57383  0.29824  1.0000
  C   C288      1.0  0.17687  0.72057  0.07709  1.0000
  C   C289      1.0  0.03244  0.74546  0.52266  1.0000
  C   C290      1.0  0.99483  0.56886  0.22170  1.0000
  C   C291      1.0  0.99822  0.63515  0.49178  1.0000
  C   C292      1.0  0.00811  0.70845  0.06290  1.0000
  C   C293      1.0  0.03059  0.66723  0.24452  1.0000
  C   C294      1.0  0.03489  0.69321  0.50735  1.0000
  C   C295      1.0  0.99457  0.57669  0.18029  1.0000
  S   S108      1.0  0.98565  0.68456  0.26786  1.0000
  H   H291      1.0  0.99193  0.73785  0.20139  1.0000
  C   C296      1.0  0.02277  0.64642  0.25804  1.0000
  H   H292      1.0  0.04998  0.69259  0.48964  1.0000
  C   C297      1.0  0.00979  0.64133  0.52712  1.0000
  C   C298      1.0  0.01634  0.63250  0.22860  1.0000
  C   C299      1.0  0.14481  0.73216  0.16824  1.0000
  C   C300      1.0  0.05650  0.51006  0.34869  1.0000
  Fe  Fe54      1.0  0.06985  0.72952  0.06859  1.0000
  H   H293      1.0  0.03535  0.67797  0.26760  1.0000
  H   H294      1.0  0.02189  0.64116  0.29108  1.0000
  H   H295      1.0  0.98886  0.68989  0.17752  1.0000
  H   H296      1.0  0.02713  0.66573  0.14067  1.0000
  H   H297      1.0  0.98182  0.68211  0.04643  1.0000
  S   S109      1.0  0.11450  0.70296  0.04299  1.0000
  H   H298      1.0  0.08023  0.63484  0.49775  1.0000
  C   C301      1.0  0.04010  0.69590  0.18966  1.0000
  N   N25       1.0  0.03180  0.67399  0.20288  1.0000
  C   C302      1.0  0.98928  0.69846  0.04108  1.0000
  C   C303      1.0  0.04940  0.50658  0.39143  1.0000
  H   H299      1.0  0.00893  0.56366  0.23121  1.0000
  H   H300      1.0  0.14415  0.70533  0.13965  1.0000
  C   C304      1.0  0.01780  0.63952  0.18617  1.0000
  C   C305      1.0  0.01790  0.72962  0.05591  1.0000
  H   H301      1.0  0.16786  0.72212  0.04829  1.0000
  H   H302      1.0  0.03507  0.69955  0.15782  1.0000
  H   H303      1.0  0.45733  0.50315  0.35850  1.0000
  H   H304      1.0  0.01484  0.69978  0.08551  1.0000
  H   H305      1.0  0.46704  0.53502  0.27467  1.0000
  H   H306      1.0  0.07839  0.57343  0.51194  1.0000
  H   H307      1.0  0.02805  0.64360  0.52728  1.0000
  H   H308      1.0  0.02386  0.73441  0.50200  1.0000
  C   C306      1.0  0.02443  0.54038  0.52469  1.0000
  H   H309      1.0  0.00003  0.50586  0.33194  1.0000
  H   H310      1.0  0.17263  0.70414  0.08802  1.0000
  N   N26       1.0  0.16989  0.73164  0.10916  1.0000
  H   H311      1.0  0.98816  0.51310  0.40177  1.0000
  C   C307      1.0  0.46751  0.49824  0.33598  1.0000
  H   H312      1.0  0.19565  0.72674  0.06886  1.0000
  H   H313      1.0  0.05620  0.57488  0.47833  1.0000
  Fe  Fe55      1.0  0.11989  0.73665  0.04055  1.0000
  H   H314      1.0  0.06425  0.73899  0.51641  1.0000
  C   C308      1.0  0.05530  0.74817  0.53087  1.0000
  C   C309      1.0  0.04315  0.60616  0.57832  1.0000
  H   H315      1.0  0.00972  0.58521  0.57070  1.0000
  H   H316      1.0  0.99561  0.53009  0.62112  1.0000
  Fe  Fe56      1.0  0.08087  0.71398  0.72537  1.0000
  N   N27       1.0  0.02922  0.71811  0.90595  1.0000
  H   H317      1.0  0.04343  0.71655  0.96537  1.0000
  C   C310      1.0  0.97978  0.67585  0.71796  1.0000
  S   S110      1.0  0.06343  0.68377  0.96085  1.0000
  C   C311      1.0  0.99104  0.64453  0.88328  1.0000
  H   H318      1.0  0.03181  0.55582  0.63695  1.0000
  S   S111      1.0  0.10356  0.70495  0.77108  1.0000
  Fe  Fe57      1.0  0.03188  0.71183  0.71320  1.0000
  S   S112      1.0  0.99518  0.69802  0.73981  1.0000
  S   S113      1.0  0.05232  0.69155  0.69759  1.0000
  Fe  Fe58      1.0  0.00722  0.58775  0.66865  1.0000
  S   S114      1.0  0.04190  0.60185  0.63351  1.0000
  H   H319      1.0  0.06387  0.72829  0.92201  1.0000
  H   H320      1.0  0.01918  0.72473  0.80361  1.0000
  S   S115      1.0  0.99861  0.55941  0.71375  1.0000
  S   S116      1.0  0.99437  0.60508  0.71415  1.0000
  H   H321      1.0  0.04542  0.74165  0.94270  1.0000
  H   H322      1.0  0.98116  0.69632  0.57013  1.0000
  H   H323      1.0  0.00682  0.65010  0.58922  1.0000
  C   C312      1.0  0.01639  0.69724  0.57247  1.0000
  H   H324      1.0  0.01680  0.69937  0.60537  1.0000
  C   C313      1.0  0.00666  0.53137  0.55596  1.0000
  S   S117      1.0  0.06239  0.70142  0.57338  1.0000
  C   C314      1.0  0.02967  0.55115  0.60561  1.0000
  C   C315      1.0  0.99102  0.66582  0.69309  1.0000
  C   C316      1.0  0.01631  0.71866  0.83640  1.0000
  H   H325      1.0  0.07111  0.66138  0.76640  1.0000
  C   C317      1.0  0.99178  0.69642  0.89322  1.0000
  C   C318      1.0  0.99552  0.70401  0.85094  1.0000
  H   H326      1.0  0.00902  0.67227  0.68445  1.0000
  S   S118      1.0  0.09428  0.73271  0.66338  1.0000
  H   H327      1.0  0.08917  0.67462  0.58686  1.0000
  C   C319      1.0  0.07479  0.69101  0.90837  1.0000
  C   C320      1.0  0.05988  0.68734  0.87596  1.0000
  C   C321      1.0  0.06851  0.69239  0.83376  1.0000
  C   C322      1.0  0.09222  0.70043  0.82376  1.0000
  C   C323      1.0  0.10710  0.70408  0.85615  1.0000
  C   C324      1.0  0.09839  0.69976  0.89838  1.0000
  H   H328      1.0  0.04162  0.68062  0.88356  1.0000
  H   H329      1.0  0.12543  0.71030  0.84859  1.0000
  H   H330      1.0  0.11000  0.70258  0.92317  1.0000
  H   H331      1.0  0.07740  0.62738  0.57488  1.0000
  H   H332      1.0  0.00986  0.63356  0.79002  1.0000
  H   H333      1.0  0.05690  0.68954  0.80899  1.0000
  C   C325      1.0  0.99852  0.63654  0.81360  1.0000
  C   C326      1.0  0.04632  0.72662  0.93537  1.0000
  H   H334      1.0  0.99082  0.52033  0.54874  1.0000
  S   S119      1.0  0.08880  0.73523  0.00520  1.0000
  C   C327      1.0  0.03603  0.69666  0.54981  1.0000
  C   C328      1.0  0.98045  0.70964  0.01191  1.0000
  H   H335      1.0  0.06248  0.57151  0.58071  1.0000
  H   H336      1.0  0.00594  0.69758  0.95320  1.0000
  Fe  Fe59      1.0  0.06275  0.71244  0.63771  1.0000
  C   C329      1.0  0.00873  0.74078  0.02739  1.0000
  S   S120      1.0  0.05980  0.73289  0.74584  1.0000
  C   C330      1.0  0.00601  0.64113  0.85304  1.0000
  C   C331      1.0  0.03309  0.72563  0.86450  1.0000
  H   H337      1.0  0.11894  0.69382  0.63108  1.0000
  S   S121      1.0  0.04101  0.73175  0.65215  1.0000
  C   C332      1.0  0.04705  0.55993  0.57358  1.0000
  N   N28       1.0  0.08485  0.65894  0.70629  1.0000
  C   C333      1.0  0.06821  0.64851  0.68224  1.0000
  C   C334      1.0  0.10287  0.67508  0.68835  1.0000
  C   C335      1.0  0.06949  0.65408  0.63904  1.0000
  C   C336      1.0  0.10479  0.68089  0.64515  1.0000
  C   C337      1.0  0.08805  0.67019  0.62039  1.0000
  C   C338      1.0  0.08241  0.65371  0.75189  1.0000
  H   H338      1.0  0.05370  0.63589  0.69632  1.0000
  H   H339      1.0  0.11576  0.68372  0.70748  1.0000
  H   H340      1.0  0.05608  0.64605  0.62018  1.0000
  C   C339      1.0  0.00898  0.70356  0.92038  1.0000
  C   C340      1.0  0.99785  0.64490  0.56195  1.0000
  H   H341      1.0  0.07509  0.63701  0.76021  1.0000
  H   H342      1.0  0.09927  0.65890  0.76578  1.0000
  H   H343      1.0  0.98788  0.63936  0.66088  1.0000
  C   C341      1.0  0.00934  0.53683  0.59665  1.0000
  Fe  Fe60      1.0  0.08183  0.70151  0.01194  1.0000
  C   C342      1.0  0.06319  0.61975  0.55731  1.0000
  C   C343      1.0  0.02510  0.59603  0.55498  1.0000
  H   H344      1.0  0.02328  0.64181  0.86037  1.0000
  C   C344      1.0  0.99610  0.69534  0.55246  1.0000
  S   S122      1.0  0.98661  0.57701  0.82531  1.0000
  H   H345      1.0  0.99660  0.64780  0.91426  1.0000
  C   C345      1.0  0.97893  0.64717  0.67934  1.0000
  H   H346      1.0  0.98804  0.59081  0.90748  1.0000
  H   H347      1.0  0.04918  0.73713  0.85301  1.0000
  H   H348      1.0  0.98230  0.69878  0.82943  1.0000
  C   C346      1.0  0.99021  0.73078  0.00501  1.0000
  Fe  Fe61      1.0  0.98191  0.57580  0.75601  1.0000
  H   H349      1.0  0.98341  0.73943  0.98241  1.0000
  H   H350      1.0  0.14858  0.76166  0.18842  1.0000
  C   C347      1.0  0.27422  0.94916  0.22856  1.0000
  H   H351      1.0  0.40000  0.93811  0.39441  1.0000
  H   H352      1.0  0.43394  0.99295  0.46998  1.0000
  C   C348      1.0  0.17989  0.75224  0.10754  1.0000
  H   H353      1.0  0.19307  0.76031  0.08297  1.0000
  S   S123      1.0  0.30805  0.88385  0.11532  1.0000
  S   S124      1.0  0.25005  0.89107  0.09778  1.0000
  Fe  Fe62      1.0  0.36199  0.96714  0.26307  1.0000
  C   C349      1.0  0.28405  0.96468  0.05902  1.0000
  S   S125      1.0  0.33368  0.96031  0.21866  1.0000
  Fe  Fe63      1.0  0.37516  0.96893  0.35341  1.0000
  H   H354      1.0  0.26843  0.98667  0.07726  1.0000
  S   S126      1.0  0.36355  0.95834  0.42145  1.0000
  H   H355      1.0  0.17995  0.77977  0.13364  1.0000
  H   H356      1.0  0.24888  0.92696  0.14665  1.0000
  Fe  Fe64      1.0  0.40901  0.96569  0.28560  1.0000
  S   S127      1.0  0.43626  0.95140  0.27165  1.0000
  C   C350      1.0  0.30486  0.96086  0.05215  1.0000
  S   S128      1.0  0.37317  0.94596  0.30753  1.0000
  H   H357      1.0  0.28300  0.94612  0.25576  1.0000
  H   H358      1.0  0.41986  0.92546  0.41339  1.0000
  H   H359      1.0  0.29963  0.97750  0.45524  1.0000
  C   C351      1.0  0.25524  0.93845  0.16777  1.0000
  H   H360      1.0  0.37644  0.98183  0.08651  1.0000
  N   N29       1.0  0.26607  0.93450  0.20230  1.0000
  H   H361      1.0  0.13439  0.78201  0.06830  1.0000
  C   C352      1.0  0.37465  0.97652  0.45613  1.0000
  N   N30       1.0  0.43343  0.95760  0.40388  1.0000
  C   C353      1.0  0.46430  0.96745  0.27610  1.0000
  C   C354      1.0  0.28433  0.98335  0.07235  1.0000
  C   C355      1.0  0.37409  0.97026  0.49901  1.0000
  C   C356      1.0  0.43456  0.96951  0.16830  1.0000
  H   H362      1.0  0.25278  0.90479  0.23421  1.0000
  C   C357      1.0  0.26769  0.91409  0.21274  1.0000
  C   C358      1.0  0.18396  0.82244  0.06007  1.0000
  S   S129      1.0  0.41194  0.98691  0.33506  1.0000
  Fe  Fe65      1.0  0.28080  0.88452  0.07075  1.0000
  H   H363      1.0  0.24382  0.96050  0.13125  1.0000
  H   H364      1.0  0.15014  0.81679  0.08991  1.0000
  C   C359      1.0  0.45511  0.96583  0.38483  1.0000
  S   S130      1.0  0.39770  0.98501  0.23728  1.0000
  C   C360      1.0  0.41540  0.95206  0.17191  1.0000
  C   C361      1.0  0.31668  0.90565  0.14245  1.0000
  C   C362      1.0  0.33062  0.90626  0.17616  1.0000
  C   C363      1.0  0.33651  0.92318  0.19934  1.0000
  C   C364      1.0  0.32860  0.93960  0.18861  1.0000
  C   C365      1.0  0.31527  0.93923  0.15420  1.0000
  C   C366      1.0  0.30926  0.92231  0.13133  1.0000
  H   H365      1.0  0.33638  0.89340  0.18496  1.0000
  H   H366      1.0  0.34668  0.92328  0.22604  1.0000
  H   H367      1.0  0.30921  0.95195  0.14554  1.0000
  H   H368      1.0  0.29856  0.92203  0.10545  1.0000
  C   C367      1.0  0.27169  0.96839  0.22042  1.0000
  C   C368      1.0  0.32573  0.97558  0.05817  1.0000
  C   C369      1.0  0.46195  0.99434  0.42559  1.0000
  H   H369      1.0  0.29177  0.94419  0.51754  1.0000
  Fe  Fe66      1.0  0.22999  0.86914  0.05513  1.0000
  C   C370      1.0  0.25235  0.95748  0.15882  1.0000
  S   S131      1.0  0.19420  0.84740  0.07485  1.0000
  H   H370      1.0  0.36296  0.97686  0.13902  1.0000
  H   H371      1.0  0.21907  0.95800  0.48463  1.0000
  C   C371      1.0  0.19790  0.81433  0.03641  1.0000
  C   C372      1.0  0.26072  0.97256  0.18523  1.0000
  H   H372      1.0  0.31745  0.96129  0.45006  1.0000
  S   S132      1.0  0.25752  0.94660  0.05096  1.0000
  H   H373      1.0  0.28381  0.91484  0.22794  1.0000
  C   C373      1.0  0.41299  0.98774  0.12972  1.0000
  C   C374      1.0  0.23283  0.96478  0.50394  1.0000
  H   H374      1.0  0.45453  0.99433  0.28093  1.0000
  C   C375      1.0  0.41820  0.93835  0.39227  1.0000
  H   H375      1.0  0.36212  0.95615  0.10855  1.0000
  S   S133      1.0  0.36073  0.98850  0.31099  1.0000
  C   C376      1.0  0.25085  0.98225  0.48756  1.0000
  C   C377      1.0  0.26859  0.99107  0.51255  1.0000
  Fe  Fe67      1.0  0.25755  0.91481  0.04271  1.0000
  H   H376      1.0  0.25871  0.98744  0.17845  1.0000
  H   H377      1.0  0.26810  0.90627  0.18411  1.0000
  C   C378      1.0  0.17247  0.76334  0.13607  1.0000
  C   C379      1.0  0.16105  0.81064  0.07155  1.0000
  H   H378      1.0  0.27810  0.97998  0.24136  1.0000
  C   C380      1.0  0.37295  0.97134  0.11595  1.0000
  N   N31       1.0  0.39438  0.97049  0.13299  1.0000
  C   C381      1.0  0.38356  0.98448  0.52704  1.0000
  H   H379      1.0  0.25095  0.98891  0.45576  1.0000
  C   C382      1.0  0.42611  0.96685  0.43494  1.0000
  C   C383      1.0  0.46838  0.98789  0.28183  1.0000
  H   H380      1.0  0.40925  0.95990  0.45106  1.0000
  H   H381      1.0  0.42233  0.93620  0.35927  1.0000
  H   H382      1.0  0.46121  0.95816  0.36119  1.0000
  C   C384      1.0  0.39530  0.95283  0.15406  1.0000
  H   H383      1.0  0.38039  0.93928  0.15752  1.0000
  C   C385      1.0  0.15206  0.79096  0.05926  1.0000
  H   H384      1.0  0.34165  0.97266  0.05128  1.0000
  H   H385      1.0  0.41602  0.93818  0.18939  1.0000
  C   C386      1.0  0.46965  0.98438  0.39514  1.0000
  H   H386      1.0  0.45008  0.96918  0.18287  1.0000
  H   H387      1.0  0.36650  0.95436  0.51058  1.0000
  H   H388      1.0  0.18866  0.97355  0.51332  1.0000
  H   H389      1.0  0.30510  0.94675  0.04161  1.0000
  C   C387      1.0  0.32596  0.99420  0.07164  1.0000
  C   C388      1.0  0.44010  0.98546  0.44596  1.0000
  H   H390      1.0  0.32218  0.99714  0.24128  1.0000
  C   C389      1.0  0.31613  0.97520  0.46298  1.0000
  C   C390      1.0  0.15479  0.75320  0.16658  1.0000
  N   N32       1.0  0.31746  0.97334  0.50858  1.0000
  C   C391      1.0  0.43340  0.98750  0.14711  1.0000
  H   H391      1.0  0.33038  0.98821  0.44699  1.0000
  C   C392      1.0  0.30515  0.99786  0.07942  1.0000
  C   C393      1.0  0.38447  0.99707  0.44137  1.0000
  C   C394      1.0  0.30365  0.95622  0.53226  1.0000
  C   C395      1.0  0.33196  0.98874  0.52735  1.0000
  S   S134      1.0  0.08222  0.78495  0.67278  1.0000
  C   C396      1.0  0.11182  0.79903  0.66863  1.0000
  C   C397      1.0  0.11880  0.82039  0.66438  1.0000
  C   C398      1.0  0.12849  0.78926  0.66861  1.0000
  H   H392      1.0  0.10602  0.82809  0.66441  1.0000
  H   H393      1.0  0.12344  0.77289  0.67233  1.0000
  C   C399      1.0  0.14230  0.83187  0.66009  1.0000
  S   S135      1.0  0.15569  0.75810  0.02001  1.0000
  Fe  Fe68      1.0  0.38500  0.98848  0.69641  1.0000
  Fe  Fe69      1.0  0.43609  0.99728  0.67436  1.0000
  H   H394      1.0  0.28982  0.86299  0.67020  1.0000
  H   H395      1.0  0.22373  0.82130  0.76619  1.0000
  H   H396      1.0  0.19834  0.97619  0.56477  1.0000
  C   C400      1.0  0.27523  0.85390  0.69116  1.0000
  C   C401      1.0  0.26832  0.98232  0.55363  1.0000
  C   C402      1.0  0.15190  0.80069  0.66383  1.0000
  H   H397      1.0  0.14752  0.84830  0.65675  1.0000
  H   H398      1.0  0.25685  0.95810  0.84932  1.0000
  C   C403      1.0  0.23838  0.83048  0.74545  1.0000
  C   C404      1.0  0.27667  0.85441  0.73444  1.0000
  C   C405      1.0  0.02057  0.75673  0.54200  1.0000
  H   H399      1.0  0.17526  0.98546  0.55016  1.0000
  H   H400      1.0  0.25627  0.95849  0.92704  1.0000
  C   C406      1.0  0.33352  0.98689  0.57082  1.0000
  C   C407      1.0  0.23252  0.95604  0.54520  1.0000
  N   N33       1.0  0.18116  0.85962  0.94700  1.0000
  S   S136      1.0  0.18945  0.89423  0.66937  1.0000
  C   C408      1.0  0.18887  0.79472  0.02384  1.0000
  H   H401      1.0  0.22203  0.82115  0.68953  1.0000
  H   H402      1.0  0.28186  0.98922  0.57325  1.0000
  C   C409      1.0  0.24933  0.89687  0.80248  1.0000
  C   C410      1.0  0.22929  0.90858  0.85603  1.0000
  C   C411      1.0  0.31217  0.93951  0.71820  1.0000
  H   H403      1.0  0.29206  0.86403  0.74657  1.0000
  H   H404      1.0  0.29335  0.94049  0.59447  1.0000
  C   C412      1.0  0.17472  0.86482  0.90839  1.0000
  C   C413      1.0  0.23240  0.90530  0.81410  1.0000
  S   S137      1.0  0.27425  0.88485  0.91307  1.0000
  C   C414      1.0  0.20647  0.85720  0.87497  1.0000
  C   C415      1.0  0.29827  0.92422  0.69660  1.0000
  H   H405      1.0  0.21666  0.85676  0.84687  1.0000
  H   H406      1.0  0.31007  0.91598  0.84469  1.0000
  S   S138      1.0  0.22749  0.88850  0.60032  1.0000
  C   C416      1.0  0.34480  0.94226  0.67051  1.0000
  H   H407      1.0  0.15992  0.87001  0.90558  1.0000
  Fe  Fe70      1.0  0.26517  0.88642  0.98150  1.0000
  C   C417      1.0  0.30032  0.93967  0.91102  1.0000
  C   C418      1.0  0.03184  0.77099  0.56829  1.0000
  C   C419      1.0  0.33538  0.94871  0.70496  1.0000
  C   C420      1.0  0.25803  0.84271  0.76171  1.0000
  H   H408      1.0  0.30479  0.94453  0.74459  1.0000
  Fe  Fe71      1.0  0.07159  0.75059  0.68255  1.0000
  H   H409      1.0  0.18258  0.86837  0.84118  1.0000
  C   C421      1.0  0.23749  0.83047  0.70195  1.0000
  H   H410      1.0  0.20543  0.84976  0.98094  1.0000
  C   C422      1.0  0.30757  0.91803  0.66171  1.0000
  C   C423      1.0  0.05483  0.77356  0.57523  1.0000
  N   N34       1.0  0.06607  0.76184  0.55744  1.0000
  H   H411      1.0  0.33816  0.92207  0.62199  1.0000
  C   C424      1.0  0.26235  0.89093  0.83299  1.0000
  H   H412      1.0  0.06350  0.78477  0.59547  1.0000
  N   N35       1.0  0.30100  0.94011  0.86825  1.0000
  S   S139      1.0  0.20878  0.93524  0.56633  1.0000
  S   S140      1.0  0.35196  0.96847  0.73155  1.0000
  C   C425      1.0  0.15892  0.82201  0.65956  1.0000
  C   C426      1.0  0.21303  0.85213  0.91445  1.0000
  H   H413      1.0  0.25237  0.89484  0.77008  1.0000
  H   H414      1.0  0.16463  0.79295  0.66355  1.0000
  C   C427      1.0  0.28551  0.94649  0.84623  1.0000
  H   H415      1.0  0.25884  0.84317  0.79533  1.0000
  C   C428      1.0  0.25039  0.96486  0.56986  1.0000
  H   H416      1.0  0.28399  0.94635  0.96658  1.0000
  H   H417      1.0  0.21642  0.91533  0.86513  1.0000
  H   H418      1.0  0.28034  0.91729  0.70691  1.0000
  C   C429      1.0  0.31757  0.93261  0.84615  1.0000
  H   H419      1.0  0.36276  0.94908  0.66050  1.0000
  S   S141      1.0  0.18861  0.83548  0.65285  1.0000
  C   C430      1.0  0.09006  0.76447  0.56536  1.0000
  H   H420      1.0  0.00266  0.75436  0.53661  1.0000
  C   C431      1.0  0.25868  0.89360  0.87519  1.0000
  C   C432      1.0  0.16795  0.86067  0.98537  1.0000
  H   H421      1.0  0.25009  0.95863  0.60192  1.0000
  H   H422      1.0  0.23597  0.84063  0.62172  1.0000
  Fe  Fe72      1.0  0.21851  0.90326  0.71166  1.0000
  C   C433      1.0  0.18730  0.86372  0.87180  1.0000
  H   H423      1.0  0.28538  0.94602  0.81255  1.0000
  S   S142      1.0  0.40461  0.98199  0.64159  1.0000
  H   H424      1.0  0.19975  0.78859  0.00540  1.0000
  C   C434      1.0  0.25395  0.84299  0.62993  1.0000
  H   H425      1.0  0.33370  0.93552  0.86238  1.0000
  H   H426      1.0  0.17917  0.87110  0.00566  1.0000
  C   C435      1.0  0.33091  0.92685  0.64898  1.0000
  H   H427      1.0  0.09336  0.74960  0.56731  1.0000
  H   H428      1.0  0.32246  0.94041  0.81371  1.0000
  Fe  Fe73      1.0  0.20395  0.86949  0.65448  1.0000
  H   H429      1.0  0.38306  0.97953  0.56005  1.0000
  C   C436      1.0  0.24244  0.90282  0.88642  1.0000
  C   C437      1.0  0.26886  0.95341  0.91041  1.0000
  H   H430      1.0  0.22841  0.84775  0.91734  1.0000
  S   S143      1.0  0.24308  0.92512  0.66239  1.0000
  Fe  Fe74      1.0  0.25316  0.89816  0.64763  1.0000
  C   C438      1.0  0.28443  0.94654  0.93268  1.0000
  S   S144      1.0  0.21433  0.91123  0.77759  1.0000
  C   C439      1.0  0.26930  0.95334  0.86690  1.0000
  H   H431      1.0  0.15325  0.86622  0.97876  1.0000
  H   H432      1.0  0.27515  0.88411  0.82390  1.0000
  C   C440      1.0  0.20009  0.85344  0.95033  1.0000
  Fe  Fe75      1.0  0.21549  0.91411  0.61862  1.0000
  S   S145      1.0  0.28976  0.90024  0.63249  1.0000
  H   H433      1.0  0.31196  0.93380  0.92866  1.0000
  S   S146      1.0  0.23390  0.89392  0.00286  1.0000
  H   H434      1.0  0.23988  0.90550  0.91843  1.0000
  S   S147      1.0  0.23102  0.87722  0.70043  1.0000
  N   N36       1.0  0.25553  0.84257  0.67543  1.0000
  C   C441      1.0  0.30447  0.95403  0.57584  1.0000
  H   H435      1.0  0.26436  0.85806  0.61360  1.0000
  S   S148      1.0  0.46444  0.98301  0.67490  1.0000
  C   C442      1.0  0.31964  0.96941  0.59515  1.0000
  H   H436      1.0  0.26003  0.83097  0.61793  1.0000
  H   H437      1.0  0.02284  0.77990  0.58350  1.0000
  H   H438      1.0  0.32061  0.96775  0.62891  1.0000
  H   H439      1.0  0.10163  0.77503  0.53990  1.0000
  H   H440      1.0  0.21564  0.82314  0.02779  1.0000
  S   S149      1.0  0.28909  0.90913  0.01730  1.0000
  H   H441      1.0  0.01622  0.75715  0.02204  1.0000
  H   H442      1.0  0.09440  0.77076  0.59572  1.0000
  H   H443      1.0  0.16111  0.84535  0.00333  1.0000
  S   S150      1.0  0.26027  0.86049  0.03213  1.0000
  C   C443      1.0  0.16593  0.78297  0.03515  1.0000
  C   C444      1.0  0.19178  0.98383  0.53852  1.0000
  H   H444      1.0  0.88961  0.21511  0.15697  1.0000
  H   H445      1.0  0.66851  0.05779  0.39388  1.0000
  S   S151      1.0  0.72050  0.05256  0.10398  1.0000
  Fe  Fe76      1.0  0.78313  0.06073  0.31024  1.0000
  S   S152      1.0  0.78118  0.08974  0.33295  1.0000
  S   S153      1.0  0.79280  0.06099  0.24123  1.0000
  Fe  Fe77      1.0  0.77688  0.03884  0.40029  1.0000
  S   S154      1.0  0.77508  0.06639  0.42953  1.0000
  C   C445      1.0  0.66848  0.04031  0.29803  1.0000
  Fe  Fe78      1.0  0.75251  0.06897  0.37732  1.0000
  S   S155      1.0  0.71815  0.07308  0.38987  1.0000
  Fe  Fe79      1.0  0.80408  0.08447  0.38228  1.0000
  S   S156      1.0  0.83871  0.10606  0.39521  1.0000
  S   S157      1.0  0.75263  0.04028  0.35081  1.0000
  S   S158      1.0  0.80774  0.05647  0.35707  1.0000
  C   C446      1.0  0.81529  0.04240  0.49043  1.0000
  H   H446      1.0  0.95089  0.23535  0.06756  1.0000
  C   C447      1.0  0.85351  0.07262  0.45206  1.0000
  Fe  Fe80      1.0  0.95456  0.23183  0.43547  1.0000
  S   S159      1.0  0.92285  0.23690  0.46231  1.0000
  Fe  Fe81      1.0  0.90518  0.22081  0.40941  1.0000
  S   S160      1.0  0.86797  0.20079  0.41278  1.0000
  H   H447      1.0  0.85720  0.05014  0.41254  1.0000
  S   S161      1.0  0.93601  0.21293  0.38623  1.0000
  N   N37       1.0  0.84056  0.07685  0.48357  1.0000
  H   H448      1.0  0.49350  0.01584  0.29426  1.0000
  H   H449      1.0  0.74691  0.02813  0.07169  1.0000
  C   C448      1.0  0.66084  0.01785  0.13375  1.0000
  S   S162      1.0  0.59416  0.00710  0.34412  1.0000
  C   C449      1.0  0.69017  0.02911  0.46439  1.0000
  H   H450      1.0  0.75249  0.02835  0.49461  1.0000
  H   H451      1.0  0.63478  0.01407  0.18367  1.0000
  C   C450      1.0  0.69891  0.06069  0.35450  1.0000
  C   C451      1.0  0.70733  0.05653  0.31644  1.0000
  C   C452      1.0  0.69216  0.04658  0.28815  1.0000
  H   H452      1.0  0.72557  0.06119  0.30846  1.0000
  H   H453      1.0  0.69877  0.04351  0.25871  1.0000
  C   C453      1.0  0.84632  0.13251  0.39842  1.0000
  C   C454      1.0  0.83003  0.14269  0.39880  1.0000
  C   C455      1.0  0.83689  0.16364  0.40324  1.0000
  C   C456      1.0  0.86005  0.17453  0.40706  1.0000
  C   C457      1.0  0.87635  0.16437  0.40623  1.0000
  C   C458      1.0  0.86947  0.14343  0.40211  1.0000
  H   H454      1.0  0.81214  0.13440  0.39620  1.0000
  H   H455      1.0  0.82418  0.17141  0.40397  1.0000
  H   H456      1.0  0.89420  0.17255  0.40938  1.0000
  H   H457      1.0  0.88218  0.13566  0.40185  1.0000
  H   H458      1.0  0.85854  0.20407  0.32302  1.0000
  C   C459      1.0  0.49048  0.00008  0.28928  1.0000
  H   H459      1.0  0.92269  0.19853  0.27732  1.0000
  C   C460      1.0  0.74070  0.05313  0.14145  1.0000
  C   C461      1.0  0.76419  0.05902  0.12986  1.0000
  C   C462      1.0  0.77990  0.06051  0.16086  1.0000
  C   C463      1.0  0.77229  0.05668  0.20357  1.0000
  C   C464      1.0  0.74876  0.05037  0.21509  1.0000
  C   C465      1.0  0.73302  0.04835  0.18399  1.0000
  H   H460      1.0  0.77034  0.06277  0.09716  1.0000
  H   H461      1.0  0.79811  0.06524  0.15180  1.0000
  H   H462      1.0  0.74274  0.04717  0.24791  1.0000
  H   H463      1.0  0.71482  0.04360  0.19286  1.0000
  C   C466      1.0  0.87427  0.21072  0.17961  1.0000
  H   H464      1.0  0.71927  0.00729  0.12953  1.0000
  C   C467      1.0  0.90051  0.20393  0.23029  1.0000
  H   H465      1.0  0.86682  0.22336  0.17602  1.0000
  H   H466      1.0  0.86233  0.10790  0.47914  1.0000
  H   H467      1.0  0.86174  0.19662  0.17078  1.0000
  C   C468      1.0  0.75054  0.01313  0.50852  1.0000
  S   S163      1.0  0.89978  0.22100  0.06504  1.0000
  N   N38       1.0  0.88032  0.20753  0.22279  1.0000
  C   C469      1.0  0.86526  0.20748  0.25546  1.0000
  C   C470      1.0  0.90632  0.20069  0.27140  1.0000
  C   C471      1.0  0.87042  0.20409  0.29696  1.0000
  C   C472      1.0  0.89111  0.20072  0.30483  1.0000
  H   H468      1.0  0.84916  0.21014  0.24955  1.0000
  C   C473      1.0  0.84743  0.05321  0.43860  1.0000
  C   C474      1.0  0.72514  0.09365  0.18117  1.0000
  H   H469      1.0  0.74813  0.09997  0.12586  1.0000
  H   H470      1.0  0.70983  0.08946  0.16398  1.0000
  H   H471      1.0  0.79628  0.12686  0.15463  1.0000
  H   H472      1.0  0.83244  0.10394  0.48934  1.0000
  N   N39       1.0  0.76625  0.10374  0.18143  1.0000
  C   C475      1.0  0.74690  0.09953  0.15979  1.0000
  C   C476      1.0  0.74312  0.09743  0.24656  1.0000
  C   C477      1.0  0.72329  0.09260  0.22485  1.0000
  H   H473      1.0  0.74184  0.09665  0.28056  1.0000
  H   H474      1.0  0.70650  0.08780  0.24191  1.0000
  H   H475      1.0  0.84888  0.09714  0.53057  1.0000
  C   C478      1.0  0.76459  0.10288  0.22424  1.0000
  C   C479      1.0  0.78898  0.11002  0.15873  1.0000
  H   H476      1.0  0.77992  0.10602  0.24140  1.0000
  H   H477      1.0  0.91251  0.20397  0.20449  1.0000
  C   C480      1.0  0.67516  0.05456  0.36450  1.0000
  H   H478      1.0  0.79674  0.15536  0.06453  1.0000
  C   C481      1.0  0.82822  0.03802  0.45804  1.0000
  C   C482      1.0  0.66700  0.00978  0.09836  1.0000
  C   C483      1.0  0.82162  0.06205  0.50264  1.0000
  C   C484      1.0  0.61988  0.00268  0.52518  1.0000
  C   C485      1.0  0.65993  0.04411  0.33648  1.0000
  H   H479      1.0  0.67379  0.02688  0.52569  1.0000
  H   H480      1.0  0.64162  0.03946  0.34416  1.0000
  H   H481      1.0  0.70785  0.02746  0.40619  1.0000
  C   C486      1.0  0.68207  0.01950  0.50470  1.0000
  C   C487      1.0  0.72447  0.00006  0.10397  1.0000
  C   C488      1.0  0.70131  0.02000  0.43739  1.0000
  Fe  Fe82      1.0  0.94443  0.24263  0.34508  1.0000
  H   H482      1.0  0.63354  0.02569  0.47288  1.0000
  C   C489      1.0  0.75931  0.00037  0.48656  1.0000
  S   S164      1.0  0.65016  0.02846  0.26094  1.0000
  H   H483      1.0  0.89532  0.19815  0.33685  1.0000
  H   H484      1.0  0.68803  0.04365  0.45428  1.0000
  H   H485      1.0  0.80081  0.10355  0.17616  1.0000
  H   H486      1.0  0.78814  0.10437  0.12731  1.0000
  H   H487      1.0  0.68339  0.01764  0.08109  1.0000
  H   H488      1.0  0.67235  0.03165  0.14385  1.0000
  H   H489      1.0  0.82302  0.02297  0.44744  1.0000
  C   C490      1.0  0.84640  0.09742  0.49651  1.0000
  H   H490      1.0  0.86806  0.08451  0.43585  1.0000
  Fe  Fe83      1.0  0.61680  0.00590  0.28834  1.0000
  C   C491      1.0  0.94428  0.24648  0.19566  1.0000
  S   S165      1.0  0.77406  0.00851  0.43641  1.0000
  H   H491      1.0  0.95853  0.24104  0.18849  1.0000
  C   C492      1.0  0.63976  0.00798  0.15615  1.0000
  H   H492      1.0  0.61903  0.00252  0.41902  1.0000
  S   S166      1.0  0.95665  0.24510  0.27656  1.0000
  C   C493      1.0  0.74003  0.01181  0.07152  1.0000
  C   C494      1.0  0.62403  0.00987  0.48246  1.0000
  H   H493      1.0  0.80016  0.03072  0.50528  1.0000
  S   S167      1.0  0.83677  0.19030  0.04834  1.0000
  C   C495      1.0  0.74678  0.00238  0.03890  1.0000
  S   S168      1.0  0.53554  0.00727  0.30403  1.0000
  N   N40       1.0  0.68460  0.00112  0.51755  1.0000
  H   H494      1.0  0.81109  0.06548  0.52702  1.0000
  C   C496      1.0  0.96806  0.24409  0.05501  1.0000
  C   C497      1.0  0.70428  0.00146  0.45096  1.0000
  Fe  Fe84      1.0  0.71094  0.06836  0.95274  1.0000
  S   S169      1.0  0.74332  0.07158  0.91429  1.0000
  S   S170      1.0  0.67741  0.06500  0.92297  1.0000
  Fe  Fe85      1.0  0.76162  0.09019  0.96370  1.0000
  S   S171      1.0  0.79193  0.11798  0.94034  1.0000
  Fe  Fe86      1.0  0.74443  0.04467  0.95608  1.0000
  S   S172      1.0  0.74796  0.01733  0.92746  1.0000
  S   S173      1.0  0.72881  0.08957  0.99884  1.0000
  S   S174      1.0  0.71132  0.04053  0.99272  1.0000
  C   C498      1.0  0.72698  0.01716  0.77592  1.0000
  S   S175      1.0  0.88988  0.22753  0.96519  1.0000
  S   S176      1.0  0.62459  0.03594  0.67129  1.0000
  S   S177      1.0  0.95385  0.23255  0.97928  1.0000
  C   C499      1.0  0.70229  0.00972  0.91344  1.0000
  C   C500      1.0  0.85207  0.23632  0.87410  1.0000
  H   H495      1.0  0.67990  0.09014  0.79562  1.0000
  C   C501      1.0  0.56549  0.00898  0.55502  1.0000
  S   S178      1.0  0.67328  0.03248  0.74451  1.0000
  H   H496      1.0  0.71779  0.02748  0.78367  1.0000
  Fe  Fe87      1.0  0.73219  0.06158  0.03521  1.0000
  C   C502      1.0  0.81589  0.21973  0.97549  1.0000
  C   C503      1.0  0.59996  0.05307  0.80656  1.0000
  Fe  Fe88      1.0  0.62016  0.01033  0.63141  1.0000
  Fe  Fe89      1.0  0.92030  0.23485  0.00401  1.0000
  H   H497      1.0  0.71581  0.01517  0.71323  1.0000
  C   C504      1.0  0.80286  0.19995  0.96972  1.0000
  H   H498      1.0  0.58282  0.01509  0.54053  1.0000
  N   N41       1.0  0.83477  0.22377  0.90667  1.0000
  H   H499      1.0  0.77107  0.00169  0.84977  1.0000
  C   C505      1.0  0.57327  0.03843  0.59505  1.0000
  H   H500      1.0  0.81416  0.22565  0.00517  1.0000
  C   C506      1.0  0.60675  0.05963  0.84521  1.0000
  H   H501      1.0  0.58278  0.04280  0.80379  1.0000
  H   H502      1.0  0.61013  0.05487  0.74107  1.0000
  H   H503      1.0  0.66692  0.10950  0.80537  1.0000
  H   H504      1.0  0.59496  0.05436  0.87299  1.0000
  H   H505      1.0  0.64944  0.07783  0.74730  1.0000
  S   S179      1.0  0.60589  0.00160  0.75233  1.0000
  H   H506      1.0  0.82526  0.19773  0.87270  1.0000
  H   H507      1.0  0.63421  0.07782  0.87804  1.0000
  H   H508      1.0  0.70522  0.02583  0.91360  1.0000
  C   C507      1.0  0.66688  0.09385  0.81563  1.0000
  C   C508      1.0  0.80516  0.13693  0.97252  1.0000
  C   C509      1.0  0.82606  0.15176  0.95773  1.0000
  C   C510      1.0  0.83643  0.16783  0.98134  1.0000
  C   C511      1.0  0.82580  0.16927  0.01977  1.0000
  S   S180      1.0  0.62968  0.01994  0.56238  1.0000
  C   C512      1.0  0.72589  0.01023  0.73638  1.0000
  H   H509      1.0  0.83419  0.15087  0.92772  1.0000
  H   H510      1.0  0.85240  0.17928  0.96948  1.0000
  Fe  Fe90      1.0  0.63963  0.01820  0.71672  1.0000
  C   C513      1.0  0.67648  0.05431  0.87509  1.0000
  C   C514      1.0  0.69573  0.06054  0.84645  1.0000
  C   C515      1.0  0.69441  0.05368  0.80664  1.0000
  C   C516      1.0  0.67385  0.04048  0.79503  1.0000
  C   C517      1.0  0.65451  0.03406  0.82364  1.0000
  C   C518      1.0  0.65587  0.04094  0.86368  1.0000
  H   H511      1.0  0.71140  0.07144  0.85416  1.0000
  H   H512      1.0  0.70929  0.05911  0.78439  1.0000
  H   H513      1.0  0.63854  0.02392  0.81496  1.0000
  H   H514      1.0  0.64090  0.03606  0.88574  1.0000
  H   H515      1.0  0.68679  0.00059  0.58335  1.0000
  H   H516      1.0  0.48401  0.02481  0.69451  1.0000
  H   H517      1.0  0.57241  0.05122  0.57268  1.0000
  H   H518      1.0  0.59130  0.03822  0.59451  1.0000
  H   H519      1.0  0.52927  0.02044  0.62231  1.0000
  C   C519      1.0  0.80607  0.19209  0.93231  1.0000
  H   H520      1.0  0.86953  0.23736  0.88361  1.0000
  C   C520      1.0  0.80508  0.15427  0.03488  1.0000
  S   S181      1.0  0.76588  0.06315  0.00251  1.0000
  C   C521      1.0  0.82240  0.20420  0.90111  1.0000
  H   H521      1.0  0.52344  0.04404  0.71154  1.0000
  H   H522      1.0  0.84203  0.24686  0.94826  1.0000
  N   N42       1.0  0.64400  0.07932  0.81291  1.0000
  Fe  Fe91      1.0  0.86906  0.21661  0.02705  1.0000
  C   C522      1.0  0.53603  0.01845  0.71055  1.0000
  C   C523      1.0  0.51916  0.02807  0.70738  1.0000
  H   H523      1.0  0.79660  0.17643  0.92827  1.0000
  C   C524      1.0  0.63748  0.07292  0.77493  1.0000
  C   C525      1.0  0.62892  0.07298  0.84778  1.0000
  C   C526      1.0  0.49683  0.01722  0.69771  1.0000
  C   C527      1.0  0.61537  0.05980  0.77120  1.0000
  C   C528      1.0  0.73899  0.00610  0.54851  1.0000
  C   C529      1.0  0.83181  0.23153  0.94339  1.0000
  H   H524      1.0  0.67235  0.09337  0.84822  1.0000
  H   H525      1.0  0.79101  0.19042  0.99492  1.0000
  H   H526      1.0  0.77867  0.12682  0.02294  1.0000
  S   S182      1.0  0.56451  0.03268  0.71821  1.0000
  H   H527      1.0  0.73214  0.01601  0.56517  1.0000
  Fe  Fe92      1.0  0.59046  0.01709  0.70313  1.0000
  C   C530      1.0  0.79481  0.13812  0.01142  1.0000
  C   C531      1.0  0.53560  0.01203  0.60052  1.0000
  N   N43       1.0  0.55783  0.01919  0.58377  1.0000
  H   H528      1.0  0.75885  0.01173  0.01379  1.0000
  H   H529      1.0  0.56860  0.04111  0.62738  1.0000
  H   H530      1.0  0.74070  0.01619  0.83611  1.0000
  C   C532      1.0  0.73990  0.01062  0.80552  1.0000
  H   H531      1.0  0.84981  0.23009  0.84334  1.0000
  C   C533      1.0  0.97448  0.24451  0.01260  1.0000
  H   H532      1.0  0.66555  0.00250  0.91228  1.0000
  C   C534      1.0  0.72064  0.00191  0.91646  1.0000
  S   S183      1.0  0.86603  0.24741  0.03485  1.0000
  S   S184      1.0  0.93535  0.29394  0.44381  1.0000
  S   S185      1.0  0.96629  0.26046  0.39162  1.0000
  C   C535      1.0  0.94698  0.30568  0.19247  1.0000
  C   C536      1.0  0.96551  0.37670  0.49325  1.0000
  H   H533      1.0  0.92761  0.36992  0.42552  1.0000
  C   C537      1.0  0.91306  0.25808  0.17225  1.0000
  Fe  Fe93      1.0  0.89776  0.25225  0.06997  1.0000
  C   C538      1.0  0.95842  0.30335  0.12084  1.0000
  H   H534      1.0  0.95128  0.37162  0.29702  1.0000
  H   H535      1.0  0.95388  0.41955  0.51467  1.0000
  H   H536      1.0  0.94638  0.34068  0.26680  1.0000
  H   H537      1.0  0.91651  0.25877  0.27786  1.0000
  H   H538      1.0  0.93190  0.31668  0.29708  1.0000
  C   C539      1.0  0.96370  0.31043  0.44266  1.0000
  H   H539      1.0  0.89365  0.26647  0.22085  1.0000
  Fe  Fe94      1.0  0.93397  0.26493  0.41676  1.0000
  C   C540      1.0  0.96225  0.39567  0.48595  1.0000
  H   H540      1.0  0.92035  0.33250  0.43454  1.0000
  S   S186      1.0  0.89743  0.26507  0.13226  1.0000
  H   H541      1.0  0.96997  0.36944  0.46726  1.0000
  H   H542      1.0  0.93515  0.30849  0.21523  1.0000
  C   C541      1.0  0.96505  0.29899  0.20560  1.0000
  S   S187      1.0  0.96476  0.40772  0.43437  1.0000
  C   C542      1.0  0.49342  0.48564  0.27733  1.0000
  H   H543      1.0  0.95776  0.32218  0.50018  1.0000
  H   H544      1.0  0.95566  0.30446  0.08769  1.0000
  C   C543      1.0  0.94356  0.30766  0.14984  1.0000
  C   C544      1.0  0.95650  0.40491  0.52004  1.0000
  H   H545      1.0  0.94292  0.38947  0.35627  1.0000
  C   C545      1.0  0.93117  0.25064  0.16330  1.0000
  N   N44       1.0  0.93929  0.34229  0.33198  1.0000
  C   C546      1.0  0.93079  0.33146  0.36999  1.0000
  C   C547      1.0  0.94366  0.36290  0.32673  1.0000
  C   C548      1.0  0.92645  0.34118  0.40417  1.0000
  C   C549      1.0  0.93910  0.37309  0.36008  1.0000
  C   C550      1.0  0.93056  0.36212  0.39908  1.0000
  C   C551      1.0  0.94510  0.33174  0.29780  1.0000
  H   H546      1.0  0.92762  0.31519  0.37407  1.0000
  H   H547      1.0  0.50353  0.48073  0.25468  1.0000
  C   C552      1.0  0.90769  0.26075  0.21378  1.0000
  C   C553      1.0  0.96228  0.36676  0.53418  1.0000
  H   H548      1.0  0.96712  0.29677  0.23889  1.0000
  H   H549      1.0  0.97393  0.26657  0.47892  1.0000
  H   H550      1.0  0.49040  0.42351  0.37129  1.0000
  H   H551      1.0  0.92899  0.31190  0.13930  1.0000
  H   H552      1.0  0.91615  0.26760  0.52945  1.0000
  H   H553      1.0  0.49833  0.41096  0.44249  1.0000
  H   H554      1.0  0.96201  0.32953  0.30246  1.0000
  C   C554      1.0  0.97014  0.32282  0.47489  1.0000
  C   C555      1.0  0.48656  0.41971  0.43904  1.0000
  H   H555      1.0  0.93544  0.24860  0.13131  1.0000
  S   S188      1.0  0.91294  0.24980  0.36634  1.0000
  H   H556      1.0  0.97460  0.30304  0.38322  1.0000
  C   C556      1.0  0.92060  0.25635  0.24617  1.0000
  C   C557      1.0  0.48209  0.42666  0.39920  1.0000
  C   C558      1.0  0.93912  0.24943  0.23716  1.0000
  H   H557      1.0  0.47882  0.41839  0.50568  1.0000
  C   C559      1.0  0.97647  0.29698  0.13500  1.0000
  S   S189      1.0  0.95150  0.36239  0.61880  1.0000
  N   N45       1.0  0.95248  0.30326  0.60406  1.0000
  H   H558      1.0  0.88744  0.30456  0.84401  1.0000
  S   S190      1.0  0.92127  0.26670  0.01248  1.0000
  Fe  Fe95      1.0  0.95752  0.41147  0.73358  1.0000
  H   H559      1.0  0.93190  0.44693  0.67285  1.0000
  S   S191      1.0  0.88377  0.27866  0.92097  1.0000
  C   C560      1.0  0.94348  0.33146  0.85311  1.0000
  C   C561      1.0  0.92269  0.29601  0.55619  1.0000
  H   H560      1.0  0.95533  0.25669  0.89758  1.0000
  S   S192      1.0  0.51048  0.43123  0.71619  1.0000
  C   C562      1.0  0.96728  0.31757  0.62982  1.0000
  C   C563      1.0  0.90398  0.47894  0.74868  1.0000
  H   H561      1.0  0.96265  0.32640  0.90517  1.0000
  H   H562      1.0  0.93079  0.29782  0.94177  1.0000
  Fe  Fe96      1.0  0.96552  0.37198  0.76968  1.0000
  C   C564      1.0  0.93618  0.30884  0.58296  1.0000
  S   S193      1.0  0.96727  0.35113  0.82744  1.0000
  Fe  Fe97      1.0  0.95943  0.37973  0.67571  1.0000
  C   C565      1.0  0.58673  0.49065  0.79678  1.0000
  H   H563      1.0  0.52106  0.45298  0.84832  1.0000
  H   H564      1.0  0.55400  0.46253  0.70448  1.0000
  C   C566      1.0  0.90392  0.30917  0.85727  1.0000
  C   C567      1.0  0.95965  0.27082  0.87545  1.0000
  H   H565      1.0  0.94941  0.40236  0.58730  1.0000
  C   C568      1.0  0.96569  0.47833  0.73620  1.0000
  S   S194      1.0  0.93696  0.37812  0.73462  1.0000
  H   H566      1.0  0.92189  0.46051  0.80803  1.0000
  C   C569      1.0  0.92781  0.47698  0.80722  1.0000
  C   C570      1.0  0.92828  0.30525  0.91227  1.0000
  H   H567      1.0  0.90669  0.48852  0.71805  1.0000
  H   H568      1.0  0.96623  0.26729  0.84524  1.0000
  C   C571      1.0  0.94200  0.46089  0.68427  1.0000
  C   C572      1.0  0.90694  0.29901  0.89533  1.0000
  H   H569      1.0  0.56812  0.45877  0.79952  1.0000
  H   H570      1.0  0.94376  0.27487  0.87080  1.0000
  H   H571      1.0  0.52725  0.49728  0.81535  1.0000
  C   C573      1.0  0.52498  0.45843  0.81446  1.0000
  C   C574      1.0  0.94207  0.27153  0.57389  1.0000
  H   H572      1.0  0.96439  0.35195  0.53947  1.0000
  C   C575      1.0  0.94638  0.32144  0.89137  1.0000
  C   C576      1.0  0.54394  0.49524  0.81087  1.0000
  C   C577      1.0  0.56674  0.47380  0.80165  1.0000
  C   C578      1.0  0.95654  0.37595  0.56829  1.0000
  S   S195      1.0  0.97746  0.41331  0.67229  1.0000
  H   H573      1.0  0.96824  0.28027  0.61692  1.0000
  H   H574      1.0  0.97727  0.33171  0.60980  1.0000
  C   C579      1.0  0.92589  0.27736  0.55132  1.0000
  H   H575      1.0  0.91965  0.33297  0.80676  1.0000
  Fe  Fe98      1.0  0.88985  0.25888  0.97651  1.0000
  C   C580      1.0  0.50084  0.46746  0.71404  1.0000
  C   C581      1.0  0.51767  0.45795  0.71071  1.0000
  C   C582      1.0  0.54091  0.46983  0.70696  1.0000
  C   C583      1.0  0.92213  0.32532  0.83613  1.0000
  H   H576      1.0  0.52707  0.44585  0.79729  1.0000
  C   C584      1.0  0.95299  0.46009  0.72130  1.0000
  H   H577      1.0  0.48288  0.45841  0.71722  1.0000
  C   C585      1.0  0.94233  0.47972  0.66404  1.0000
  C   C586      1.0  0.95404  0.39523  0.56122  1.0000
  S   S196      1.0  0.94578  0.43711  0.75459  1.0000
  N   N46       1.0  0.92069  0.48870  0.77779  1.0000
  C   C587      1.0  0.96615  0.49721  0.71578  1.0000
  H   H578      1.0  0.51000  0.46208  0.80185  1.0000
  H   H579      1.0  0.95672  0.32164  0.65441  1.0000
  H   H580      1.0  0.93268  0.48012  0.63674  1.0000
  N   N47       1.0  0.54569  0.47627  0.80827  1.0000
  H   H581      1.0  0.97420  0.47780  0.76489  1.0000
  H   H582      1.0  0.93389  0.32349  0.58610  1.0000
  C   C588      1.0  0.54733  0.49102  0.70754  1.0000
  C   C589      1.0  0.50728  0.48863  0.71520  1.0000
  C   C590      1.0  0.95530  0.28474  0.60033  1.0000
  H   H583      1.0  0.91036  0.30075  0.53826  1.0000
  H   H584      1.0  0.60341  0.48874  0.79101  1.0000
  H   H585      1.0  0.94986  0.47666  0.85761  1.0000
  C   C591      1.0  0.94374  0.48604  0.83526  1.0000
  H   H586      1.0  0.88629  0.47629  0.76233  1.0000
  H   H587      1.0  0.85098  0.25201  0.86968  1.0000
  H   H588      1.0  0.94490  0.25716  0.56987  1.0000
  H   H589      1.0  0.90592  0.46416  0.74177  1.0000
  H   H590      1.0  0.49415  0.49580  0.71902  1.0000
  H   H591      1.0  0.96716  0.27571  0.95554  1.0000
  N   N48       1.0  0.97688  0.28766  0.89162  1.0000
  H   H592      1.0  0.48108  0.27609  0.91773  1.0000
  C   C592      1.0  0.95364  0.49786  0.68061  1.0000
  N   N49       1.0  0.69456  0.69044  0.09869  1.0000
  S   S197      1.0  0.75449  0.71613  0.43992  1.0000
  H   H593      1.0  0.81428  0.63841  0.44281  1.0000
  S   S198      1.0  0.95401  0.62201  0.13359  1.0000
  C   C593      1.0  0.50050  0.58310  0.24571  1.0000
  Fe  Fe99      1.0  0.96385  0.67694  0.32932  1.0000
  S   S199      1.0  0.92637  0.66080  0.32637  1.0000
  N   N50       1.0  0.95904  0.57438  0.23913  1.0000
  C   C594      1.0  0.58532  0.59760  0.51524  1.0000
  S   S200      1.0  0.92064  0.66738  0.42547  1.0000
  Fe  Fe100     1.0  0.92920  0.64472  0.38846  1.0000
  Fe  Fe101     1.0  0.92135  0.68492  0.36344  1.0000
  S   S201      1.0  0.89633  0.70131  0.34507  1.0000
  Fe  Fe102     1.0  0.74547  0.69396  0.39106  1.0000
  S   S202      1.0  0.74226  0.66199  0.41536  1.0000
  H   H594      1.0  0.82459  0.72463  0.42398  1.0000
  Fe  Fe103     1.0  0.73935  0.68304  0.30086  1.0000
  S   S203      1.0  0.73529  0.65028  0.31937  1.0000
  S   S204      1.0  0.74089  0.69365  0.23170  1.0000
  Fe  Fe104     1.0  0.71320  0.65349  0.37393  1.0000
  S   S205      1.0  0.68002  0.63079  0.40148  1.0000
  Fe  Fe105     1.0  0.76483  0.66227  0.35851  1.0000
  S   S206      1.0  0.79221  0.64699  0.36056  1.0000
  S   S207      1.0  0.71475  0.68549  0.35278  1.0000
  S   S208      1.0  0.77050  0.69499  0.33686  1.0000
  H   H595      1.0  0.92580  0.57645  0.25659  1.0000
  H   H596      1.0  0.61247  0.64014  0.44034  1.0000
  S   S209      1.0  0.70171  0.62327  0.11646  1.0000
  H   H597      1.0  0.61800  0.56105  0.48420  1.0000
  C   C595      1.0  0.65649  0.58042  0.17739  1.0000
  C   C596      1.0  0.50739  0.56081  0.19699  1.0000
  S   S210      1.0  0.63379  0.67896  0.10956  1.0000
  C   C597      1.0  0.92333  0.68559  0.22413  1.0000
  Fe  Fe106     1.0  0.58653  0.57490  0.30107  1.0000
  S   S211      1.0  0.58911  0.60609  0.31705  1.0000
  S   S212      1.0  0.62119  0.57591  0.27451  1.0000
  Fe  Fe107     1.0  0.53557  0.55786  0.32616  1.0000
  S   S213      1.0  0.53460  0.58831  0.34244  1.0000
  Fe  Fe108     1.0  0.55722  0.60149  0.28362  1.0000
  S   S214      1.0  0.55154  0.62657  0.24023  1.0000
  Fe  Fe109     1.0  0.56667  0.59009  0.37441  1.0000
  S   S215      1.0  0.57023  0.60249  0.43733  1.0000
  S   S216      1.0  0.55556  0.57101  0.26389  1.0000
  S   S217      1.0  0.56664  0.55898  0.36184  1.0000
  H   H598      1.0  0.64504  0.56481  0.18834  1.0000
  C   C598      1.0  0.58553  0.59259  0.47393  1.0000
  C   C599      1.0  0.59743  0.57947  0.46281  1.0000
  C   C600      1.0  0.48993  0.51073  0.32278  1.0000
  C   C601      1.0  0.83915  0.57969  0.05910  1.0000
  H   H599      1.0  0.59780  0.57563  0.43098  1.0000
  H   H600      1.0  0.51657  0.55837  0.16940  1.0000
  H   H601      1.0  0.89168  0.56969  0.39616  1.0000
  C   C602      1.0  0.61085  0.66507  0.14631  1.0000
  C   C603      1.0  0.61369  0.64941  0.17404  1.0000
  C   C604      1.0  0.59559  0.63743  0.20274  1.0000
  C   C605      1.0  0.57457  0.64124  0.20432  1.0000
  C   C606      1.0  0.57183  0.65709  0.17703  1.0000
  C   C607      1.0  0.58989  0.66896  0.14804  1.0000
  H   H602      1.0  0.62992  0.64640  0.17305  1.0000
  H   H603      1.0  0.59793  0.62529  0.22368  1.0000
  H   H604      1.0  0.55564  0.66016  0.17814  1.0000
  H   H605      1.0  0.58754  0.68102  0.12687  1.0000
  H   H606      1.0  0.72562  0.74010  0.09684  1.0000
  H   H607      1.0  0.62487  0.59864  0.18806  1.0000
  S   S218      1.0  0.96745  0.65862  0.38873  1.0000
  C   C608      1.0  0.66559  0.61442  0.36588  1.0000
  C   C609      1.0  0.64644  0.59783  0.38064  1.0000
  C   C610      1.0  0.63338  0.58561  0.35248  1.0000
  C   C611      1.0  0.63960  0.58969  0.30943  1.0000
  C   C612      1.0  0.65907  0.60606  0.29458  1.0000
  C   C613      1.0  0.67201  0.61848  0.32282  1.0000
  H   H608      1.0  0.64157  0.59455  0.41392  1.0000
  H   H609      1.0  0.61840  0.57297  0.36411  1.0000
  H   H610      1.0  0.66362  0.60967  0.26134  1.0000
  H   H611      1.0  0.68652  0.63148  0.31118  1.0000
  C   C614      1.0  0.71272  0.64340  0.14700  1.0000
  C   C615      1.0  0.70498  0.64063  0.18947  1.0000
  C   C616      1.0  0.71374  0.65592  0.21556  1.0000
  C   C617      1.0  0.73024  0.67418  0.19932  1.0000
  C   C618      1.0  0.73780  0.67714  0.15661  1.0000
  C   C619      1.0  0.72912  0.66172  0.13044  1.0000
  H   H612      1.0  0.69227  0.62652  0.20239  1.0000
  H   H613      1.0  0.70742  0.65370  0.24812  1.0000
  H   H614      1.0  0.75042  0.69134  0.14380  1.0000
  H   H615      1.0  0.73518  0.66398  0.09767  1.0000
  S   S219      1.0  0.90843  0.61212  0.40651  1.0000
  H   H616      1.0  0.65283  0.65036  0.34598  1.0000
  C   C620      1.0  0.95833  0.58160  0.19834  1.0000
  C   C621      1.0  0.63610  0.65195  0.34123  1.0000
  H   H617      1.0  0.92805  0.67159  0.23168  1.0000
  C   C622      1.0  0.86775  0.68578  0.34390  1.0000
  C   C623      1.0  0.86156  0.66471  0.35337  1.0000
  C   C624      1.0  0.83833  0.65280  0.35610  1.0000
  C   C625      1.0  0.82120  0.66195  0.35036  1.0000
  C   C626      1.0  0.82749  0.68293  0.33938  1.0000
  C   C627      1.0  0.85073  0.69480  0.33584  1.0000
  H   H618      1.0  0.87461  0.65761  0.35941  1.0000
  H   H619      1.0  0.83360  0.63653  0.36416  1.0000
  H   H620      1.0  0.81451  0.69015  0.33467  1.0000
  H   H621      1.0  0.85548  0.71110  0.32836  1.0000
  C   C628      1.0  0.96078  0.63988  0.17051  1.0000
  S   S220      1.0  0.92556  0.65801  0.07678  1.0000
  H   H622      1.0  0.65916  0.58938  0.20472  1.0000
  H   H623      1.0  0.92794  0.68885  0.14054  1.0000
  C   C629      1.0  0.96336  0.64696  0.24349  1.0000
  C   C630      1.0  0.95650  0.63318  0.21350  1.0000
  C   C631      1.0  0.50285  0.50445  0.29321  1.0000
  S   S221      1.0  0.66241  0.73516  0.07020  1.0000
  H   H624      1.0  0.94773  0.61735  0.22379  1.0000
  S   S222      1.0  0.95879  0.70240  0.36292  1.0000
  H   H625      1.0  0.95659  0.61656  0.39437  1.0000
  C   C632      1.0  0.64194  0.59759  0.07129  1.0000
  H   H626      1.0  0.67725  0.67083  0.15303  1.0000
  N   N51       1.0  0.78118  0.65574  0.20861  1.0000
  C   C633      1.0  0.76256  0.63852  0.21553  1.0000
  C   C634      1.0  0.79144  0.66241  0.16899  1.0000
  C   C635      1.0  0.75406  0.62724  0.18245  1.0000
  C   C636      1.0  0.78338  0.65149  0.13517  1.0000
  C   C637      1.0  0.76454  0.63381  0.14205  1.0000
  C   C638      1.0  0.78939  0.66773  0.24338  1.0000
  H   H627      1.0  0.75401  0.63352  0.24669  1.0000
  H   H628      1.0  0.80590  0.67629  0.16333  1.0000
  H   H629      1.0  0.73902  0.61382  0.18785  1.0000
  H   H630      1.0  0.79155  0.65678  0.10375  1.0000
  H   H631      1.0  0.75770  0.62547  0.11599  1.0000
  H   H632      1.0  0.80830  0.67511  0.23964  1.0000
  H   H633      1.0  0.78093  0.67963  0.24491  1.0000
  H   H634      1.0  0.78560  0.65800  0.27388  1.0000
  H   H635      1.0  0.52011  0.51399  0.28273  1.0000
  N   N52       1.0  0.61953  0.64688  0.37377  1.0000
  H   H636      1.0  0.58478  0.64356  0.39298  1.0000
  H   H637      1.0  0.61800  0.61379  0.05765  1.0000
  C   C639      1.0  0.71012  0.71531  0.46188  1.0000
  N   N53       1.0  0.64610  0.58976  0.14441  1.0000
  C   C640      1.0  0.65190  0.58893  0.10310  1.0000
  C   C641      1.0  0.62985  0.59845  0.15523  1.0000
  C   C642      1.0  0.61950  0.60722  0.12420  1.0000
  Fe  Fe110     1.0  0.93888  0.63167  0.07570  1.0000
  C   C643      1.0  0.51203  0.58031  0.20939  1.0000
  C   C644      1.0  0.73266  0.71943  0.47346  1.0000
  H   H638      1.0  0.96589  0.62804  0.46408  1.0000
  H   H639      1.0  0.64683  0.59709  0.03855  1.0000
  C   C645      1.0  0.69556  0.70071  0.16826  1.0000
  S   S223      1.0  0.96970  0.69226  0.48591  1.0000
  S   S224      1.0  0.85938  0.63573  0.08061  1.0000
  H   H640      1.0  0.71229  0.71346  0.04959  1.0000
  H   H641      1.0  0.69107  0.69693  0.20169  1.0000
  C   C646      1.0  0.68694  0.67478  0.07008  1.0000
  H   H642      1.0  0.86357  0.68350  0.44215  1.0000
  H   H643      1.0  0.81126  0.62510  0.10236  1.0000
  H   H644      1.0  0.91182  0.54513  0.37971  1.0000
  C   C647      1.0  0.94677  0.60107  0.39130  1.0000
  C   C648      1.0  0.94099  0.57399  0.27084  1.0000
  C   C649      1.0  0.94169  0.69988  0.15400  1.0000
  H   H645      1.0  0.52485  0.59319  0.19160  1.0000
  H   H646      1.0  0.64473  0.66284  0.27556  1.0000
  H   H647      1.0  0.57624  0.60784  0.52399  1.0000
  S   S225      1.0  0.95973  0.55008  0.36419  1.0000
  C   C650      1.0  0.73828  0.72716  0.51191  1.0000
  H   H648      1.0  0.75567  0.73036  0.52108  1.0000
  C   C651      1.0  0.95944  0.71387  0.21354  1.0000
  H   H649      1.0  0.94773  0.58608  0.29173  1.0000
  C   C652      1.0  0.60880  0.57119  0.49304  1.0000
  C   C653      1.0  0.92160  0.56070  0.38318  1.0000
  Fe  Fe111     1.0  0.71328  0.62429  0.04828  1.0000
  C   C654      1.0  0.70763  0.70970  0.08293  1.0000
  H   H650      1.0  0.71551  0.73173  0.17381  1.0000
  H   H651      1.0  0.62216  0.62220  0.41423  1.0000
  H   H652      1.0  0.78863  0.69555  0.43790  1.0000
  C   C655      1.0  0.62432  0.63861  0.41467  1.0000
  H   H653      1.0  0.67363  0.57991  0.16619  1.0000
  H   H654      1.0  0.86239  0.71842  0.42605  1.0000
  Fe  Fe112     1.0  0.95883  0.68256  0.42233  1.0000
  H   H655      1.0  0.70119  0.67554  0.04687  1.0000
  H   H656      1.0  0.60671  0.61420  0.13278  1.0000
  C   C656      1.0  0.62575  0.60690  0.08201  1.0000
  C   C657      1.0  0.59819  0.64833  0.36759  1.0000
  H   H657      1.0  0.84450  0.64791  0.44709  1.0000
  C   C658      1.0  0.92283  0.59484  0.39593  1.0000
  C   C659      1.0  0.66281  0.63107  0.52964  1.0000
  S   S226      1.0  0.90628  0.61054  0.05521  1.0000
  Fe  Fe113     1.0  0.63377  0.70627  0.06487  1.0000
  C   C660      1.0  0.69360  0.71964  0.48789  1.0000
  C   C661      1.0  0.82783  0.64933  0.45865  1.0000
  C   C662      1.0  0.95813  0.58710  0.38333  1.0000
  H   H658      1.0  0.60621  0.66611  0.26407  1.0000
  H   H659      1.0  0.52806  0.56820  0.50583  1.0000
  H   H660      1.0  0.82518  0.64496  0.49303  1.0000
  C   C663      1.0  0.54805  0.54776  0.50883  1.0000
  H   H661      1.0  0.66469  0.58195  0.09449  1.0000
  H   H662      1.0  0.48745  0.52914  0.21167  1.0000
  C   C664      1.0  0.80513  0.69303  0.43921  1.0000
  H   H663      1.0  0.79049  0.66067  0.45293  1.0000
  N   N54       1.0  0.82709  0.67008  0.44892  1.0000
  H   H664      1.0  0.92039  0.69178  0.25394  1.0000
  C   C665      1.0  0.59315  0.65541  0.32813  1.0000
  H   H665      1.0  0.68546  0.65601  0.48815  1.0000
  H   H666      1.0  0.93045  0.62484  0.50077  1.0000
  N   N55       1.0  0.94168  0.70042  0.19652  1.0000
  C   C666      1.0  0.82536  0.70937  0.43151  1.0000
  S   S227      1.0  0.50055  0.53437  0.34299  1.0000
  H   H667      1.0  0.95949  0.71293  0.09354  1.0000
  C   C667      1.0  0.80631  0.67336  0.44798  1.0000
  C   C668      1.0  0.63163  0.65904  0.30137  1.0000
  C   C669      1.0  0.94558  0.56700  0.37857  1.0000
  C   C670      1.0  0.91024  0.57458  0.39235  1.0000
  C   C671      1.0  0.84649  0.70592  0.43299  1.0000
  C   C672      1.0  0.84705  0.68606  0.44207  1.0000
  C   C673      1.0  0.81350  0.62339  0.06944  1.0000
  H   H668      1.0  0.64216  0.64654  0.42215  1.0000
  H   H669      1.0  0.57608  0.65611  0.32300  1.0000
  H   H670      1.0  0.93500  0.55905  0.29040  1.0000
  H   H671      1.0  0.66267  0.61974  0.50832  1.0000
  H   H672      1.0  0.67640  0.71705  0.47808  1.0000
  C   C674      1.0  0.61003  0.66085  0.29491  1.0000
  H   H673      1.0  0.77717  0.61105  0.06225  1.0000
  H   H674      1.0  0.90679  0.68149  0.20908  1.0000
  H   H675      1.0  0.70565  0.70952  0.43217  1.0000
  C   C675      1.0  0.68807  0.68595  0.14065  1.0000
  C   C676      1.0  0.53484  0.55849  0.52617  1.0000
  H   H676      1.0  0.96005  0.64163  0.27658  1.0000
  H   H677      1.0  0.68129  0.65924  0.08720  1.0000
  C   C677      1.0  0.70937  0.72024  0.15260  1.0000
  Fe  Fe114     1.0  0.89415  0.63776  0.05128  1.0000
  H   H678      1.0  0.55146  0.54907  0.47504  1.0000
  C   C678      1.0  0.83570  0.62821  0.05012  1.0000
  C   C679      1.0  0.95956  0.71338  0.12725  1.0000
  H   H679      1.0  0.50449  0.59827  0.25544  1.0000
  H   H680      1.0  0.93744  0.65011  0.51690  1.0000
  S   S228      1.0  0.60806  0.72264  0.05183  1.0000
  H   H681      1.0  0.56853  0.52830  0.52167  1.0000
  C   C680      1.0  0.79423  0.61554  0.04681  1.0000
  C   C681      1.0  0.71525  0.72487  0.10958  1.0000
  H   H682      1.0  0.82448  0.58263  0.07582  1.0000
  H   H683      1.0  0.67231  0.67699  0.05342  1.0000
  H   H684      1.0  0.94403  0.58647  0.18872  1.0000
  N   N56       1.0  0.48476  0.56691  0.26900  1.0000
  C   C682      1.0  0.67555  0.65144  0.51830  1.0000
  N   N57       1.0  0.96317  0.63625  0.52605  1.0000
  C   C683      1.0  0.55764  0.53606  0.53534  1.0000
  C   C684      1.0  0.93890  0.63471  0.52475  1.0000
  H   H685      1.0  0.95986  0.71378  0.24735  1.0000
  C   C685      1.0  0.49105  0.54445  0.22055  1.0000
  C   C686      1.0  0.47958  0.54786  0.25631  1.0000
  C   C687      1.0  0.69929  0.72753  0.52620  1.0000
  H   H686      1.0  0.85451  0.59282  0.06308  1.0000
  H   H687      1.0  0.84147  0.56556  0.07408  1.0000
  H   H688      1.0  0.48386  0.58273  0.32263  1.0000
  C   C688      1.0  0.97190  0.66049  0.15766  1.0000
  H   H689      1.0  0.97657  0.59195  0.38092  1.0000
  H   H690      1.0  0.97773  0.56249  0.28324  1.0000
  C   C689      1.0  0.97703  0.56811  0.25099  1.0000
  H   H691      1.0  0.97566  0.58920  0.13627  1.0000
  H   H692      1.0  0.97550  0.66576  0.12459  1.0000
  C   C690      1.0  0.97616  0.58304  0.16839  1.0000
  C   C691      1.0  0.97476  0.63271  0.49174  1.0000
  C   C692      1.0  0.97520  0.66742  0.23067  1.0000
  C   C693      1.0  0.97769  0.72747  0.18773  1.0000
  C   C694      1.0  0.97768  0.72724  0.14431  1.0000
  C   C695      1.0  0.60801  0.57570  0.53469  1.0000
  H   H693      1.0  0.94706  0.67550  0.74525  1.0000
  H   H694      1.0  0.55431  0.50581  0.60345  1.0000
  H   H695      1.0  0.93188  0.62715  0.80069  1.0000
  Fe  Fe115     1.0  0.92204  0.62192  0.98952  1.0000
  S   S229      1.0  0.91407  0.60286  0.93512  1.0000
  S   S230      1.0  0.90727  0.64766  0.98421  1.0000
  Fe  Fe116     1.0  0.69276  0.60408  0.97198  1.0000
  S   S231      1.0  0.72555  0.61742  0.93164  1.0000
  S   S232      1.0  0.65788  0.58804  0.95059  1.0000
  H   H696      1.0  0.92537  0.64286  0.71916  1.0000
  C   C696      1.0  0.70146  0.70474  0.96834  1.0000
  C   C697      1.0  0.65068  0.64011  0.59567  1.0000
  H   H697      1.0  0.79895  0.56767  0.02456  1.0000
  C   C698      1.0  0.58509  0.51005  0.79914  1.0000
  H   H698      1.0  0.56291  0.52531  0.63803  1.0000
  S   S233      1.0  0.70974  0.59377  0.02630  1.0000
  H   H699      1.0  0.96460  0.51449  0.85473  1.0000
  S   S234      1.0  0.62533  0.74477  0.73956  1.0000
  H   H700      1.0  0.93765  0.65285  0.81408  1.0000
  Fe  Fe117     1.0  0.69332  0.72108  0.70690  1.0000
  S   S235      1.0  0.70012  0.69238  0.73078  1.0000
  S   S236      1.0  0.66076  0.71673  0.67502  1.0000
  H   H701      1.0  0.62667  0.62073  0.84529  1.0000
  Fe  Fe118     1.0  0.72796  0.64595  0.96035  1.0000
  C   C699      1.0  0.66736  0.68881  0.85101  1.0000
  H   H702      1.0  0.71711  0.73733  0.86410  1.0000
  H   H703      1.0  0.64081  0.60945  0.57803  1.0000
  Fe  Fe119     1.0  0.61995  0.72447  0.98367  1.0000
  S   S237      1.0  0.59481  0.72022  0.93377  1.0000
  H   H704      1.0  0.96005  0.60118  0.95114  1.0000
  Fe  Fe120     1.0  0.62416  0.55832  0.73195  1.0000
  S   S238      1.0  0.59380  0.56597  0.75732  1.0000
  S   S239      1.0  0.64966  0.55178  0.77504  1.0000
  Fe  Fe121     1.0  0.61289  0.56548  0.64084  1.0000
  S   S240      1.0  0.58229  0.57420  0.66039  1.0000
  S   S241      1.0  0.62147  0.56422  0.57230  1.0000
  Fe  Fe122     1.0  0.60502  0.59178  0.70609  1.0000
  S   S242      1.0  0.60613  0.62306  0.72010  1.0000
  Fe  Fe123     1.0  0.57469  0.54728  0.70885  1.0000
  S   S243      1.0  0.53787  0.52665  0.71815  1.0000
  S   S244      1.0  0.63636  0.58512  0.68278  1.0000
  S   S245      1.0  0.60430  0.53749  0.68719  1.0000
  N   N58       1.0  0.67613  0.61583  0.80503  1.0000
  S   S246      1.0  0.94752  0.56493  0.72968  1.0000
  S   S247      1.0  0.71587  0.74281  0.65502  1.0000
  C   C700      1.0  0.93804  0.63744  0.82529  1.0000
  H   H705      1.0  0.64588  0.70226  0.88497  1.0000
  H   H706      1.0  0.73168  0.71399  0.78847  1.0000
  C   C701      1.0  0.59637  0.58907  0.54560  1.0000
  C   C702      1.0  0.97441  0.64234  0.56085  1.0000
  H   H707      1.0  0.94115  0.57914  0.81049  1.0000
  H   H708      1.0  0.59600  0.59301  0.57729  1.0000
  C   C703      1.0  0.67433  0.67237  0.73109  1.0000
  C   C704      1.0  0.67436  0.65387  0.71739  1.0000
  C   C705      1.0  0.65353  0.63848  0.71426  1.0000
  C   C706      1.0  0.63266  0.64150  0.72526  1.0000
  C   C707      1.0  0.63277  0.65984  0.73997  1.0000
  C   C708      1.0  0.65354  0.67521  0.74300  1.0000
  H   H709      1.0  0.69045  0.65179  0.70765  1.0000
  H   H710      1.0  0.65370  0.62453  0.70260  1.0000
  H   H711      1.0  0.61670  0.66231  0.74846  1.0000
  H   H712      1.0  0.65339  0.68941  0.75401  1.0000
  H   H713      1.0  0.67961  0.67855  0.62997  1.0000
  H   H714      1.0  0.69461  0.62062  0.74570  1.0000
  H   H715      1.0  0.64186  0.60742  0.78592  1.0000
  C   C709      1.0  0.60454  0.72727  0.88032  1.0000
  C   C710      1.0  0.56378  0.52215  0.60484  1.0000
  C   C711      1.0  0.95588  0.59635  0.92054  1.0000
  C   C712      1.0  0.92853  0.50945  0.77619  1.0000
  C   C713      1.0  0.94373  0.64921  0.71205  1.0000
  C   C714      1.0  0.73039  0.69352  0.93401  1.0000
  C   C715      1.0  0.70879  0.68904  0.95516  1.0000
  C   C716      1.0  0.53052  0.50045  0.71244  1.0000
  C   C717      1.0  0.73748  0.72935  0.94000  1.0000
  C   C718      1.0  0.74476  0.71365  0.92645  1.0000
  H   H716      1.0  0.73480  0.69636  0.83101  1.0000
  H   H717      1.0  0.76156  0.71709  0.91028  1.0000
  C   C719      1.0  0.65601  0.57791  0.90193  1.0000
  C   C720      1.0  0.67489  0.57462  0.88159  1.0000
  C   C721      1.0  0.67264  0.56620  0.84311  1.0000
  C   C722      1.0  0.65175  0.56166  0.82409  1.0000
  C   C723      1.0  0.63295  0.56507  0.84441  1.0000
  C   C724      1.0  0.63501  0.57295  0.88338  1.0000
  H   H718      1.0  0.69108  0.57815  0.89591  1.0000
  H   H719      1.0  0.68718  0.56333  0.82789  1.0000
  H   H720      1.0  0.61665  0.56123  0.83073  1.0000
  H   H721      1.0  0.62029  0.57528  0.89914  1.0000
  H   H722      1.0  0.69749  0.67356  0.96035  1.0000
  H   H723      1.0  0.68481  0.70120  0.98448  1.0000
  C   C725      1.0  0.81929  0.61793  0.98505  1.0000
  H   H724      1.0  0.74859  0.74494  0.93405  1.0000
  S   S248      1.0  0.74787  0.63995  0.01433  1.0000
  H   H725      1.0  0.67829  0.73339  0.89419  1.0000
  Fe  Fe124     1.0  0.96511  0.55088  0.68394  1.0000
  C   C726      1.0  0.59491  0.73054  0.80796  1.0000
  H   H726      1.0  0.82598  0.57449  0.89688  1.0000
  H   H727      1.0  0.95687  0.64522  0.89764  1.0000
  C   C727      1.0  0.83857  0.62578  0.00768  1.0000
  C   C728      1.0  0.93461  0.59563  0.90578  1.0000
  C   C729      1.0  0.92936  0.58918  0.86618  1.0000
  H   H728      1.0  0.74378  0.72297  0.83608  1.0000
  H   H729      1.0  0.56527  0.49989  0.70570  1.0000
  C   C730      1.0  0.85401  0.58282  0.98583  1.0000
  C   C731      1.0  0.81368  0.57116  0.00203  1.0000
  H   H730      1.0  0.91290  0.58850  0.85461  1.0000
  H   H731      1.0  0.92580  0.63133  0.85345  1.0000
  Fe  Fe125     1.0  0.96098  0.59344  0.68514  1.0000
  C   C732      1.0  0.85088  0.58153  0.94315  1.0000
  N   N59       1.0  0.55384  0.53482  0.57794  1.0000
  H   H732      1.0  0.64090  0.63548  0.62590  1.0000
  C   C733      1.0  0.66314  0.70400  0.87238  1.0000
  Fe  Fe126     1.0  0.66977  0.73533  0.00142  1.0000
  S   S249      1.0  0.94932  0.52053  0.65945  1.0000
  H   H733      1.0  0.79254  0.56542  0.94968  1.0000
  H   H734      1.0  0.86564  0.58577  0.92047  1.0000
  C   C734      1.0  0.69071  0.62500  0.83364  1.0000
  C   C735      1.0  0.68258  0.63273  0.86763  1.0000
  C   C736      1.0  0.64476  0.62216  0.84222  1.0000
  C   C737      1.0  0.65938  0.63105  0.87215  1.0000
  H   H735      1.0  0.70871  0.62608  0.83072  1.0000
  H   H736      1.0  0.69413  0.63964  0.89069  1.0000
  H   H737      1.0  0.65272  0.63635  0.89914  1.0000
  Fe  Fe127     1.0  0.93987  0.66534  0.00995  1.0000
  C   C738      1.0  0.79711  0.61242  0.00478  1.0000
  C   C739      1.0  0.70325  0.72359  0.86037  1.0000
  S   S250      1.0  0.64280  0.70550  0.99639  1.0000
  H   H738      1.0  0.57008  0.71928  0.86090  1.0000
  S   S251      1.0  0.67830  0.73357  0.55710  1.0000
  S   S252      1.0  0.73912  0.67419  0.91523  1.0000
  C   C740      1.0  0.73056  0.71059  0.82312  1.0000
  C   C741      1.0  0.61817  0.73765  0.79392  1.0000
  C   C742      1.0  0.68514  0.60793  0.76964  1.0000
  H   H739      1.0  0.69301  0.67931  0.81906  1.0000
  C   C743      1.0  0.96655  0.58432  0.85584  1.0000
  C   C744      1.0  0.72161  0.73091  0.53847  1.0000
  C   C745      1.0  0.62792  0.73500  0.86673  1.0000
  C   C746      1.0  0.80992  0.56981  0.95957  1.0000
  H   H740      1.0  0.67118  0.59700  0.75475  1.0000
  H   H741      1.0  0.82158  0.61574  0.95242  1.0000
  H   H742      1.0  0.97040  0.63174  0.77423  1.0000
  H   H743      1.0  0.72625  0.73686  0.56788  1.0000
  C   C747      1.0  0.58816  0.72515  0.85075  1.0000
  Fe  Fe128     1.0  0.74300  0.61022  0.98822  1.0000
  H   H744      1.0  0.87136  0.58808  0.99564  1.0000
  S   S253      1.0  0.77341  0.59925  0.97841  1.0000
  H   H745      1.0  0.85562  0.62960  0.99248  1.0000
  C   C748      1.0  0.68977  0.69116  0.83559  1.0000
  H   H746      1.0  0.69684  0.59948  0.78043  1.0000
  C   C749      1.0  0.95600  0.66760  0.72693  1.0000
  H   H747      1.0  0.97545  0.68548  0.90530  1.0000
  N   N60       1.0  0.70738  0.70835  0.84058  1.0000
  H   H748      1.0  0.58222  0.52532  0.59481  1.0000
  C   C750      1.0  0.53085  0.55697  0.56966  1.0000
  Fe  Fe129     1.0  0.65804  0.74289  0.70851  1.0000
  H   H749      1.0  0.64869  0.67033  0.63661  1.0000
  H   H750      1.0  0.95087  0.53548  0.80243  1.0000
  C   C751      1.0  0.94436  0.51901  0.80397  1.0000
  H   H751      1.0  0.66333  0.68987  0.59572  1.0000
  H   H752      1.0  0.96529  0.64549  0.58779  1.0000
  C   C752      1.0  0.65347  0.61461  0.80863  1.0000
  S   S254      1.0  0.97474  0.57840  0.63622  1.0000
  C   C753      1.0  0.97171  0.59049  0.89576  1.0000
  C   C754      1.0  0.68119  0.72151  0.87720  1.0000
  H   H753      1.0  0.56194  0.52741  0.80718  1.0000
  N   N61       1.0  0.83551  0.57800  0.01456  1.0000
  Fe  Fe130     1.0  0.68298  0.73973  0.62486  1.0000
  C   C755      1.0  0.95531  0.63873  0.68907  1.0000
  C   C756      1.0  0.66369  0.67541  0.61300  1.0000
  N   N62       1.0  0.66300  0.66010  0.58406  1.0000
  S   S255      1.0  0.95784  0.69737  0.98264  1.0000
  S   S256      1.0  0.94046  0.61479  0.67405  1.0000
  C   C757      1.0  0.94538  0.58387  0.84105  1.0000
  H   H754      1.0  0.53700  0.54358  0.62906  1.0000
  C   C758      1.0  0.71568  0.72491  0.96044  1.0000
  H   H755      1.0  0.58199  0.72891  0.78551  1.0000
  S   S257      1.0  0.69381  0.63338  0.99685  1.0000
  C   C759      1.0  0.54033  0.54480  0.59525  1.0000
  H   H756      1.0  0.65336  0.67540  0.84603  1.0000
  S   S258      1.0  0.95599  0.64056  0.01010  1.0000
  H   H757      1.0  0.92299  0.51872  0.75261  1.0000
  C   C760      1.0  0.65044  0.62532  0.56869  1.0000
  C   C761      1.0  0.82867  0.57511  0.92998  1.0000
  S   S259      1.0  0.68905  0.74558  0.74421  1.0000
  H   H758      1.0  0.60048  0.52324  0.79524  1.0000
  C   C762      1.0  0.56356  0.51239  0.80619  1.0000
  C   C763      1.0  0.63477  0.73988  0.82343  1.0000
  N   N63       1.0  0.96140  0.63841  0.83500  1.0000
  H   H759      1.0  0.64060  0.73724  0.88960  1.0000
  H   H760      1.0  0.52062  0.56526  0.58353  1.0000
  C   C764      1.0  0.95206  0.50720  0.83350  1.0000
  H   H761      1.0  0.97510  0.51112  0.72862  1.0000
  C   C765      1.0  0.67560  0.66582  0.54621  1.0000
  H   H762      1.0  0.58368  0.74494  0.99516  1.0000
  S   S260      1.0  0.70619  0.74481  0.97419  1.0000
  C   C766      1.0  0.97609  0.63539  0.80494  1.0000
  H   H763      1.0  0.65278  0.74579  0.81302  1.0000
  H   H764      1.0  0.92939  0.62803  0.55560  1.0000
  C   C767      1.0  0.96865  0.64313  0.87364  1.0000
  H   H765      1.0  0.68579  0.68159  0.53744  1.0000
  C   C768      1.0  0.63625  0.80104  0.05245  1.0000
  Fe  Fe131     1.0  0.66058  0.91988  0.05382  1.0000
  H   H766      1.0  0.73060  0.83400  0.52255  1.0000
  S   S261      1.0  0.66557  0.93318  0.11579  1.0000
  H   H767      1.0  0.58053  0.78942  0.07738  1.0000
  H   H768      1.0  0.71364  0.99462  0.43067  1.0000
  H   H769      1.0  0.57949  0.92334  0.38447  1.0000
  C   C769      1.0  0.60003  0.91320  0.29317  1.0000
  H   H770      1.0  0.55754  0.98228  0.52184  1.0000
  S   S262      1.0  0.63508  0.77840  0.08330  1.0000
  C   C770      1.0  0.61520  0.92970  0.36616  1.0000
  S   S263      1.0  0.56120  0.96186  0.32397  1.0000
  H   H771      1.0  0.62081  0.96825  0.09870  1.0000
  H   H772      1.0  0.58977  0.95328  0.51600  1.0000
  S   S264      1.0  0.61708  0.97424  0.30746  1.0000
  C   C771      1.0  0.59178  0.92236  0.36010  1.0000
  Fe  Fe132     1.0  0.58662  0.96480  0.26938  1.0000
  S   S265      1.0  0.58069  0.94121  0.22351  1.0000
  Fe  Fe133     1.0  0.59201  0.97453  0.36023  1.0000
  S   S266      1.0  0.59210  0.95978  0.42593  1.0000
  C   C772      1.0  0.75662  0.98065  0.50507  1.0000
  C   C773      1.0  0.62519  0.99018  0.14317  1.0000
  C   C774      1.0  0.59934  0.96909  0.50657  1.0000
  C   C775      1.0  0.63511  0.83586  0.04886  1.0000
  C   C776      1.0  0.50466  0.97161  0.28410  1.0000
  H   H773      1.0  0.64942  0.93506  0.33860  1.0000
  H   H774      1.0  0.51859  0.96527  0.28501  1.0000
  C   C777      1.0  0.63200  0.98239  0.10793  1.0000
  C   C778      1.0  0.60316  0.97639  0.46380  1.0000
  H   H775      1.0  0.70366  0.96967  0.12846  1.0000
  H   H776      1.0  0.55286  0.89056  0.33193  1.0000
  H   H777      1.0  0.63468  0.84886  0.06457  1.0000
  C   C779      1.0  0.63653  0.81828  0.07223  1.0000
  C   C780      1.0  0.72302  0.97006  0.07043  1.0000
  H   H778      1.0  0.63733  0.81788  0.10590  1.0000
  S   S267      1.0  0.58798  0.99645  0.24637  1.0000
  C   C781      1.0  0.64181  0.93559  0.14482  1.0000
  C   C782      1.0  0.64552  0.94732  0.17874  1.0000
  C   C783      1.0  0.62691  0.94946  0.20264  1.0000
  C   C784      1.0  0.60445  0.93962  0.19307  1.0000
  C   C785      1.0  0.60074  0.92788  0.15919  1.0000
  C   C786      1.0  0.61937  0.92600  0.13486  1.0000
  H   H779      1.0  0.66286  0.95483  0.18653  1.0000
  H   H780      1.0  0.62996  0.95863  0.22856  1.0000
  H   H781      1.0  0.58339  0.92020  0.15169  1.0000
  H   H782      1.0  0.61634  0.91685  0.10889  1.0000
  H   H783      1.0  0.71629  0.95367  0.07039  1.0000
  N   N64       1.0  0.58449  0.91454  0.32367  1.0000
  H   H784      1.0  0.63584  0.92010  0.27302  1.0000
  N   N65       1.0  0.73836  0.98174  0.03878  1.0000
  C   C787      1.0  0.63119  0.92893  0.33472  1.0000
  H   H785      1.0  0.59427  0.90696  0.26428  1.0000
  H   H786      1.0  0.55645  0.90770  0.28448  1.0000
  C   C788      1.0  0.71580  0.97903  0.10341  1.0000
  Fe  Fe134     1.0  0.56502  0.99445  0.30394  1.0000
  Fe  Fe135     1.0  0.63768  0.75157  0.05103  1.0000
  C   C789      1.0  0.61567  0.99679  0.45186  1.0000
  C   C790      1.0  0.55985  0.90667  0.31824  1.0000
  H   H787      1.0  0.70919  0.79770  0.51756  1.0000
  H   H788      1.0  0.60886  0.98226  0.16076  1.0000
  H   H789      1.0  0.76346  0.97072  0.48838  1.0000
  H   H790      1.0  0.62085  0.93646  0.39465  1.0000
  C   C791      1.0  0.58151  0.76539  0.04028  1.0000
  C   C792      1.0  0.50861  0.99193  0.29102  1.0000
  H   H791      1.0  0.55047  0.91576  0.33354  1.0000
  C   C793      1.0  0.62360  0.92056  0.29800  1.0000
  H   H792      1.0  0.58318  0.75536  0.06696  1.0000
  C   C794      1.0  0.48252  0.95940  0.27659  1.0000
  H   H793      1.0  0.69845  0.97791  0.50198  1.0000
  H   H794      1.0  0.66626  0.97099  0.06094  1.0000
  C   C795      1.0  0.57995  0.78453  0.04616  1.0000
  C   C796      1.0  0.69565  0.99211  0.49135  1.0000
  H   H795      1.0  0.48670  0.99105  0.37928  1.0000
  C   C797      1.0  0.65961  0.98349  0.04973  1.0000
  H   H796      1.0  0.47946  0.94359  0.27206  1.0000
  N   N66       1.0  0.65257  0.99232  0.08575  1.0000
  Fe  Fe136     1.0  0.69329  0.91802  0.98052  1.0000
  S   S268      1.0  0.66527  0.90897  0.93744  1.0000
  S   S269      1.0  0.73058  0.92404  0.96161  1.0000
  S   S270      1.0  0.64795  0.95839  0.92255  1.0000
  Fe  Fe137     1.0  0.71964  0.94745  0.65042  1.0000
  S   S271      1.0  0.69424  0.91663  0.64531  1.0000
  S   S272      1.0  0.72018  0.97751  0.61576  1.0000
  Fe  Fe138     1.0  0.74148  0.93151  0.72275  1.0000
  S   S273      1.0  0.71897  0.89927  0.72339  1.0000
  S   S274      1.0  0.76723  0.94138  0.77031  1.0000
  Fe  Fe139     1.0  0.72410  0.90491  0.65341  1.0000
  S   S275      1.0  0.72401  0.87938  0.61472  1.0000
  Fe  Fe140     1.0  0.69094  0.91298  0.71543  1.0000
  S   S276      1.0  0.65836  0.89669  0.75451  1.0000
  S   S277      1.0  0.75002  0.93613  0.65290  1.0000
  S   S278      1.0  0.71293  0.94482  0.72055  1.0000
  Fe  Fe141     1.0  0.70770  0.76714  0.68827  1.0000
  S   S279      1.0  0.73327  0.79716  0.69946  1.0000
  S   S280      1.0  0.67630  0.76572  0.65427  1.0000
  H   H797      1.0  0.73100  0.97521  0.91384  1.0000
  H   H798      1.0  0.57965  0.80223  0.94448  1.0000
  H   H799      1.0  0.67587  0.86085  0.65485  1.0000
  C   C798      1.0  0.67822  0.96438  0.80269  1.0000
  C   C799      1.0  0.63877  0.90996  0.74623  1.0000
  C   C800      1.0  0.61640  0.90191  0.76485  1.0000
  C   C801      1.0  0.60094  0.91289  0.75968  1.0000
  C   C802      1.0  0.64563  0.92889  0.72218  1.0000
  H   H800      1.0  0.61102  0.88724  0.78335  1.0000
  H   H801      1.0  0.58361  0.90664  0.77410  1.0000
  H   H802      1.0  0.66282  0.93511  0.70735  1.0000
  C   C803      1.0  0.72458  0.85658  0.64204  1.0000
  C   C804      1.0  0.71211  0.83809  0.62813  1.0000
  C   C805      1.0  0.71402  0.81972  0.64662  1.0000
  C   C806      1.0  0.72880  0.81976  0.67852  1.0000
  C   C807      1.0  0.74100  0.83826  0.69288  1.0000
  C   C808      1.0  0.73870  0.85663  0.67502  1.0000
  H   H803      1.0  0.70127  0.83800  0.60242  1.0000
  H   H804      1.0  0.70483  0.80568  0.63479  1.0000
  H   H805      1.0  0.75255  0.83842  0.71747  1.0000
  H   H806      1.0  0.74862  0.87090  0.68553  1.0000
  C   C809      1.0  0.63346  0.81917  0.98564  1.0000
  H   H807      1.0  0.72121  0.85707  0.96898  1.0000
  H   H808      1.0  0.63183  0.81929  0.95221  1.0000
  C   C810      1.0  0.76445  0.84896  0.57173  1.0000
  C   C811      1.0  0.73995  0.93016  0.90806  1.0000
  C   C812      1.0  0.76334  0.93466  0.89672  1.0000
  C   C813      1.0  0.77146  0.93832  0.85441  1.0000
  C   C814      1.0  0.75623  0.93722  0.82295  1.0000
  C   C815      1.0  0.73280  0.93305  0.83404  1.0000
  C   C816      1.0  0.72469  0.92969  0.87665  1.0000
  H   H809      1.0  0.77525  0.93511  0.92074  1.0000
  H   H810      1.0  0.78960  0.94167  0.84603  1.0000
  H   H811      1.0  0.72093  0.93229  0.80991  1.0000
  H   H812      1.0  0.70662  0.92622  0.88500  1.0000
  H   H813      1.0  0.71865  0.77083  0.56179  1.0000
  C   C817      1.0  0.66447  0.79736  0.73332  1.0000
  H   H814      1.0  0.63291  0.78688  0.70327  1.0000
  C   C818      1.0  0.67586  0.97563  0.91262  1.0000
  C   C819      1.0  0.69453  0.96823  0.91073  1.0000
  Fe  Fe142     1.0  0.64531  0.88816  0.99317  1.0000
  N   N67       1.0  0.70814  0.87390  0.92391  1.0000
  C   C820      1.0  0.71992  0.88141  0.88574  1.0000
  C   C821      1.0  0.68468  0.86674  0.92713  1.0000
  C   C822      1.0  0.70814  0.88253  0.84971  1.0000
  C   C823      1.0  0.67236  0.86768  0.89178  1.0000
  C   C824      1.0  0.68420  0.87582  0.85291  1.0000
  H   H815      1.0  0.60063  0.76642  0.91586  1.0000
  H   H816      1.0  0.73853  0.88719  0.88311  1.0000
  H   H817      1.0  0.67537  0.86060  0.95734  1.0000
  H   H818      1.0  0.71758  0.88911  0.81978  1.0000
  H   H819      1.0  0.65372  0.86251  0.89482  1.0000
  H   H820      1.0  0.67482  0.87708  0.82544  1.0000
  C   C825      1.0  0.60724  0.95065  0.83739  1.0000
  C   C826      1.0  0.76394  0.99002  0.82813  1.0000
  N   N68       1.0  0.58114  0.77274  0.96579  1.0000
  H   H821      1.0  0.73836  0.88359  0.95736  1.0000
  H   H822      1.0  0.66421  0.78215  0.74491  1.0000
  C   C827      1.0  0.63521  0.80173  0.00890  1.0000
  H   H823      1.0  0.67434  0.86820  0.70710  1.0000
  H   H824      1.0  0.64488  0.97721  0.03059  1.0000
  H   H825      1.0  0.63566  0.95452  0.69904  1.0000
  H   H826      1.0  0.73085  0.96363  0.98834  1.0000
  C   C828      1.0  0.64689  0.80004  0.70984  1.0000
  Fe  Fe143     1.0  0.60316  0.97866  0.70629  1.0000
  C   C829      1.0  0.63025  0.93998  0.71755  1.0000
  H   H827      1.0  0.69664  0.81225  0.75831  1.0000
  H   H828      1.0  0.60429  0.97657  0.57021  1.0000
  C   C830      1.0  0.66600  0.85672  0.68596  1.0000
  H   H829      1.0  0.75414  0.96082  0.01773  1.0000
  H   H830      1.0  0.69698  0.84679  0.73116  1.0000
  N   N69       1.0  0.63160  0.95525  0.82434  1.0000
  C   C831      1.0  0.64142  0.94012  0.82709  1.0000
  C   C832      1.0  0.67618  0.99162  0.56027  1.0000
  H   H831      1.0  0.67239  0.93226  0.81764  1.0000
  C   C833      1.0  0.73604  0.98625  0.56672  1.0000
  H   H832      1.0  0.77851  0.98598  0.81382  1.0000
  C   C834      1.0  0.73774  0.99687  0.72687  1.0000
  C   C835      1.0  0.63299  0.83612  0.00566  1.0000
  C   C836      1.0  0.57965  0.79158  0.97125  1.0000
  H   H833      1.0  0.57875  0.77708  0.89923  1.0000
  C   C837      1.0  0.71688  0.98132  0.91270  1.0000
  C   C838      1.0  0.50802  0.98696  0.69588  1.0000
  H   H834      1.0  0.54296  0.99008  0.70879  1.0000
  C   C839      1.0  0.68252  0.81427  0.74123  1.0000
  C   C840      1.0  0.64758  0.81971  0.69466  1.0000
  C   C841      1.0  0.75035  0.99046  0.75736  1.0000
  N   N70       1.0  0.75145  0.99749  0.79598  1.0000
  C   C842      1.0  0.74581  0.97189  0.00493  1.0000
  C   C843      1.0  0.55116  0.99048  0.54411  1.0000
  H   H835      1.0  0.60531  0.95278  0.87108  1.0000
  C   C844      1.0  0.57890  0.79770  0.01151  1.0000
  S   S281      1.0  0.58857  0.94591  0.73268  1.0000
  H   H836      1.0  0.64851  0.85783  0.68258  1.0000
  N   N71       1.0  0.66516  0.83625  0.70315  1.0000
  S   S282      1.0  0.64769  0.75424  0.98243  1.0000
  Fe  Fe144     1.0  0.65268  0.93248  0.96373  1.0000
  H   H837      1.0  0.63473  0.78856  0.99334  1.0000
  H   H838      1.0  0.74282  0.95828  0.55863  1.0000
  H   H839      1.0  0.69638  0.96790  0.79420  1.0000
  H   H840      1.0  0.69162  0.95217  0.91014  1.0000
  S   S283      1.0  0.62965  0.91113  0.01587  1.0000
  C   C845      1.0  0.68262  0.83373  0.72572  1.0000
  C   C846      1.0  0.64469  0.97492  0.81194  1.0000
  H   H841      1.0  0.50380  0.97102  0.69147  1.0000
  C   C847      1.0  0.60791  0.93204  0.73640  1.0000
  S   S284      1.0  0.62747  0.85649  0.97649  1.0000
  S   S285      1.0  0.58481  0.99281  0.65968  1.0000
  H   H842      1.0  0.63397  0.82164  0.67601  1.0000
  H   H843      1.0  0.57862  0.81294  0.01563  1.0000
  H   H844      1.0  0.57087  0.75112  0.92178  1.0000
  H   H845      1.0  0.74980  0.78056  0.61061  1.0000
  S   S286      1.0  0.68209  0.94287  0.00345  1.0000
  C   C848      1.0  0.49132  0.99668  0.69141  1.0000
  C   C849      1.0  0.52074  0.99360  0.59031  1.0000
  H   H846      1.0  0.59956  0.96062  0.81830  1.0000
  H   H847      1.0  0.63116  0.92461  0.83793  1.0000
  H   H848      1.0  0.59731  0.93479  0.83256  1.0000
  H   H849      1.0  0.50325  0.98778  0.60452  1.0000
  C   C850      1.0  0.72058  0.87275  0.96151  1.0000
  C   C851      1.0  0.66813  0.97977  0.80072  1.0000
  H   H850      1.0  0.51745  0.96824  0.55450  1.0000
  S   S287      1.0  0.63822  0.99411  0.67400  1.0000
  H   H851      1.0  0.71203  0.87710  0.98871  1.0000
  C   C852      1.0  0.75740  0.81271  0.59301  1.0000
  C   C853      1.0  0.66482  0.94440  0.81602  1.0000
  C   C854      1.0  0.72279  0.80185  0.53875  1.0000
  H   H852      1.0  0.77054  0.81675  0.61510  1.0000
  C   C855      1.0  0.74562  0.79215  0.59075  1.0000
  H   H853      1.0  0.75219  0.97625  0.84685  1.0000
  C   C856      1.0  0.58208  0.75971  0.99963  1.0000
  H   H854      1.0  0.63708  0.98700  0.81100  1.0000
  N   N72       1.0  0.75180  0.82749  0.56906  1.0000
  C   C857      1.0  0.74500  0.97359  0.54494  1.0000
  H   H855      1.0  0.75811  0.98303  0.98111  1.0000
  H   H856      1.0  0.76943  0.85150  0.60419  1.0000
  C   C858      1.0  0.58292  0.76667  0.92353  1.0000
  C   C859      1.0  0.72814  0.78672  0.56355  1.0000
  H   H857      1.0  0.67702  0.97588  0.56541  1.0000
  H   H858      1.0  0.75924  0.97983  0.74991  1.0000
  H   H859      1.0  0.65802  0.99090  0.56670  1.0000
  C   C860      1.0  0.52870  0.98268  0.56225  1.0000
  H   H860      1.0  0.75369  0.85882  0.56395  1.0000
  H   H861      1.0  0.67827  0.99541  0.79094  1.0000
  H   H862      1.0  0.73703  0.99141  0.69611  1.0000
  C   C861      1.0  0.67984  0.99656  0.91176  1.0000
  S   S288      1.0  0.67467  0.89545  0.03470  1.0000
  C   C862      1.0  0.53029  0.99779  0.70542  1.0000
  C   C863      1.0  0.60756  0.98224  0.53728  1.0000
  H   H863      1.0  0.67311  0.99502  0.02843  1.0000
  H   H864      1.0  0.78012  0.85390  0.54987  1.0000
  C   C864      1.0  0.73496  0.82230  0.54172  1.0000
