data_image0
_chemical_formula_structural       HCNHCHSC3H3C2HCH3SHC2HCSCHNFeSCHNH2FeSFeS2FeSCFeSFeS3HC2FeH2C6H3C4HC2HCH3SHCHFeC6HNHCSH3C2HCH2C2HSH2CHSCSNHC4HCH2CSHCH2C2HC3HFeSCFeCHFeCSCSHFeS2FeS2FeSFeS5CH2C7H3SCH2C2H3CHCHNH3FeNHCH4C2HC4HCHCHCH3SHCHCSHCH3C2H5FeSCFeS2FeSFeS2CHCH3C3HC3HCH2CH2C2HS2CH3NC3H2C2HC2H4C2NH4C3H2C3HCHNCHC2H2C2HFeS2FeSHFeSFeS3H3C4HSHC2HC5H5CHCNC2HSC2H2CH2C3NCH2CHC2HC2H4CH2CHCNCFeSCFeS2FeSFeHS2NC6H3C4SH2C2HC3HSC2H7CH2CH2CHC2HC2H2NCH5CFeSCFeSHFeSFeS3HCHC2HCHC3HNHC7H3CH2NHCHC2HSH3NH3CH3C6H2C3FeH2SFeCFeCHFeS2FeSCFeSFeHS2HC4H3CSHCSC2NC7SH3CHCHCHFeNH3CH2CHCH2CSHS2HSH2CHSCHSCSHFeH3CH3SHC2HFeS2FeS2FeSFeS3C2H2CH2CHCH2C7H4C2HCHFeNCH2CHC6FeHCHC3HC2HCH4NCH4CHC2NSFeNHC2H2CS2C3H3CSH2CH3C2H3C3H
_chemical_formula_sum              "H288 C288 N24 S96 Fe48"
_cell_length_a       43.9703
_cell_length_b       44.06
_cell_length_c       30.1481
_cell_angle_alpha    90.4994
_cell_angle_beta     90.1779
_cell_angle_gamma    120.049

_space_group_name_H-M_alt    "P 1"
_space_group_IT_number       1

loop_
  _space_group_symop_operation_xyz
  'x, y, z'

loop_
  _atom_site_type_symbol
  _atom_site_label
  _atom_site_symmetry_multiplicity
  _atom_site_fract_x
  _atom_site_fract_y
  _atom_site_fract_z
  _atom_site_occupancy
  H   H1        1.0  0.39562  0.00163  0.29838  1.0000
  C   C1        1.0  0.41816  0.00307  0.28180  1.0000
  N   N1        1.0  0.44669  0.03495  0.27235  1.0000
  H   H2        1.0  0.44017  0.06728  0.31933  1.0000
  C   C2        1.0  0.47666  0.00631  0.24267  1.0000
  H   H3        1.0  0.42518  0.06827  0.26360  1.0000
  S   S1        1.0  0.46702  0.03073  0.38074  1.0000
  C   C3        1.0  0.44580  0.06698  0.28344  1.0000
  C   C4        1.0  0.46732  0.99177  0.36665  1.0000
  C   C5        1.0  0.47565  0.03687  0.25280  1.0000
  H   H4        1.0  0.47126  0.09114  0.27681  1.0000
  H   H5        1.0  0.41159  0.22836  0.72925  1.0000
  H   H6        1.0  0.41270  0.17295  0.73329  1.0000
  C   C6        1.0  0.43616  0.22907  0.73587  1.0000
  C   C7        1.0  0.43681  0.19771  0.73810  1.0000
  H   H7        1.0  0.46812  0.03661  0.74859  1.0000
  C   C8        1.0  0.46692  0.01179  0.75408  1.0000
  H   H8        1.0  0.43716  0.23798  0.84307  1.0000
  H   H9        1.0  0.46034  0.21302  0.64502  1.0000
  H   H10       1.0  0.44360  0.18879  0.83367  1.0000
  S   S2        1.0  0.46707  0.15769  0.74892  1.0000
  H   H11       1.0  0.45564  0.26378  0.89273  1.0000
  C   C9        1.0  0.46193  0.25356  0.86237  1.0000
  C   C10       1.0  0.46833  0.19814  0.74625  1.0000
  H   H12       1.0  0.47265  0.15491  0.85078  1.0000
  C   C11       1.0  0.46595  0.20001  0.85623  1.0000
  S   S3        1.0  0.46453  0.29970  0.73664  1.0000
  C   C12       1.0  0.46709  0.26129  0.74133  1.0000
  H   H13       1.0  0.46393  0.27004  0.62911  1.0000
  N   N2        1.0  0.01292  0.46397  0.51608  1.0000
  Fe  Fe1       1.0  0.16461  0.59702  0.06587  1.0000
  S   S4        1.0  0.18309  0.62884  0.12917  1.0000
  C   C13       1.0  0.98966  0.50553  0.42125  1.0000
  H   H14       1.0  0.98088  0.48748  0.51719  1.0000
  N   N3        1.0  0.27180  0.64653  0.24994  1.0000
  H   H15       1.0  0.35424  0.43298  0.16172  1.0000
  H   H16       1.0  0.99559  0.42318  0.46712  1.0000
  Fe  Fe2       1.0  0.40277  0.58684  0.12269  1.0000
  S   S5        1.0  0.38507  0.52907  0.12363  1.0000
  Fe  Fe3       1.0  0.08279  0.51966  0.39904  1.0000
  S   S6        1.0  0.12414  0.50386  0.40354  1.0000
  S   S7        1.0  0.02675  0.47455  0.38910  1.0000
  Fe  Fe4       1.0  0.13849  0.59737  0.40454  1.0000
  S   S8        1.0  0.18379  0.58774  0.40897  1.0000
  C   C14       1.0  0.26497  0.59623  0.18809  1.0000
  Fe  Fe5       1.0  0.15422  0.54756  0.35564  1.0000
  S   S9        1.0  0.17957  0.54022  0.29499  1.0000
  Fe  Fe6       1.0  0.14978  0.54543  0.45656  1.0000
  S   S10       1.0  0.16674  0.53870  0.52535  1.0000
  S   S11       1.0  0.11138  0.56050  0.34728  1.0000
  S   S12       1.0  0.10597  0.55786  0.45599  1.0000
  H   H17       1.0  0.03533  0.53881  0.09742  1.0000
  C   C15       1.0  0.46397  0.48825  0.07199  1.0000
  C   C16       1.0  0.97844  0.46125  0.52069  1.0000
  Fe  Fe7       1.0  0.41977  0.53930  0.06448  1.0000
  H   H18       1.0  0.18561  0.64243  0.22293  1.0000
  H   H19       1.0  0.10418  0.47175  0.50520  1.0000
  C   C17       1.0  0.18166  0.60388  0.17513  1.0000
  C   C18       1.0  0.17852  0.57092  0.16921  1.0000
  C   C19       1.0  0.17755  0.55134  0.20620  1.0000
  C   C20       1.0  0.17886  0.56425  0.24922  1.0000
  C   C21       1.0  0.18127  0.59692  0.25520  1.0000
  C   C22       1.0  0.18321  0.61693  0.21818  1.0000
  H   H20       1.0  0.17760  0.56075  0.13615  1.0000
  H   H21       1.0  0.17584  0.52614  0.20148  1.0000
  H   H22       1.0  0.18244  0.60708  0.28836  1.0000
  C   C23       1.0  0.07842  0.46920  0.50870  1.0000
  C   C24       1.0  0.07369  0.49119  0.53791  1.0000
  C   C25       1.0  0.39672  0.38779  0.14204  1.0000
  C   C26       1.0  0.26561  0.55441  0.51067  1.0000
  H   H23       1.0  0.44786  0.49778  0.13545  1.0000
  C   C27       1.0  0.06379  0.51891  0.19149  1.0000
  C   C28       1.0  0.26436  0.58972  0.23337  1.0000
  H   H24       1.0  0.28359  0.55888  0.48379  1.0000
  C   C29       1.0  0.39939  0.39114  0.09605  1.0000
  H   H25       1.0  0.01477  0.52926  0.42577  1.0000
  H   H26       1.0  0.10612  0.55674  0.23296  1.0000
  H   H27       1.0  0.21313  0.60911  0.50025  1.0000
  S   S13       1.0  0.11929  0.54200  0.06906  1.0000
  H   H28       1.0  0.46463  0.45943  0.17631  1.0000
  C   C30       1.0  0.01721  0.44194  0.48782  1.0000
  H   H29       1.0  0.32096  0.63903  0.52877  1.0000
  Fe  Fe8       1.0  0.34445  0.52465  0.07451  1.0000
  C   C31       1.0  0.04060  0.48830  0.54108  1.0000
  C   C32       1.0  0.38026  0.40282  0.16577  1.0000
  C   C33       1.0  0.26856  0.62794  0.17403  1.0000
  C   C34       1.0  0.09041  0.55257  0.20323  1.0000
  C   C35       1.0  0.05103  0.54278  0.12696  1.0000
  C   C36       1.0  0.09703  0.58079  0.17603  1.0000
  H   H30       1.0  0.07270  0.61951  0.12268  1.0000
  N   N4        1.0  0.36899  0.42376  0.09779  1.0000
  H   H31       1.0  0.26771  0.63279  0.13897  1.0000
  C   C37       1.0  0.98828  0.47552  0.40329  1.0000
  S   S14       1.0  0.35936  0.58136  0.07772  1.0000
  H   H32       1.0  0.07674  0.59679  0.07481  1.0000
  H   H33       1.0  0.37891  0.40114  0.20165  1.0000
  H   H34       1.0  0.05876  0.49679  0.21208  1.0000
  C   C38       1.0  0.20880  0.54409  0.53572  1.0000
  C   C39       1.0  0.04372  0.51393  0.15326  1.0000
  H   H35       1.0  0.26151  0.57626  0.16404  1.0000
  C   C40       1.0  0.36650  0.42089  0.14298  1.0000
  H   H36       1.0  0.27750  0.53566  0.07252  1.0000
  H   H37       1.0  0.11464  0.62385  0.10816  1.0000
  C   C41       1.0  0.40097  0.64536  0.20293  1.0000
  C   C42       1.0  0.37570  0.64746  0.17699  1.0000
  H   H38       1.0  0.22531  0.55262  0.46762  1.0000
  S   S15       1.0  0.29090  0.47663  0.07494  1.0000
  H   H39       1.0  0.41354  0.38086  0.07770  1.0000
  H   H40       1.0  0.40876  0.37487  0.15934  1.0000
  C   C43       1.0  0.08580  0.60539  0.10957  1.0000
  H   H41       1.0  0.26005  0.56457  0.24475  1.0000
  S   S16       1.0  0.44136  0.59761  0.06762  1.0000
  C   C44       1.0  0.23258  0.55085  0.50141  1.0000
  S   S17       1.0  0.42030  0.62042  0.18548  1.0000
  N   N5        1.0  0.07802  0.57550  0.13788  1.0000
  H   H42       1.0  0.36605  0.63204  0.14686  1.0000
  C   C45       1.0  0.26750  0.61517  0.26402  1.0000
  C   C46       1.0  0.25353  0.51167  0.06428  1.0000
  C   C47       1.0  0.46881  0.46271  0.14091  1.0000
  C   C48       1.0  0.45914  0.48432  0.11783  1.0000
  H   H43       1.0  0.05373  0.42806  0.45942  1.0000
  C   C49       1.0  0.05008  0.44448  0.48335  1.0000
  H   H44       1.0  0.02281  0.48790  0.14378  1.0000
  H   H45       1.0  0.11788  0.60690  0.18518  1.0000
  C   C50       1.0  0.22182  0.63391  0.51722  1.0000
  S   S18       1.0  0.14542  0.65136  0.40876  1.0000
  H   H46       1.0  0.26553  0.60924  0.29909  1.0000
  C   C51       1.0  0.25318  0.47965  0.06388  1.0000
  H   H47       1.0  0.22145  0.42386  0.05374  1.0000
  H   H48       1.0  0.33877  0.44982  0.09582  1.0000
  C   C52       1.0  0.35507  0.44317  0.07412  1.0000
  C   C53       1.0  0.38558  0.40959  0.07436  1.0000
  H   H49       1.0  0.22293  0.53714  0.05383  1.0000
  C   C54       1.0  0.22198  0.44868  0.05373  1.0000
  C   C55       1.0  0.22262  0.51249  0.05386  1.0000
  C   C56       1.0  0.34859  0.65053  0.53723  1.0000
  H   H50       1.0  0.37712  0.46797  0.06130  1.0000
  Fe  Fe9       1.0  0.09886  0.55598  0.00910  1.0000
  S   S19       1.0  0.14219  0.61259  0.00902  1.0000
  C   C57       1.0  0.19146  0.44954  0.04299  1.0000
  Fe  Fe10      1.0  0.15145  0.53060  0.02136  1.0000
  C   C58       1.0  0.36838  0.50176  0.83322  1.0000
  H   H51       1.0  0.34402  0.45798  0.73653  1.0000
  Fe  Fe11      1.0  0.17237  0.59521  0.96563  1.0000
  C   C59       1.0  0.27520  0.55136  0.55420  1.0000
  S   S20       1.0  0.12712  0.53971  0.96120  1.0000
  C   C60       1.0  0.24137  0.64168  0.55641  1.0000
  S   S21       1.0  0.40651  0.62216  0.96351  1.0000
  H   H52       1.0  0.15834  0.45495  0.93368  1.0000
  Fe  Fe12      1.0  0.34146  0.55453  0.62949  1.0000
  S   S22       1.0  0.39715  0.56616  0.62143  1.0000
  S   S23       1.0  0.15322  0.48066  0.02444  1.0000
  Fe  Fe13      1.0  0.34618  0.55036  0.73003  1.0000
  S   S24       1.0  0.40194  0.56198  0.72963  1.0000
  S   S25       1.0  0.31705  0.53825  0.79469  1.0000
  Fe  Fe14      1.0  0.40894  0.60248  0.67954  1.0000
  S   S26       1.0  0.19860  0.58450  0.02271  1.0000
  Fe  Fe15      1.0  0.38508  0.52452  0.67180  1.0000
  S   S27       1.0  0.39519  0.47882  0.66521  1.0000
  S   S28       1.0  0.35446  0.59403  0.68466  1.0000
  S   S29       1.0  0.32812  0.50973  0.67548  1.0000
  S   S30       1.0  0.19926  0.61552  0.89925  1.0000
  S   S31       1.0  0.37753  0.53059  0.01542  1.0000
  C   C61       1.0  0.40121  0.48630  0.78521  1.0000
  H   H53       1.0  0.24770  0.62275  0.57004  1.0000
  H   H54       1.0  0.34341  0.49874  0.84341  1.0000
  C   C62       1.0  0.38219  0.59851  0.91649  1.0000
  C   C63       1.0  0.39504  0.61047  0.87387  1.0000
  C   C64       1.0  0.37558  0.59166  0.83620  1.0000
  C   C65       1.0  0.34253  0.56180  0.84109  1.0000
  C   C66       1.0  0.32974  0.54988  0.88368  1.0000
  C   C67       1.0  0.34982  0.56783  0.92130  1.0000
  C   C68       1.0  0.25178  0.54551  0.58872  1.0000
  H   H55       1.0  0.38596  0.60047  0.80342  1.0000
  H   H56       1.0  0.30450  0.52636  0.88745  1.0000
  H   H57       1.0  0.34009  0.55833  0.95413  1.0000
  S   S32       1.0  0.04256  0.54459  0.00075  1.0000
  C   C69       1.0  0.21864  0.54180  0.57944  1.0000
  H   H58       1.0  0.40222  0.47091  0.75767  1.0000
  H   H59       1.0  0.20040  0.53667  0.60619  1.0000
  C   C70       1.0  0.33794  0.46077  0.77165  1.0000
  C   C71       1.0  0.43476  0.47959  0.67895  1.0000
  H   H60       1.0  0.38901  0.41335  0.03883  1.0000
  H   H61       1.0  0.27733  0.51961  0.97141  1.0000
  H   H62       1.0  0.39748  0.53934  0.88543  1.0000
  C   C72       1.0  0.21043  0.54113  0.91873  1.0000
  H   H63       1.0  0.32009  0.47185  0.77068  1.0000
  C   C73       1.0  0.00425  0.50601  0.01753  1.0000
  H   H64       1.0  0.29412  0.58188  0.95905  1.0000
  N   N6        1.0  0.20134  0.50705  0.92620  1.0000
  H   H65       1.0  0.16564  0.47212  0.87776  1.0000
  H   H66       1.0  0.42032  0.63397  0.87001  1.0000
  H   H67       1.0  0.21810  0.47226  0.95000  1.0000
  Fe  Fe16      1.0  0.39643  0.58774  0.02280  1.0000
  N   N7        1.0  0.37005  0.48386  0.79691  1.0000
  H   H68       1.0  0.30408  0.64665  0.83465  1.0000
  C   C74       1.0  0.16621  0.47873  0.91346  1.0000
  H   H69       1.0  0.03728  0.50587  0.56334  1.0000
  H   H70       1.0  0.41242  0.42425  0.66587  1.0000
  H   H71       1.0  0.14622  0.48660  0.92001  1.0000
  H   H72       1.0  0.19164  0.54731  0.90407  1.0000
  C   C75       1.0  0.24389  0.56855  0.93039  1.0000
  C   C76       1.0  0.25891  0.52600  0.95604  1.0000
  H   H73       1.0  0.45699  0.51131  0.79801  1.0000
  C   C77       1.0  0.26819  0.56088  0.94940  1.0000
  C   C78       1.0  0.46594  0.44714  0.68940  1.0000
  C   C79       1.0  0.43556  0.44811  0.67691  1.0000
  C   C80       1.0  0.00583  0.47803  0.03668  1.0000
  H   H74       1.0  0.33878  0.62270  0.59863  1.0000
  C   C81       1.0  0.39882  0.52452  0.85726  1.0000
  H   H75       1.0  0.16762  0.42538  0.03460  1.0000
  C   C82       1.0  0.46466  0.51021  0.69369  1.0000
  H   H76       1.0  0.25890  0.54312  0.62236  1.0000
  C   C83       1.0  0.22528  0.49924  0.94386  1.0000
  H   H77       1.0  0.32409  0.43442  0.78682  1.0000
  H   H78       1.0  0.25068  0.59556  0.92506  1.0000
  H   H79       1.0  0.23463  0.64701  0.81859  1.0000
  S   S33       1.0  0.31666  0.55505  0.56345  1.0000
  H   H80       1.0  0.33550  0.62186  0.79251  1.0000
  C   C84       1.0  0.43098  0.52831  0.84438  1.0000
  H   H81       1.0  0.33811  0.42740  0.04583  1.0000
  C   C85       1.0  0.34960  0.64884  0.80455  1.0000
  S   S34       1.0  0.45074  0.51353  0.04073  1.0000
  H   H82       1.0  0.03101  0.47967  0.04157  1.0000
  C   C86       1.0  0.43222  0.50887  0.80831  1.0000
  H   H83       1.0  0.46609  0.42267  0.68789  1.0000
  H   H84       1.0  0.46430  0.53458  0.69556  1.0000
  H   H85       1.0  0.98713  0.42166  0.95660  1.0000
  C   C87       1.0  0.19163  0.48133  0.04263  1.0000
  C   C88       1.0  0.35860  0.64127  0.57643  1.0000
  H   H86       1.0  0.45483  0.54614  0.86248  1.0000
  H   H87       1.0  0.40188  0.64677  0.61575  1.0000
  H   H88       1.0  0.09579  0.51082  0.55728  1.0000
  H   H89       1.0  0.98604  0.47213  0.92227  1.0000
  H   H90       1.0  0.39988  0.72865  0.10419  1.0000
  Fe  Fe17      1.0  0.37766  0.75773  0.30039  1.0000
  S   S35       1.0  0.36947  0.80408  0.29336  1.0000
  C   C89       1.0  0.21344  0.65826  0.50012  1.0000
  Fe  Fe18      1.0  0.39449  0.77272  0.39907  1.0000
  S   S36       1.0  0.38692  0.81929  0.39968  1.0000
  S   S37       1.0  0.41064  0.75881  0.46333  1.0000
  Fe  Fe19      1.0  0.33981  0.78544  0.35700  1.0000
  S   S38       1.0  0.29050  0.78754  0.36854  1.0000
  Fe  Fe20      1.0  0.41739  0.83404  0.33657  1.0000
  S   S39       1.0  0.46333  0.88911  0.32493  1.0000
  S   S40       1.0  0.34467  0.73737  0.36169  1.0000
  C   C90       1.0  0.37688  0.69174  0.22754  1.0000
  H   H91       1.0  0.29060  0.69949  0.27048  1.0000
  C   C91       1.0  0.35301  0.75799  0.49978  1.0000
  H   H92       1.0  0.43265  0.66406  0.26245  1.0000
  H   H93       1.0  0.30868  0.75859  0.52891  1.0000
  H   H94       1.0  0.34454  0.75820  0.46610  1.0000
  C   C92       1.0  0.41280  0.87760  0.51124  1.0000
  C   C93       1.0  0.25046  0.74848  0.37652  1.0000
  C   C94       1.0  0.22069  0.75099  0.38605  1.0000
  H   H95       1.0  0.16580  0.72321  0.40247  1.0000
  C   C95       1.0  0.18564  0.68778  0.39323  1.0000
  C   C96       1.0  0.21520  0.68497  0.38274  1.0000
  C   C97       1.0  0.24768  0.71537  0.37462  1.0000
  H   H96       1.0  0.22262  0.77646  0.38741  1.0000
  C   C98       1.0  0.41444  0.69431  0.07077  1.0000
  H   H97       1.0  0.27049  0.71323  0.36713  1.0000
  H   H98       1.0  0.41374  0.95870  0.38736  1.0000
  C   C99       1.0  0.41326  0.66570  0.24203  1.0000
  H   H99       1.0  0.34508  0.67285  0.16820  1.0000
  H   H100      1.0  0.21873  0.73510  0.52671  1.0000
  C   C100      1.0  0.40134  0.68890  0.25428  1.0000
  C   C101      1.0  0.40982  0.68837  0.52010  1.0000
  H   H101      1.0  0.28495  0.67029  0.31438  1.0000
  S   S41       1.0  0.42849  0.78924  0.33838  1.0000
  S   S42       1.0  0.36350  0.72274  0.23874  1.0000
  C   C102      1.0  0.44290  0.84484  0.50215  1.0000
  H   H102      1.0  0.36690  0.68207  0.47846  1.0000
  H   H103      1.0  0.42674  0.91892  0.46381  1.0000
  H   H104      1.0  0.39386  0.88229  0.52846  1.0000
  N   N8        1.0  0.45983  0.70826  0.14232  1.0000
  C   C103      1.0  0.36380  0.67061  0.18922  1.0000
  C   C104      1.0  0.44769  0.97370  0.25228  1.0000
  C   C105      1.0  0.27348  0.67229  0.28243  1.0000
  H   H105      1.0  0.23495  0.72897  0.47445  1.0000
  H   H106      1.0  0.44058  0.74100  0.16718  1.0000
  C   C106      1.0  0.38420  0.75769  0.50775  1.0000
  C   C107      1.0  0.18850  0.72084  0.39445  1.0000
  H   H107      1.0  0.41088  0.90294  0.36468  1.0000
  C   C108      1.0  0.45815  0.68625  0.10890  1.0000
  C   C109      1.0  0.43484  0.92770  0.36004  1.0000
  H   H108      1.0  0.47398  0.82753  0.44063  1.0000
  H   H109      1.0  0.41152  0.70497  0.28395  1.0000
  H   H110      1.0  0.18910  0.70201  0.48848  1.0000
  H   H111      1.0  0.44757  0.82416  0.51316  1.0000
  C   C110      1.0  0.43973  0.72395  0.14039  1.0000
  C   C111      1.0  0.43657  0.95933  0.37298  1.0000
  N   N9        1.0  0.22426  0.68955  0.52154  1.0000
  H   H112      1.0  0.39589  0.94678  0.28044  1.0000
  H   H113      1.0  0.47417  0.70730  0.54222  1.0000
  H   H114      1.0  0.24669  0.66803  0.28835  1.0000
  H   H115      1.0  0.44849  0.94980  0.24588  1.0000
  C   C112      1.0  0.21642  0.71522  0.50195  1.0000
  C   C113      1.0  0.33258  0.75802  0.53545  1.0000
  C   C114      1.0  0.43115  0.89807  0.47502  1.0000
  H   H116      1.0  0.42956  0.70737  0.49818  1.0000
  H   H117      1.0  0.21321  0.65956  0.38137  1.0000
  C   C115      1.0  0.41891  0.85100  0.52523  1.0000
  C   C116      1.0  0.37432  0.67427  0.50883  1.0000
  C   C117      1.0  0.45487  0.89107  0.45272  1.0000
  H   H118      1.0  0.47684  0.72613  0.20891  1.0000
  C   C118      1.0  0.43550  0.67898  0.07265  1.0000
  H   H119      1.0  0.27433  0.67738  0.19446  1.0000
  N   N10       1.0  0.45961  0.86401  0.46554  1.0000
  C   C119      1.0  0.46404  0.92824  0.34096  1.0000
  H   H120      1.0  0.46896  0.90690  0.42452  1.0000
  C   C120      1.0  0.41656  0.71703  0.10478  1.0000
  C   C121      1.0  0.41813  0.97199  0.27171  1.0000
  H   H121      1.0  0.19812  0.65194  0.46970  1.0000
  H   H122      1.0  0.47379  0.67350  0.11073  1.0000
  C   C122      1.0  0.27202  0.65297  0.20560  1.0000
  C   C123      1.0  0.39496  0.75759  0.55158  1.0000
  H   H123      1.0  0.36666  0.84229  0.88984  1.0000
  Fe  Fe21      1.0  0.38926  0.85376  0.73285  1.0000
  S   S43       1.0  0.33217  0.81180  0.73401  1.0000
  S   S44       1.0  0.39962  0.90937  0.72335  1.0000
  Fe  Fe22      1.0  0.41222  0.79897  0.73878  1.0000
  S   S45       1.0  0.35746  0.75306  0.74032  1.0000
  H   H124      1.0  0.33699  0.70792  0.86238  1.0000
  Fe  Fe23      1.0  0.34785  0.78247  0.68656  1.0000
  S   S46       1.0  0.31737  0.75832  0.62343  1.0000
  Fe  Fe24      1.0  0.34710  0.78641  0.78758  1.0000
  S   S47       1.0  0.32146  0.77002  0.85508  1.0000
  S   S48       1.0  0.40359  0.82597  0.68146  1.0000
  S   S49       1.0  0.40314  0.83073  0.79019  1.0000
  H   H125      1.0  0.40077  0.67212  0.68592  1.0000
  H   H126      1.0  0.40225  0.72704  0.70900  1.0000
  H   H127      1.0  0.31935  0.83339  0.83798  1.0000
  C   C124      1.0  0.31762  0.88116  0.78515  1.0000
  C   C125      1.0  0.40159  0.92515  0.85052  1.0000
  C   C126      1.0  0.24556  0.66710  0.84423  1.0000
  C   C127      1.0  0.40486  0.75420  0.85170  1.0000
  H   H128      1.0  0.23696  0.67911  0.95405  1.0000
  S   S50       1.0  0.45758  0.65558  0.67794  1.0000
  H   H129      1.0  0.42670  0.77121  0.82916  1.0000
  C   C128      1.0  0.34344  0.75825  0.57928  1.0000
  C   C129      1.0  0.37477  0.75815  0.58729  1.0000
  H   H130      1.0  0.38327  0.75818  0.62103  1.0000
  C   C130      1.0  0.35068  0.69743  0.84356  1.0000
  C   C131      1.0  0.24675  0.68509  0.92051  1.0000
  C   C132      1.0  0.27363  0.71914  0.90987  1.0000
  C   C133      1.0  0.28649  0.72733  0.86640  1.0000
  C   C134      1.0  0.27234  0.70116  0.83355  1.0000
  H   H131      1.0  0.31127  0.90255  0.78744  1.0000
  H   H132      1.0  0.41588  0.75495  0.88511  1.0000
  H   H133      1.0  0.28450  0.73920  0.93553  1.0000
  H   H134      1.0  0.28200  0.70711  0.79996  1.0000
  H   H135      1.0  0.42029  0.90131  0.89717  1.0000
  C   C135      1.0  0.46338  0.94713  0.76796  1.0000
  H   H136      1.0  0.38736  0.76562  0.85376  1.0000
  C   C136      1.0  0.36894  0.86430  0.87118  1.0000
  N   N11       1.0  0.34496  0.88683  0.81758  1.0000
  C   C137      1.0  0.34216  0.85941  0.84175  1.0000
  C   C138      1.0  0.37412  0.91940  0.82176  1.0000
  H   H137      1.0  0.32707  0.88072  0.75109  1.0000
  S   S51       1.0  0.45989  0.79321  0.74463  1.0000
  C   C139      1.0  0.45647  0.69317  0.69543  1.0000
  C   C140      1.0  0.43656  0.94803  0.74405  1.0000
  H   H138      1.0  0.26823  0.68055  0.60807  1.0000
  H   H139      1.0  0.37693  0.94082  0.80138  1.0000
  C   C141      1.0  0.42619  0.72588  0.70891  1.0000
  H   H140      1.0  0.43133  0.72051  0.80653  1.0000
  H   H141      1.0  0.46192  0.67269  0.58136  1.0000
  C   C142      1.0  0.40336  0.70441  0.81265  1.0000
  C   C143      1.0  0.23256  0.65893  0.88766  1.0000
  C   C144      1.0  0.39893  0.89735  0.87531  1.0000
  N   N12       1.0  0.38572  0.71799  0.83489  1.0000
  C   C145      1.0  0.45787  0.75503  0.72307  1.0000
  H   H142      1.0  0.39635  0.68829  0.04313  1.0000
  H   H143      1.0  0.29296  0.85590  0.79047  1.0000
  C   C146      1.0  0.38556  0.66975  0.79691  1.0000
  H   H144      1.0  0.46220  0.92233  0.77349  1.0000
  C   C147      1.0  0.42538  0.69473  0.69574  1.0000
  C   C148      1.0  0.25258  0.67381  0.57783  1.0000
  H   H145      1.0  0.42517  0.95079  0.85249  1.0000
  C   C149      1.0  0.24373  0.69757  0.55980  1.0000
  C   C150      1.0  0.39428  0.65507  0.58605  1.0000
  H   H146      1.0  0.25273  0.72256  0.57655  1.0000
  H   H147      1.0  0.40484  0.83491  0.55340  1.0000
  H   H148      1.0  0.43401  0.66128  0.04637  1.0000
  H   H149      1.0  0.41768  0.98136  0.71899  1.0000
  C   C151      1.0  0.43842  0.98045  0.73729  1.0000
  H   H150      1.0  0.39966  0.65927  0.77884  1.0000
  H   H151      1.0  0.41917  0.75757  0.55802  1.0000
  C   C152      1.0  0.45651  0.69361  0.57041  1.0000
  H   H152      1.0  0.46309  0.71257  0.59839  1.0000
  C   C153      1.0  0.33200  0.66268  0.82820  1.0000
  N   N13       1.0  0.41936  0.67841  0.55814  1.0000
  C   C154      1.0  0.52407  0.22380  0.20521  1.0000
  Fe  Fe25      1.0  0.53149  0.15490  0.32334  1.0000
  S   S52       1.0  0.54677  0.11341  0.31695  1.0000
  C   C155      1.0  0.73336  0.30883  0.53983  1.0000
  Fe  Fe26      1.0  0.53857  0.15724  0.42434  1.0000
  S   S53       1.0  0.55440  0.11620  0.42583  1.0000
  S   S54       1.0  0.53063  0.18007  0.48749  1.0000
  Fe  Fe27      1.0  0.58796  0.14605  0.36796  1.0000
  S   S55       1.0  0.64304  0.15628  0.36027  1.0000
  Fe  Fe28      1.0  0.51162  0.08728  0.37496  1.0000
  H   H153      1.0  0.52047  0.01709  0.34295  1.0000
  S   S56       1.0  0.57545  0.18943  0.37018  1.0000
  S   S57       1.0  0.77363  0.29945  0.42518  1.0000
  N   N14       1.0  0.67587  0.22576  0.24719  1.0000
  C   C156      1.0  0.55331  0.17831  0.53450  1.0000
  C   C157      1.0  0.67834  0.19707  0.37758  1.0000
  C   C158      1.0  0.67650  0.22799  0.37744  1.0000
  C   C159      1.0  0.70598  0.26017  0.39049  1.0000
  C   C160      1.0  0.73696  0.26115  0.40435  1.0000
  C   C161      1.0  0.70969  0.19858  0.38995  1.0000
  H   H154      1.0  0.65264  0.22724  0.36693  1.0000
  H   H155      1.0  0.70458  0.28398  0.39058  1.0000
  H   H156      1.0  0.71147  0.17494  0.38961  1.0000
  C   C162      1.0  0.64228  0.20975  0.26292  1.0000
  C   C163      1.0  0.62828  0.24431  0.21419  1.0000
  C   C164      1.0  0.61799  0.21859  0.24651  1.0000
  C   C165      1.0  0.55254  0.24143  0.27706  1.0000
  S   S58       1.0  0.51610  0.17015  0.25900  1.0000
  H   H157      1.0  0.53072  0.26587  0.16229  1.0000
  H   H158      1.0  0.59406  0.17616  0.49779  1.0000
  C   C166      1.0  0.55763  0.28582  0.22472  1.0000
  C   C167      1.0  0.53177  0.21478  0.24668  1.0000
  H   H159      1.0  0.59134  0.20551  0.25886  1.0000
  C   C168      1.0  0.53689  0.25920  0.19424  1.0000
  C   C169      1.0  0.58450  0.17741  0.53034  1.0000
  C   C170      1.0  0.73867  0.23033  0.40371  1.0000
  H   H160      1.0  0.72024  0.21865  0.24047  1.0000
  S   S59       1.0  0.49317  0.12658  0.37772  1.0000
  C   C171      1.0  0.62899  0.26089  0.48916  1.0000
  C   C172      1.0  0.65069  0.24728  0.47841  1.0000
  H   H161      1.0  0.58112  0.29701  0.29006  1.0000
  H   H162      1.0  0.55840  0.23487  0.30922  1.0000
  H   H163      1.0  0.67127  0.28079  0.17336  1.0000
  H   H164      1.0  0.50804  0.20334  0.18147  1.0000
  H   H165      1.0  0.70166  0.25258  0.48709  1.0000
  H   H166      1.0  0.64096  0.22421  0.45719  1.0000
  H   H167      1.0  0.71288  0.26372  0.20300  1.0000
  C   C173      1.0  0.64181  0.29043  0.51678  1.0000
  H   H168      1.0  0.68838  0.19038  0.27981  1.0000
  H   H169      1.0  0.63398  0.18992  0.28821  1.0000
  C   C174      1.0  0.66268  0.26066  0.19848  1.0000
  H   H170      1.0  0.60957  0.25142  0.20141  1.0000
  H   H171      1.0  0.71650  0.23619  0.29335  1.0000
  C   C175      1.0  0.70151  0.21734  0.26607  1.0000
  H   H172      1.0  0.76254  0.23093  0.41422  1.0000
  C   C176      1.0  0.68623  0.25095  0.21543  1.0000
  C   C177      1.0  0.56546  0.27673  0.26604  1.0000
  H   H173      1.0  0.60219  0.24831  0.47644  1.0000
  C   C178      1.0  0.68500  0.26345  0.49539  1.0000
  C   C179      1.0  0.67625  0.30589  0.53324  1.0000
  H   H174      1.0  0.50001  0.00792  0.22836  1.0000
  H   H175      1.0  0.62527  0.30136  0.52534  1.0000
  N   N15       1.0  0.69753  0.29273  0.52181  1.0000
  C   C180      1.0  0.49663  0.99230  0.34792  1.0000
  H   H176      1.0  0.49836  0.06212  0.24551  1.0000
  H   H177      1.0  0.75156  0.30797  0.51492  1.0000
  H   H178      1.0  0.74785  0.31696  0.25024  1.0000
  H   H179      1.0  0.51393  0.06484  0.54497  1.0000
  H   H180      1.0  0.55747  0.10176  0.54618  1.0000
  C   C181      1.0  0.57335  0.09247  0.62713  1.0000
  Fe  Fe29      1.0  0.54268  0.10491  0.78228  1.0000
  S   S60       1.0  0.59928  0.14853  0.78201  1.0000
  C   C182      1.0  0.58093  0.26284  0.64563  1.0000
  Fe  Fe30      1.0  0.51645  0.15549  0.76033  1.0000
  S   S61       1.0  0.57026  0.20248  0.75724  1.0000
  H   H181      1.0  0.51607  0.17902  0.58003  1.0000
  Fe  Fe31      1.0  0.58344  0.16607  0.72060  1.0000
  S   S62       1.0  0.61513  0.18094  0.65793  1.0000
  Fe  Fe32      1.0  0.58103  0.18108  0.81904  1.0000
  S   S63       1.0  0.60102  0.21522  0.88139  1.0000
  S   S64       1.0  0.52846  0.12047  0.71831  1.0000
  S   S65       1.0  0.52566  0.13585  0.82437  1.0000
  H   H182      1.0  0.60811  0.29481  0.88022  1.0000
  C   C183      1.0  0.51149  0.19485  0.89423  1.0000
  H   H183      1.0  0.69806  0.29586  0.97890  1.0000
  C   C184      1.0  0.55894  0.17877  0.61487  1.0000
  C   C185      1.0  0.59103  0.17968  0.61069  1.0000
  H   H184      1.0  0.54860  0.17848  0.64745  1.0000
  C   C186      1.0  0.49389  0.01093  0.77772  1.0000
  H   H185      1.0  0.56014  0.04150  0.71715  1.0000
  C   C187      1.0  0.48570  0.23645  0.64051  1.0000
  C   C188      1.0  0.51666  0.23512  0.64543  1.0000
  C   C189      1.0  0.49933  0.23032  0.75303  1.0000
  H   H186      1.0  0.51604  0.27237  0.91764  1.0000
  N   N16       1.0  0.54118  0.07348  0.60692  1.0000
  H   H187      1.0  0.51476  0.21031  0.65369  1.0000
  C   C190      1.0  0.71743  0.28836  0.91670  1.0000
  C   C191      1.0  0.69112  0.28243  0.94713  1.0000
  C   C192      1.0  0.65562  0.25919  0.93626  1.0000
  C   C193      1.0  0.64611  0.24167  0.89499  1.0000
  C   C194      1.0  0.67244  0.24725  0.86477  1.0000
  C   C195      1.0  0.70795  0.27059  0.87559  1.0000
  C   C196      1.0  0.52226  0.03097  0.66507  1.0000
  H   H188      1.0  0.63541  0.25501  0.95982  1.0000
  H   H189      1.0  0.66543  0.23394  0.83288  1.0000
  H   H190      1.0  0.60355  0.28847  0.65637  1.0000
  C   C197      1.0  0.49874  0.26194  0.75034  1.0000
  H   H191      1.0  0.62845  0.17930  0.56499  1.0000
  H   H192      1.0  0.73371  0.29473  0.56998  1.0000
  N   N17       1.0  0.54874  0.26480  0.64111  1.0000
  H   H193      1.0  0.48011  0.27594  0.84135  1.0000
  C   C198      1.0  0.55490  0.05035  0.68603  1.0000
  H   H194      1.0  0.72815  0.27501  0.85189  1.0000
  C   C199      1.0  0.58058  0.08144  0.66715  1.0000
  C   C200      1.0  0.54054  0.17895  0.57682  1.0000
  H   H195      1.0  0.48977  0.02861  0.61037  1.0000
  S   S66       1.0  0.53085  0.04966  0.79819  1.0000
  H   H196      1.0  0.52482  0.18032  0.90161  1.0000
  H   H197      1.0  0.57782  0.24342  0.67112  1.0000
  H   H198      1.0  0.59361  0.11650  0.61259  1.0000
  N   N18       1.0  0.47826  0.23273  0.87432  1.0000
  H   H199      1.0  0.52259  0.28666  0.75568  1.0000
  H   H200      1.0  0.52365  0.23090  0.76037  1.0000
  H   H201      1.0  0.66005  0.30558  0.83624  1.0000
  C   C201      1.0  0.60380  0.17901  0.56836  1.0000
  H   H202      1.0  0.54638  0.23928  0.93495  1.0000
  H   H203      1.0  0.60581  0.09720  0.68366  1.0000
  H   H204      1.0  0.52290  0.10414  0.57519  1.0000
  C   C202      1.0  0.52368  0.22807  0.91289  1.0000
  C   C203      1.0  0.51557  0.04330  0.62570  1.0000
  C   C204      1.0  0.48770  0.26838  0.63137  1.0000
  C   C205      1.0  0.50656  0.24671  0.90266  1.0000
  C   C206      1.0  0.53345  0.08663  0.56638  1.0000
  C   C207      1.0  0.48232  0.18061  0.86588  1.0000
  H   H205      1.0  0.50211  0.00680  0.67965  1.0000
  H   H206      1.0  0.58719  0.25487  0.61342  1.0000
  C   C208      1.0  0.63409  0.31564  0.89004  1.0000
  C   C209      1.0  0.55091  0.29598  0.63063  1.0000
  C   C210      1.0  0.52048  0.29830  0.62597  1.0000
  Fe  Fe33      1.0  0.77610  0.35607  0.09350  1.0000
  H   H207      1.0  0.91595  0.44236  0.30643  1.0000
  H   H208      1.0  0.68511  0.43620  0.29348  1.0000
  S   S67       1.0  0.57566  0.40908  0.16044  1.0000
  Fe  Fe34      1.0  0.60125  0.41764  0.09419  1.0000
  C   C211      1.0  0.68707  0.43957  0.18109  1.0000
  Fe  Fe35      1.0  0.52600  0.39415  0.12240  1.0000
  C   C212      1.0  0.67211  0.40380  0.17198  1.0000
  H   H209      1.0  0.90266  0.48326  0.34708  1.0000
  Fe  Fe36      1.0  0.76401  0.40452  0.38009  1.0000
  S   S68       1.0  0.80847  0.39344  0.37606  1.0000
  S   S69       1.0  0.74612  0.41781  0.31666  1.0000
  Fe  Fe37      1.0  0.75872  0.39869  0.48068  1.0000
  S   S70       1.0  0.80310  0.38723  0.48421  1.0000
  C   C213      1.0  0.95840  0.50487  0.43321  1.0000
  Fe  Fe38      1.0  0.83099  0.42985  0.43467  1.0000
  S   S71       1.0  0.88712  0.47522  0.44186  1.0000
  Fe  Fe39      1.0  0.77661  0.35182  0.42563  1.0000
  H   H210      1.0  0.69471  0.45812  0.15417  1.0000
  S   S72       1.0  0.78860  0.44432  0.43525  1.0000
  S   S73       1.0  0.73015  0.35983  0.42542  1.0000
  H   H211      1.0  0.95420  0.42155  0.38360  1.0000
  C   C214      1.0  0.92560  0.47422  0.42765  1.0000
  C   C215      1.0  0.89300  0.44419  0.29737  1.0000
  C   C216      1.0  0.92421  0.44418  0.40966  1.0000
  C   C217      1.0  0.66184  0.38021  0.20702  1.0000
  H   H212      1.0  0.89908  0.42047  0.40506  1.0000
  H   H213      1.0  0.95965  0.52830  0.44677  1.0000
  H   H214      1.0  0.87638  0.40554  0.24463  1.0000
  C   C218      1.0  0.84168  0.42658  0.25140  1.0000
  S   S74       1.0  0.57538  0.33077  0.21248  1.0000
  H   H215      1.0  0.49858  0.43469  0.05487  1.0000
  C   C219      1.0  0.84770  0.49258  0.33523  1.0000
  S   S75       1.0  0.51023  0.33688  0.11865  1.0000
  C   C220      1.0  0.48306  0.44465  0.11838  1.0000
  C   C221      1.0  0.74738  0.34084  0.24386  1.0000
  N   N19       1.0  0.66662  0.39193  0.25002  1.0000
  C   C222      1.0  0.95545  0.44490  0.39745  1.0000
  C   C223      1.0  0.88523  0.46710  0.32055  1.0000
  C   C224      1.0  0.74916  0.35229  0.20022  1.0000
  C   C225      1.0  0.74921  0.38357  0.19242  1.0000
  C   C226      1.0  0.74733  0.40319  0.22824  1.0000
  C   C227      1.0  0.74602  0.39189  0.27192  1.0000
  C   C228      1.0  0.74606  0.36070  0.27963  1.0000
  S   S76       1.0  0.90320  0.40492  0.05467  1.0000
  H   H216      1.0  0.75052  0.39255  0.15879  1.0000
  H   H217      1.0  0.74770  0.42751  0.22209  1.0000
  H   H218      1.0  0.74512  0.35181  0.31322  1.0000
  C   C229      1.0  0.67184  0.39092  0.52829  1.0000
  H   H219      1.0  0.95959  0.44403  0.49462  1.0000
  C   C230      1.0  0.48831  0.44900  0.07263  1.0000
  H   H220      1.0  0.64937  0.35237  0.19960  1.0000
  C   C231      1.0  0.68131  0.42696  0.25935  1.0000
  H   H221      1.0  0.85857  0.51806  0.31806  1.0000
  Fe  Fe40      1.0  0.56220  0.35284  0.15195  1.0000
  N   N20       1.0  0.85588  0.46891  0.31019  1.0000
  H   H222      1.0  0.81878  0.48087  0.33877  1.0000
  H   H223      1.0  0.82439  0.41088  0.22437  1.0000
  H   H224      1.0  0.62023  0.38316  0.51423  1.0000
  C   C232      1.0  0.69183  0.45132  0.22505  1.0000
  H   H225      1.0  0.67748  0.38843  0.49397  1.0000
  H   H226      1.0  0.81230  0.45228  0.26621  1.0000
  C   C233      1.0  0.83479  0.44980  0.27534  1.0000
  H   H227      1.0  0.85883  0.49733  0.36947  1.0000
  C   C234      1.0  0.65368  0.36658  0.28616  1.0000
  H   H228      1.0  0.70336  0.47906  0.23249  1.0000
  H   H229      1.0  0.62579  0.35846  0.29276  1.0000
  C   C235      1.0  0.87087  0.42362  0.26278  1.0000
  S   S77       1.0  0.81996  0.41200  0.09560  1.0000
  H   H230      1.0  0.66799  0.39423  0.13808  1.0000
  S   S78       1.0  0.59212  0.36303  0.08814  1.0000
  S   S79       1.0  0.65128  0.46745  0.07910  1.0000
  H   H231      1.0  0.66331  0.40877  0.06345  1.0000
  S   S80       1.0  0.73758  0.40027  0.54888  1.0000
  H   H232      1.0  0.66947  0.37802  0.31696  1.0000
  H   H233      1.0  0.65553  0.34301  0.27741  1.0000
  C   C236      1.0  0.63944  0.38790  0.53989  1.0000
  H   H234      1.0  0.74378  0.33693  0.54860  1.0000
  S   S81       1.0  0.49001  0.41387  0.14744  1.0000
  C   C237      1.0  0.68804  0.46500  0.06161  1.0000
  H   H235      1.0  0.97604  0.42591  0.06337  1.0000
  S   S82       1.0  0.75080  0.32677  0.15616  1.0000
  C   C238      1.0  0.68731  0.43297  0.05748  1.0000
  S   S83       1.0  0.55292  0.40732  0.05668  1.0000
  H   H236      1.0  0.71970  0.52106  0.05549  1.0000
  Fe  Fe41      1.0  0.54158  0.35181  0.05540  1.0000
  H   H237      1.0  0.87353  0.41116  0.91455  1.0000
  H   H238      1.0  0.74721  0.41624  0.90479  1.0000
  H   H239      1.0  0.51826  0.53315  0.71694  1.0000
  C   C239      1.0  0.86656  0.35276  0.95142  1.0000
  H   H240      1.0  0.75417  0.38364  0.93183  1.0000
  H   H241      1.0  0.63126  0.46260  0.58610  1.0000
  H   H242      1.0  0.66147  0.48448  0.93058  1.0000
  S   S84       1.0  0.82358  0.40463  0.98730  1.0000
  H   H243      1.0  0.93122  0.36683  0.97071  1.0000
  C   C240      1.0  0.60131  0.48553  0.99755  1.0000
  C   C241      1.0  0.62053  0.52483  0.63939  1.0000
  H   H244      1.0  0.54578  0.35471  0.83368  1.0000
  Fe  Fe42      1.0  0.58384  0.40298  0.76772  1.0000
  S   S85       1.0  0.53014  0.39594  0.77713  1.0000
  S   S86       1.0  0.61741  0.41184  0.82869  1.0000
  Fe  Fe43      1.0  0.57523  0.39331  0.66717  1.0000
  S   S87       1.0  0.52054  0.38531  0.66945  1.0000
  S   S88       1.0  0.59107  0.38771  0.59730  1.0000
  Fe  Fe44      1.0  0.54211  0.43037  0.71788  1.0000
  S   S89       1.0  0.53514  0.47819  0.71840  1.0000
  Fe  Fe45      1.0  0.51387  0.35164  0.72827  1.0000
  S   S90       1.0  0.78783  0.46445  0.02165  1.0000
  S   S91       1.0  0.59772  0.44107  0.71164  1.0000
  S   S92       1.0  0.56670  0.35623  0.72259  1.0000
  C   C242      1.0  0.63750  0.50756  0.62293  1.0000
  C   C243      1.0  0.97466  0.44765  0.04910  1.0000
  H   H245      1.0  0.66772  0.50476  0.98435  1.0000
  H   H246      1.0  0.96993  0.52517  0.99706  1.0000
  C   C244      1.0  0.97135  0.50352  0.01155  1.0000
  H   H247      1.0  0.71754  0.40772  0.04400  1.0000
  H   H248      1.0  0.60438  0.45511  0.89599  1.0000
  C   C245      1.0  0.63191  0.39131  0.58433  1.0000
  H   H249      1.0  0.92879  0.46675  0.90136  1.0000
  C   C246      1.0  0.94168  0.44487  0.04225  1.0000
  H   H250      1.0  0.56763  0.43831  0.57322  1.0000
  H   H251      1.0  0.96713  0.45038  0.55356  1.0000
  C   C247      1.0  0.55042  0.34870  0.94571  1.0000
  C   C248      1.0  0.56709  0.48005  0.99668  1.0000
  C   C249      1.0  0.55701  0.36053  0.86668  1.0000
  C   C250      1.0  0.59210  0.38635  0.87332  1.0000
  C   C251      1.0  0.60657  0.39291  0.91624  1.0000
  C   C252      1.0  0.58562  0.37447  0.95256  1.0000
  C   C253      1.0  0.96234  0.41915  0.94610  1.0000
  H   H252      1.0  0.61709  0.49630  0.02746  1.0000
  H   H253      1.0  0.63388  0.41248  0.92136  1.0000
  H   H254      1.0  0.59681  0.37976  0.98566  1.0000
  H   H255      1.0  0.48247  0.47360  0.01412  1.0000
  C   C254      1.0  0.67251  0.36201  0.94065  1.0000
  C   C255      1.0  0.61844  0.47655  0.59849  1.0000
  H   H256      1.0  0.65130  0.40000  0.65158  1.0000
  C   C256      1.0  0.73653  0.39488  0.92950  1.0000
  H   H257      1.0  0.67578  0.37772  0.97010  1.0000
  Fe  Fe46      1.0  0.77914  0.34918  0.99304  1.0000
  N   N21       1.0  0.70105  0.36750  0.91634  1.0000
  C   C257      1.0  0.69691  0.39733  0.56119  1.0000
  H   H258      1.0  0.51378  0.44323  0.62373  1.0000
  H   H259      1.0  0.70837  0.40508  0.63131  1.0000
  C   C258      1.0  0.58245  0.46302  0.59115  1.0000
  H   H260      1.0  0.51954  0.48452  0.60599  1.0000
  C   C259      1.0  0.64975  0.48128  0.96404  1.0000
  C   C260      1.0  0.47887  0.47077  0.04961  1.0000
  C   C261      1.0  0.49591  0.47779  0.70381  1.0000
  C   C262      1.0  0.53623  0.34201  0.90279  1.0000
  C   C263      1.0  0.65681  0.39736  0.61724  1.0000
  C   C264      1.0  0.55962  0.45591  0.92265  1.0000
  Fe  Fe47      1.0  0.79249  0.41705  0.03547  1.0000
  H   H261      1.0  0.73697  0.40673  0.96235  1.0000
  C   C265      1.0  0.68913  0.40027  0.60566  1.0000
  H   H262      1.0  0.71949  0.35159  0.86041  1.0000
  C   C266      1.0  0.71800  0.43237  0.04610  1.0000
  C   C267      1.0  0.92957  0.44454  0.91532  1.0000
  C   C268      1.0  0.54609  0.46493  0.95905  1.0000
  H   H263      1.0  0.52237  0.32324  0.61853  1.0000
  C   C269      1.0  0.52813  0.46498  0.60010  1.0000
  C   C270      1.0  0.96171  0.44750  0.92684  1.0000
  H   H264      1.0  0.66524  0.51784  0.62966  1.0000
  C   C271      1.0  0.59411  0.46224  0.92445  1.0000
  H   H265      1.0  0.64830  0.45795  0.97992  1.0000
  H   H266      1.0  0.51930  0.45995  0.95829  1.0000
  H   H267      1.0  0.84289  0.35333  0.93946  1.0000
  H   H268      1.0  0.57627  0.31943  0.62633  1.0000
  N   N22       1.0  0.61446  0.47689  0.96159  1.0000
  C   C272      1.0  0.49515  0.50930  0.70586  1.0000
  H   H269      1.0  0.54349  0.44381  0.89330  1.0000
  H   H270      1.0  0.55677  0.48681  0.02544  1.0000
  H   H271      1.0  0.91496  0.47130  0.01849  1.0000
  H   H272      1.0  0.63485  0.54855  0.65928  1.0000
  C   C273      1.0  0.94016  0.47308  0.02380  1.0000
  H   H273      1.0  0.57145  0.52399  0.64474  1.0000
  C   C274      1.0  0.69679  0.34780  0.87905  1.0000
  C   C275      1.0  0.58462  0.51083  0.63091  1.0000
  N   N23       1.0  0.56609  0.48034  0.60695  1.0000
  S   S93       1.0  0.74631  0.36247  0.03701  1.0000
  Fe  Fe48      1.0  0.84717  0.39449  0.04737  1.0000
  N   N24       1.0  0.89925  0.38547  0.94233  1.0000
  H   H274      1.0  0.86670  0.33024  0.93483  1.0000
  C   C276      1.0  0.93066  0.38824  0.95397  1.0000
  C   C277      1.0  0.89839  0.41310  0.92321  1.0000
  H   H275      1.0  0.86384  0.34822  0.98777  1.0000
  H   H276      1.0  0.61611  0.33105  0.94777  1.0000
  C   C278      1.0  0.63865  0.33579  0.92808  1.0000
  S   S94       1.0  0.76214  0.31904  0.92786  1.0000
  S   S95       1.0  0.52407  0.32331  0.98973  1.0000
  C   C279      1.0  0.74904  0.46375  0.03722  1.0000
  C   C280      1.0  0.74923  0.49554  0.03983  1.0000
  C   C281      1.0  0.66328  0.32176  0.86520  1.0000
  H   H277      1.0  0.52040  0.45474  0.56566  1.0000
  H   H278      1.0  0.77309  0.51984  0.03282  1.0000
  H   H279      1.0  0.50887  0.32290  0.89755  1.0000
  C   C282      1.0  0.71897  0.49621  0.05246  1.0000
  S   S96       1.0  0.80498  0.33763  0.04958  1.0000
  H   H280      1.0  0.68588  0.32851  0.55516  1.0000
  H   H281      1.0  0.51775  0.96125  0.32069  1.0000
  C   C283      1.0  0.49495  0.96063  0.33516  1.0000
  H   H282      1.0  0.51024  0.87048  0.45576  1.0000
  H   H283      1.0  0.51136  0.73525  0.16959  1.0000
  H   H284      1.0  0.48350  0.69136  0.19039  1.0000
  C   C284      1.0  0.48355  0.85619  0.44074  1.0000
  C   C285      1.0  0.48422  0.71581  0.17957  1.0000
  H   H285      1.0  0.48505  0.86382  0.40533  1.0000
  H   H286      1.0  0.51329  0.77571  0.73334  1.0000
  H   H287      1.0  0.51226  0.72179  0.70771  1.0000
  C   C286      1.0  0.49189  0.97848  0.78473  1.0000
  C   C287      1.0  0.48873  0.75330  0.72251  1.0000
  C   C288      1.0  0.48812  0.72272  0.70816  1.0000
  H   H288      1.0  0.51267  0.97761  0.80300  1.0000
