data_image0
_chemical_formula_structural       CH3NH2C3H2C2HCH3FeSHFeS2FeHFeS3FeS2FeSFeSFeHS2HC3HC2HC2HC6H4C3SH2NH5CH2CH2C3H2CHCHC3HCHCH2C2HCHFeS2FeS2FeS4FeHSFe2SNS2HSHC6H4C6H4CNC2HC6HNH2CHCH2C4H2SHCH3C2HC2H2NC3HCHCHCFeH2SH4FeCHC2H4C2HCH3C2H6SHC2FeSCSCFe2S2FeHFeHS2NHC6H4NC5HCHC5H4NSC2HSC2SCHCHSCHSFeCSCHC2HCS2H2CFeCH8SCHC3SCHCFeC2HC6H4SCH4C5H2SHCH3C2HN2C3H4CSCNSC2HS2C3SH2CHC6H2CH2CHCHCH3C2HSHFeHNCH2C2HCNCSH3CHFe2S2FeCFeHS2FeS2H2CH3SC6H5C3NCHC3H2FeCHC4SC2SCH3C3NHSCSH2C2H2C3SH2CHCH3SFeC2HSFeS2FeS2CFeS3HFeSFeS2FeSFeS2C6H4C7H4C7H4C2H2SHSC2HCHC2H3C2HC4H6NH2C4HC2HCHFeH5CHCHNHCHN2H3FeS2FeSCFeSFeHS2H2FeSFeS2FeCFeS3NH2C2H4C6H4C4HC3HCH3NHCH5C3SH2C4H4NCHCH2CHCH4CH2CHC2H2NCHC2
_chemical_formula_sum              "C288 H288 N24 Fe48 S96"
_cell_length_a       44.7506
_cell_length_b       44.5712
_cell_length_c       31.3123
_cell_angle_alpha    90.1171
_cell_angle_beta     90.5277
_cell_angle_gamma    119.828

_space_group_name_H-M_alt    "P 1"
_space_group_IT_number       1

loop_
  _space_group_symop_operation_xyz
  'x, y, z'

loop_
  _atom_site_type_symbol
  _atom_site_label
  _atom_site_symmetry_multiplicity
  _atom_site_fract_x
  _atom_site_fract_y
  _atom_site_fract_z
  _atom_site_occupancy
  C   C1        1.0  0.43450  0.03187  0.13783  1.0000
  H   H1        1.0  0.40704  0.01648  0.13152  1.0000
  H   H2        1.0  0.43667  0.09680  0.09884  1.0000
  H   H3        1.0  0.43808  0.10608  0.15500  1.0000
  N   N1        1.0  0.45055  0.06724  0.13878  1.0000
  H   H4        1.0  0.40263  0.06719  0.13333  1.0000
  H   H5        1.0  0.44077  0.98687  0.14236  1.0000
  C   C2        1.0  0.43084  0.08497  0.13111  1.0000
  C   C3        1.0  0.45340  0.01491  0.14416  1.0000
  C   C4        1.0  0.45247  0.00165  0.04211  1.0000
  H   H6        1.0  0.43525  0.19273  0.59243  1.0000
  H   H7        1.0  0.43202  0.24329  0.61906  1.0000
  C   C5        1.0  0.45654  0.24397  0.61911  1.0000
  C   C6        1.0  0.45835  0.21527  0.60419  1.0000
  H   H8        1.0  0.46233  0.02178  0.92569  1.0000
  C   C7        1.0  0.45397  0.99150  0.55926  1.0000
  H   H9        1.0  0.42898  0.98879  0.56540  1.0000
  H   H10       1.0  0.44894  0.02285  0.03189  1.0000
  H   H11       1.0  0.46921  0.06551  0.92744  1.0000
  Fe  Fe1       1.0  0.14865  0.54781  0.46150  1.0000
  S   S1        1.0  0.13346  0.58635  0.43946  1.0000
  H   H12       1.0  0.33989  0.47591  0.27952  1.0000
  Fe  Fe2       1.0  0.16021  0.53100  0.37002  1.0000
  S   S2        1.0  0.14423  0.56706  0.34171  1.0000
  S   S3        1.0  0.17870  0.50289  0.32624  1.0000
  Fe  Fe3       1.0  0.17740  0.60342  0.39362  1.0000
  H   H13       1.0  0.38646  0.34204  0.17879  1.0000
  Fe  Fe4       1.0  0.10128  0.54587  0.38971  1.0000
  S   S4        1.0  0.04774  0.53757  0.37216  1.0000
  S   S5        1.0  0.19535  0.56827  0.41988  1.0000
  S   S6        1.0  0.11441  0.50636  0.41401  1.0000
  Fe  Fe5       1.0  0.34733  0.57133  0.18293  1.0000
  S   S7        1.0  0.39919  0.58124  0.20606  1.0000
  S   S8        1.0  0.32038  0.58974  0.22878  1.0000
  Fe  Fe6       1.0  0.36000  0.55269  0.09258  1.0000
  S   S9        1.0  0.41251  0.56111  0.10956  1.0000
  Fe  Fe7       1.0  0.38828  0.53283  0.17036  1.0000
  S   S10       1.0  0.39283  0.48917  0.20292  1.0000
  Fe  Fe8       1.0  0.41849  0.60835  0.14369  1.0000
  H   H14       1.0  0.34615  0.55143  0.30056  1.0000
  S   S11       1.0  0.33448  0.52089  0.15114  1.0000
  S   S12       1.0  0.36780  0.60175  0.12261  1.0000
  H   H15       1.0  0.23137  0.60175  0.23208  1.0000
  C   C8        1.0  0.32134  0.53049  0.31054  1.0000
  C   C9        1.0  0.42961  0.48362  0.20636  1.0000
  C   C10       1.0  0.42727  0.45531  0.22914  1.0000
  H   H16       1.0  0.40343  0.43773  0.24473  1.0000
  C   C11       1.0  0.97697  0.50465  0.36784  1.0000
  C   C12       1.0  0.00043  0.50512  0.26434  1.0000
  H   H17       1.0  0.25402  0.51645  0.37342  1.0000
  C   C13       1.0  0.44546  0.41792  0.13422  1.0000
  C   C14       1.0  0.41018  0.36122  0.16411  1.0000
  H   H18       1.0  0.26658  0.44609  0.29197  1.0000
  C   C15       1.0  0.21661  0.52778  0.29651  1.0000
  C   C16       1.0  0.23857  0.56284  0.30573  1.0000
  C   C17       1.0  0.26999  0.58142  0.28417  1.0000
  C   C18       1.0  0.27972  0.56528  0.25302  1.0000
  C   C19       1.0  0.25750  0.53040  0.24310  1.0000
  C   C20       1.0  0.22604  0.51175  0.26479  1.0000
  H   H19       1.0  0.23166  0.57547  0.33011  1.0000
  H   H20       1.0  0.28705  0.60837  0.29212  1.0000
  H   H21       1.0  0.26464  0.51772  0.21906  1.0000
  H   H22       1.0  0.20913  0.48465  0.25743  1.0000
  C   C21       1.0  0.26977  0.51109  0.35196  1.0000
  C   C22       1.0  0.00576  0.50154  0.37955  1.0000
  C   C23       1.0  0.00031  0.46988  0.39535  1.0000
  S   S13       1.0  0.14869  0.53214  0.53057  1.0000
  H   H23       1.0  0.02209  0.46679  0.40393  1.0000
  H   H24       1.0  0.31295  0.47530  0.23571  1.0000
  N   N2        1.0  0.30847  0.49797  0.29362  1.0000
  H   H25       1.0  0.45325  0.42754  0.24945  1.0000
  H   H26       1.0  0.35077  0.51460  0.25057  1.0000
  H   H27       1.0  0.39417  0.39944  0.15808  1.0000
  H   H28       1.0  0.43380  0.32916  0.16603  1.0000
  H   H29       1.0  0.01085  0.51174  0.23154  1.0000
  C   C24       1.0  0.32893  0.49058  0.26352  1.0000
  H   H30       1.0  0.44881  0.44305  0.12606  1.0000
  H   H31       1.0  0.31196  0.56357  0.35218  1.0000
  C   C25       1.0  0.27682  0.47182  0.30552  1.0000
  H   H32       1.0  0.23129  0.45762  0.34298  1.0000
  H   H33       1.0  0.98395  0.44609  0.30523  1.0000
  C   C26       1.0  0.41441  0.39327  0.15233  1.0000
  C   C27       1.0  0.30222  0.53752  0.33997  1.0000
  C   C28       1.0  0.25692  0.47801  0.33468  1.0000
  H   H34       1.0  0.99740  0.52660  0.27758  1.0000
  H   H35       1.0  0.01987  0.50321  0.28485  1.0000
  C   C29       1.0  0.46744  0.37930  0.13903  1.0000
  H   H36       1.0  0.05272  0.51210  0.45918  1.0000
  C   C30       1.0  0.25660  0.64055  0.18377  1.0000
  H   H37       1.0  0.23602  0.64391  0.28713  1.0000
  C   C31       1.0  0.24341  0.62905  0.22444  1.0000
  C   C32       1.0  0.43673  0.35403  0.15713  1.0000
  C   C33       1.0  0.46068  0.50616  0.18654  1.0000
  H   H38       1.0  0.46301  0.52811  0.16901  1.0000
  C   C34       1.0  0.06292  0.51111  0.52637  1.0000
  H   H39       1.0  0.98080  0.52907  0.35593  1.0000
  C   C35       1.0  0.45552  0.44949  0.23198  1.0000
  H   H40       1.0  0.25506  0.62225  0.15971  1.0000
  H   H41       1.0  0.04956  0.56587  0.46441  1.0000
  C   C36       1.0  0.05620  0.52474  0.48989  1.0000
  C   C37       1.0  0.05458  0.55511  0.49291  1.0000
  H   H42       1.0  0.06515  0.48800  0.52411  1.0000
  C   C38       1.0  0.06017  0.57173  0.53259  1.0000
  H   H43       1.0  0.39047  0.64619  0.23684  1.0000
  Fe  Fe9       1.0  0.16262  0.56474  0.83142  1.0000
  S   S14       1.0  0.19669  0.61864  0.80779  1.0000
  S   S15       1.0  0.19087  0.53658  0.85003  1.0000
  Fe  Fe10      1.0  0.09722  0.56983  0.82784  1.0000
  S   S16       1.0  0.12771  0.62474  0.80475  1.0000
  S   S17       1.0  0.04007  0.55389  0.82997  1.0000
  Fe  Fe11      1.0  0.15378  0.60553  0.76046  1.0000
  S   S18       1.0  0.16466  0.62543  0.69217  1.0000
  S   S19       1.0  0.33764  0.53874  0.02539  1.0000
  S   S20       1.0  0.12154  0.55021  0.78050  1.0000
  S   S21       1.0  0.13566  0.57938  0.88084  1.0000
  Fe  Fe12      1.0  0.35831  0.57369  0.73584  1.0000
  H   H44       1.0  0.08122  0.56471  0.63476  1.0000
  S   S22       1.0  0.30685  0.56682  0.71543  1.0000
  Fe  Fe13      1.0  0.41376  0.55147  0.73152  1.0000
  Fe  Fe14      1.0  0.41732  0.60186  0.79953  1.0000
  S   S23       1.0  0.43298  0.61887  0.86840  1.0000
  N   N3        1.0  0.44134  0.52366  0.84464  1.0000
  S   S24       1.0  0.37655  0.54776  0.78253  1.0000
  S   S25       1.0  0.39096  0.57191  0.68336  1.0000
  H   H45       1.0  0.37790  0.63931  0.66364  1.0000
  S   S26       1.0  0.41868  0.50337  0.71921  1.0000
  H   H46       1.0  0.27952  0.63982  0.80932  1.0000
  C   C39       1.0  0.40566  0.59678  0.91148  1.0000
  C   C40       1.0  0.37235  0.56892  0.90491  1.0000
  C   C41       1.0  0.35175  0.55127  0.94008  1.0000
  C   C42       1.0  0.36426  0.56127  0.98202  1.0000
  C   C43       1.0  0.39756  0.58907  0.98859  1.0000
  C   C44       1.0  0.41809  0.60686  0.95345  1.0000
  H   H47       1.0  0.36256  0.56071  0.87278  1.0000
  H   H48       1.0  0.32605  0.52964  0.93479  1.0000
  H   H49       1.0  0.07329  0.51734  0.59372  1.0000
  H   H50       1.0  0.33498  0.63998  0.80133  1.0000
  C   C45       1.0  0.22256  0.54331  0.81249  1.0000
  C   C46       1.0  0.22254  0.55753  0.77280  1.0000
  C   C47       1.0  0.24872  0.56457  0.74366  1.0000
  C   C48       1.0  0.27519  0.55771  0.75389  1.0000
  C   C49       1.0  0.27549  0.54360  0.79366  1.0000
  C   C50       1.0  0.24893  0.53608  0.82283  1.0000
  H   H51       1.0  0.20207  0.56270  0.76431  1.0000
  H   H52       1.0  0.24862  0.57549  0.71309  1.0000
  H   H53       1.0  0.29575  0.53795  0.80159  1.0000
  H   H54       1.0  0.24892  0.52487  0.85344  1.0000
  C   C51       1.0  0.00278  0.52015  0.85459  1.0000
  N   N4        1.0  0.06689  0.55825  0.56825  1.0000
  C   C52       1.0  0.00395  0.49529  0.88067  1.0000
  C   C53       1.0  0.26823  0.61378  0.86997  1.0000
  H   H55       1.0  0.02812  0.49576  0.88572  1.0000
  C   C54       1.0  0.15080  0.55796  0.57460  1.0000
  C   C55       1.0  0.15962  0.59257  0.56991  1.0000
  C   C56       1.0  0.16292  0.61274  0.60621  1.0000
  C   C57       1.0  0.15715  0.59841  0.64732  1.0000
  C   C58       1.0  0.14739  0.56354  0.65184  1.0000
  C   C59       1.0  0.14430  0.54345  0.61560  1.0000
  H   H56       1.0  0.24283  0.58807  0.54960  1.0000
  N   N5        1.0  0.23464  0.59417  0.61530  1.0000
  H   H57       1.0  0.14295  0.55224  0.68333  1.0000
  H   H58       1.0  0.13733  0.51662  0.61944  1.0000
  C   C60       1.0  0.28844  0.62903  0.83403  1.0000
  H   H59       1.0  0.27029  0.57959  0.96446  1.0000
  C   C61       1.0  0.41640  0.52797  0.91037  1.0000
  H   H60       1.0  0.23671  0.55385  0.92597  1.0000
  H   H61       1.0  0.17064  0.63977  0.60250  1.0000
  C   C62       1.0  0.25630  0.64043  0.56444  1.0000
  C   C63       1.0  0.31946  0.62907  0.82956  1.0000
  C   C64       1.0  0.44382  0.54103  0.88179  1.0000
  C   C65       1.0  0.30900  0.59889  0.89648  1.0000
  H   H62       1.0  0.04822  0.57477  0.62013  1.0000
  H   H63       1.0  0.44396  0.62814  0.95877  1.0000
  S   S27       1.0  0.45569  0.60468  0.75083  1.0000
  H   H64       1.0  0.24358  0.61276  0.87256  1.0000
  C   C66       1.0  0.22394  0.55814  0.62563  1.0000
  H   H65       1.0  0.41854  0.54162  0.94001  1.0000
  H   H66       1.0  0.31689  0.58656  0.92032  1.0000
  H   H67       1.0  0.02832  0.55493  0.94521  1.0000
  C   C67       1.0  0.38314  0.48090  0.86134  1.0000
  C   C68       1.0  0.07247  0.57616  0.60941  1.0000
  H   H68       1.0  0.36406  0.48813  0.92135  1.0000
  C   C69       1.0  0.25570  0.58072  0.93617  1.0000
  C   C70       1.0  0.04609  0.58121  0.93535  1.0000
  H   H69       1.0  0.42576  0.44363  0.70396  1.0000
  H   H70       1.0  0.16473  0.60404  0.53849  1.0000
  N   N6        1.0  0.27860  0.59894  0.90057  1.0000
  C   C71       1.0  0.33002  0.61417  0.86110  1.0000
  C   C72       1.0  0.24460  0.60580  0.57462  1.0000
  C   C73       1.0  0.45140  0.46595  0.70357  1.0000
  H   H71       1.0  0.00765  0.58612  0.89912  1.0000
  C   C74       1.0  0.38579  0.49789  0.89987  1.0000
  H   H72       1.0  0.09286  0.60374  0.60662  1.0000
  C   C75       1.0  0.23594  0.61632  0.64658  1.0000
  H   H73       1.0  0.40920  0.48076  0.80414  1.0000
  C   C76       1.0  0.06787  0.52809  0.56562  1.0000
  Fe  Fe15      1.0  0.43005  0.62513  0.70605  1.0000
  H   H74       1.0  0.20623  0.54898  0.65329  1.0000
  H   H75       1.0  0.05929  0.59557  0.53464  1.0000
  S   S28       1.0  0.39630  0.62764  0.75673  1.0000
  H   H76       1.0  0.22684  0.60701  0.67848  1.0000
  H   H77       1.0  0.35402  0.61387  0.85769  1.0000
  H   H78       1.0  0.24127  0.59383  0.94619  1.0000
  H   H79       1.0  0.97474  0.45026  0.91986  1.0000
  Fe  Fe16      1.0  0.16778  0.63262  0.85417  1.0000
  C   C77       1.0  0.03440  0.59883  0.90957  1.0000
  H   H80       1.0  0.22077  0.64091  0.93436  1.0000
  C   C78       1.0  0.45566  0.49919  0.70954  1.0000
  C   C79       1.0  0.41141  0.49413  0.83404  1.0000
  H   H81       1.0  0.40758  0.59663  0.02078  1.0000
  H   H82       1.0  0.35832  0.63010  0.59079  1.0000
  H   H83       1.0  0.36434  0.63446  0.03212  1.0000
  H   H84       1.0  0.35933  0.45774  0.85245  1.0000
  C   C80       1.0  0.97104  0.51906  0.84850  1.0000
  C   C81       1.0  0.08090  0.59697  0.94664  1.0000
  H   H85       1.0  0.33958  0.63801  0.68341  1.0000
  C   C82       1.0  0.97360  0.46952  0.90002  1.0000
  H   H86       1.0  0.20961  0.54061  0.59835  1.0000
  H   H87       1.0  0.24686  0.55564  0.63367  1.0000
  H   H88       1.0  0.09042  0.58313  0.96569  1.0000
  C   C83       1.0  0.05786  0.63191  0.89497  1.0000
  C   C84       1.0  0.10359  0.63032  0.93203  1.0000
  H   H89       1.0  0.96978  0.53811  0.82838  1.0000
  H   H90       1.0  0.46487  0.54934  0.78747  1.0000
  H   H91       1.0  0.46693  0.56528  0.88943  1.0000
  H   H92       1.0  0.13074  0.64220  0.94037  1.0000
  H   H93       1.0  0.04877  0.64473  0.87343  1.0000
  H   H94       1.0  0.34752  0.90320  0.41903  1.0000
  S   S29       1.0  0.40211  0.77813  0.50164  1.0000
  H   H95       1.0  0.40897  0.67342  0.13069  1.0000
  C   C85       1.0  0.45873  0.92301  0.42948  1.0000
  C   C86       1.0  0.36239  0.88351  0.36510  1.0000
  Fe  Fe17      1.0  0.42356  0.82587  0.46086  1.0000
  S   S30       1.0  0.44443  0.83144  0.39398  1.0000
  C   C87       1.0  0.42732  0.94034  0.06118  1.0000
  S   S31       1.0  0.38032  0.83654  0.47256  1.0000
  C   C88       1.0  0.46315  0.75942  0.11509  1.0000
  Fe  Fe18      1.0  0.34118  0.76815  0.07569  1.0000
  Fe  Fe19      1.0  0.36178  0.79897  0.16718  1.0000
  S   S32       1.0  0.41302  0.84259  0.14686  1.0000
  S   S33       1.0  0.34154  0.78617  0.23487  1.0000
  Fe  Fe20      1.0  0.38425  0.84752  0.09037  1.0000
  H   H96       1.0  0.46387  0.92498  0.08093  1.0000
  Fe  Fe21      1.0  0.41564  0.80188  0.10702  1.0000
  H   H97       1.0  0.28561  0.72613  0.19818  1.0000
  S   S34       1.0  0.33190  0.80581  0.11349  1.0000
  S   S35       1.0  0.36688  0.75825  0.13172  1.0000
  N   N7        1.0  0.43707  0.74546  0.22373  1.0000
  H   H98       1.0  0.26888  0.73699  0.26544  1.0000
  C   C89       1.0  0.37041  0.79821  0.27874  1.0000
  C   C90       1.0  0.35734  0.78991  0.32031  1.0000
  C   C91       1.0  0.37975  0.79945  0.35589  1.0000
  C   C92       1.0  0.41541  0.81728  0.35011  1.0000
  C   C93       1.0  0.42846  0.82555  0.30855  1.0000
  C   C94       1.0  0.40606  0.81617  0.27299  1.0000
  H   H99       1.0  0.32982  0.77640  0.32517  1.0000
  H   H100      1.0  0.36941  0.79312  0.38777  1.0000
  H   H101      1.0  0.35679  0.67668  0.23445  1.0000
  H   H102      1.0  0.41638  0.82327  0.24121  1.0000
  N   N8        1.0  0.26074  0.68735  0.24569  1.0000
  C   C95       1.0  0.43283  0.69731  0.12704  1.0000
  C   C96       1.0  0.43225  0.72815  0.11962  1.0000
  C   C97       1.0  0.46431  0.69776  0.13026  1.0000
  C   C98       1.0  0.43937  0.69297  0.23126  1.0000
  C   C99       1.0  0.38466  0.69131  0.23229  1.0000
  H   H103      1.0  0.40792  0.72749  0.11666  1.0000
  C   C100      1.0  0.22964  0.67609  0.45823  1.0000
  H   H104      1.0  0.24048  0.70149  0.29854  1.0000
  C   C101      1.0  0.24355  0.68235  0.41728  1.0000
  C   C102      1.0  0.27719  0.70960  0.41089  1.0000
  C   C103      1.0  0.29707  0.73019  0.44553  1.0000
  C   C104      1.0  0.28300  0.72403  0.48642  1.0000
  C   C105      1.0  0.24911  0.69731  0.49254  1.0000
  H   H105      1.0  0.45423  0.67973  0.23151  1.0000
  H   H106      1.0  0.28809  0.71453  0.37931  1.0000
  H   H107      1.0  0.32317  0.75084  0.44058  1.0000
  H   H108      1.0  0.28628  0.71734  0.30044  1.0000
  N   N9        1.0  0.42554  0.90957  0.40717  1.0000
  S   S36       1.0  0.38977  0.89913  0.06800  1.0000
  C   C106      1.0  0.40198  0.72730  0.22753  1.0000
  C   C107      1.0  0.26424  0.71203  0.27908  1.0000
  H   H109      1.0  0.45604  0.83978  0.30394  1.0000
  S   S37       1.0  0.46412  0.79854  0.10396  1.0000
  C   C108      1.0  0.38899  0.88041  0.34664  1.0000
  C   C109      1.0  0.40355  0.67412  0.23390  1.0000
  S   S38       1.0  0.21900  0.65651  0.37389  1.0000
  C   C110      1.0  0.42065  0.89383  0.36816  1.0000
  H   H110      1.0  0.43903  0.79075  0.19831  1.0000
  C   C111      1.0  0.40003  0.91387  0.42480  1.0000
  H   H111      1.0  0.38721  0.74062  0.22647  1.0000
  S   S39       1.0  0.45817  0.86139  0.51338  1.0000
  C   C112      1.0  0.27178  0.67568  0.17426  1.0000
  H   H112      1.0  0.28198  0.68498  0.14261  1.0000
  S   S40       1.0  0.46677  0.66019  0.13995  1.0000
  Fe  Fe22      1.0  0.36133  0.79150  0.51732  1.0000
  C   C113      1.0  0.42357  0.96831  0.04707  1.0000
  S   S41       1.0  0.30748  0.74848  0.53072  1.0000
  C   C114      1.0  0.27370  0.69887  0.20584  1.0000
  H   H113      1.0  0.38496  0.86714  0.31619  1.0000
  C   C115      1.0  0.36796  0.90057  0.40430  1.0000
  C   C116      1.0  0.45583  0.72888  0.22633  1.0000
  H   H114      1.0  0.33752  0.87263  0.34906  1.0000
  C   C117      1.0  0.24596  0.65298  0.25534  1.0000
  S   S42       1.0  0.30534  0.71633  0.04274  1.0000
  S   S43       1.0  0.39112  0.80993  0.04857  1.0000
  H   H115      1.0  0.40414  0.92702  0.45533  1.0000
  H   H116      1.0  0.44107  0.89089  0.35392  1.0000
  C   C118      1.0  0.46049  0.94615  0.07009  1.0000
  Fe  Fe23      1.0  0.41376  0.86960  0.52719  1.0000
  C   C119      1.0  0.45473  0.78308  0.21839  1.0000
  H   H117      1.0  0.34641  0.70892  0.52715  1.0000
  H   H118      1.0  0.20356  0.65543  0.46325  1.0000
  H   H119      1.0  0.45524  0.92187  0.46460  1.0000
  H   H120      1.0  0.23769  0.69305  0.52378  1.0000
  H   H121      1.0  0.39803  0.96413  0.04010  1.0000
  H   H122      1.0  0.45973  0.79602  0.25007  1.0000
  H   H123      1.0  0.34867  0.65427  0.52417  1.0000
  H   H124      1.0  0.26366  0.64945  0.53200  1.0000
  S   S44       1.0  0.19345  0.68185  0.89455  1.0000
  C   C120      1.0  0.24717  0.65100  0.63741  1.0000
  H   H125      1.0  0.12816  0.67954  0.86105  1.0000
  C   C121      1.0  0.35613  0.71553  0.59497  1.0000
  C   C122      1.0  0.45531  0.91662  0.63772  1.0000
  C   C123      1.0  0.35738  0.65397  0.59215  1.0000
  S   S45       1.0  0.38990  0.82545  0.57313  1.0000
  C   C124      1.0  0.45622  0.96237  0.54675  1.0000
  H   H126      1.0  0.26612  0.68997  0.58859  1.0000
  C   C125      1.0  0.25764  0.66315  0.59614  1.0000
  Fe  Fe24      1.0  0.43187  0.81439  0.55550  1.0000
  C   C126      1.0  0.36537  0.65509  0.66972  1.0000
  C   C127      1.0  0.11621  0.68196  0.89085  1.0000
  H   H127      1.0  0.37568  0.73568  0.01876  1.0000
  C   C128      1.0  0.22555  0.69136  0.93442  1.0000
  C   C129      1.0  0.24250  0.72447  0.95336  1.0000
  C   C130      1.0  0.26740  0.73277  0.98601  1.0000
  C   C131      1.0  0.27535  0.70785  0.00040  1.0000
  C   C132      1.0  0.25850  0.67474  0.98134  1.0000
  C   C133      1.0  0.23383  0.66654  0.94841  1.0000
  H   H128      1.0  0.23632  0.74386  0.94279  1.0000
  H   H129      1.0  0.28010  0.75832  0.00036  1.0000
  H   H130      1.0  0.42745  0.90491  0.63731  1.0000
  H   H131      1.0  0.38178  0.67510  0.69368  1.0000
  S   S46       1.0  0.45089  0.66111  0.64906  1.0000
  C   C134      1.0  0.44894  0.69939  0.64070  1.0000
  H   H132      1.0  0.44514  0.74754  0.55793  1.0000
  H   H133      1.0  0.45465  0.86878  0.62461  1.0000
  H   H134      1.0  0.35621  0.73995  0.59625  1.0000
  H   H135      1.0  0.24657  0.66799  0.66191  1.0000
  C   C135      1.0  0.38041  0.66215  0.02757  1.0000
  C   C136      1.0  0.38685  0.71894  0.02001  1.0000
  C   C137      1.0  0.45126  0.72100  0.67455  1.0000
  C   C138      1.0  0.35188  0.66745  0.55445  1.0000
  C   C139      1.0  0.44641  0.70905  0.59869  1.0000
  H   H136      1.0  0.33815  0.67260  0.02905  1.0000
  H   H137      1.0  0.13726  0.69677  0.91452  1.0000
  S   S47       1.0  0.41790  0.92156  0.54269  1.0000
  H   H138      1.0  0.46411  0.96779  0.64985  1.0000
  C   C140      1.0  0.44643  0.74011  0.59046  1.0000
  H   H139      1.0  0.26434  0.65524  0.99240  1.0000
  H   H140      1.0  0.44502  0.69267  0.57230  1.0000
  H   H141      1.0  0.45378  0.71410  0.70696  1.0000
  C   C141      1.0  0.35092  0.69825  0.55606  1.0000
  C   C142      1.0  0.45221  0.75252  0.66625  1.0000
  H   H142      1.0  0.36608  0.71519  0.66208  1.0000
  N   N10       1.0  0.36205  0.67088  0.63027  1.0000
  N   N11       1.0  0.43666  0.71182  0.01885  1.0000
  C   C143      1.0  0.45007  0.76234  0.62419  1.0000
  C   C144      1.0  0.36164  0.70137  0.63203  1.0000
  C   C145      1.0  0.42245  0.73279  0.01642  1.0000
  H   H143      1.0  0.43871  0.76056  0.01284  1.0000
  H   H144      1.0  0.10337  0.69733  0.88419  1.0000
  H   H145      1.0  0.45534  0.76972  0.69249  1.0000
  H   H146      1.0  0.42745  0.66032  0.02591  1.0000
  C   C146      1.0  0.41613  0.67688  0.02388  1.0000
  S   S48       1.0  0.45387  0.80328  0.61499  1.0000
  C   C147      1.0  0.36576  0.68343  0.02577  1.0000
  N   N12       1.0  0.09185  0.64748  0.90694  1.0000
  S   S49       1.0  0.73138  0.28372  0.37720  1.0000
  C   C148      1.0  0.49193  0.27322  0.14616  1.0000
  C   C149      1.0  0.48954  0.23058  0.09473  1.0000
  H   H147      1.0  0.49820  0.11452  0.14523  1.0000
  S   S50       1.0  0.55407  0.14652  0.07785  1.0000
  S   S51       1.0  0.52307  0.04911  0.04718  1.0000
  C   C150      1.0  0.60900  0.27478  0.10316  1.0000
  C   C151      1.0  0.79923  0.29268  0.43959  1.0000
  C   C152      1.0  0.48899  0.03438  0.15030  1.0000
  S   S52       1.0  0.49216  0.17199  0.11833  1.0000
  H   H148      1.0  0.51103  0.29122  0.48721  1.0000
  H   H149      1.0  0.58887  0.24282  0.53207  1.0000
  C   C153      1.0  0.49956  0.22545  0.16965  1.0000
  H   H150      1.0  0.76394  0.22914  0.49034  1.0000
  C   C154      1.0  0.70773  0.27548  0.42497  1.0000
  C   C155      1.0  0.68062  0.24184  0.43281  1.0000
  C   C156      1.0  0.66381  0.23328  0.47247  1.0000
  C   C157      1.0  0.67419  0.25834  0.50473  1.0000
  C   C158      1.0  0.70061  0.29224  0.49640  1.0000
  C   C159      1.0  0.71720  0.30086  0.45665  1.0000
  H   H151      1.0  0.67314  0.22202  0.40846  1.0000
  H   H152      1.0  0.64354  0.20708  0.47848  1.0000
  C   C160      1.0  0.78374  0.30276  0.50828  1.0000
  H   H153      1.0  0.56114  0.27427  0.11043  1.0000
  H   H154      1.0  0.74089  0.23382  0.44535  1.0000
  C   C161      1.0  0.58873  0.28894  0.11599  1.0000
  H   H155      1.0  0.79489  0.27554  0.41268  1.0000
  C   C162      1.0  0.55169  0.26017  0.52559  1.0000
  H   H156      1.0  0.53298  0.08577  0.15411  1.0000
  C   C163      1.0  0.49477  0.21246  0.12766  1.0000
  H   H157      1.0  0.48541  0.22066  0.06235  1.0000
  H   H158      1.0  0.59730  0.24955  0.08762  1.0000
  H   H159      1.0  0.50418  0.02160  0.15308  1.0000
  C   C164      1.0  0.50518  0.07040  0.15070  1.0000
  C   C165      1.0  0.48768  0.26055  0.10407  1.0000
  H   H160      1.0  0.70879  0.31178  0.52122  1.0000
  S   S53       1.0  0.48701  0.30963  0.15668  1.0000
  H   H161      1.0  0.50333  0.21146  0.19540  1.0000
  Fe  Fe25      1.0  0.51325  0.15940  0.05937  1.0000
  H   H162      1.0  0.50181  0.26533  0.21137  1.0000
  N   N13       1.0  0.54555  0.28716  0.53054  1.0000
  C   C166      1.0  0.49873  0.25600  0.17880  1.0000
  H   H163      1.0  0.49097  0.25499  0.52345  1.0000
  H   H164      1.0  0.53114  0.23484  0.51551  1.0000
  C   C167      1.0  0.51145  0.28252  0.52032  1.0000
  C   C168      1.0  0.48564  0.00742  0.05110  1.0000
  H   H165      1.0  0.66038  0.28244  0.10060  1.0000
  C   C169      1.0  0.64449  0.29329  0.11049  1.0000
  N   N14       1.0  0.77869  0.28092  0.47474  1.0000
  C   C170      1.0  0.48541  0.08649  0.14509  1.0000
  S   S54       1.0  0.63724  0.22248  0.03884  1.0000
  H   H166      1.0  0.48230  0.27362  0.07861  1.0000
  H   H167      1.0  0.51488  0.98351  0.07202  1.0000
  H   H168      1.0  0.69889  0.28849  0.03997  1.0000
  C   C171      1.0  0.75239  0.24427  0.47740  1.0000
  H   H169      1.0  0.73081  0.24052  0.49827  1.0000
  Fe  Fe26      1.0  0.61067  0.19859  0.58065  1.0000
  Fe  Fe27      1.0  0.57950  0.16562  0.66791  1.0000
  S   S55       1.0  0.52906  0.12589  0.63868  1.0000
  S   S56       1.0  0.59567  0.17291  0.73793  1.0000
  Fe  Fe28      1.0  0.56101  0.11968  0.58798  1.0000
  C   C172      1.0  0.53973  0.05875  0.92626  1.0000
  Fe  Fe29      1.0  0.53477  0.17024  0.59822  1.0000
  H   H170      1.0  0.54355  0.00175  0.53782  1.0000
  S   S57       1.0  0.61174  0.15695  0.62010  1.0000
  S   S58       1.0  0.58246  0.21014  0.63135  1.0000
  Fe  Fe30      1.0  0.52046  0.14648  0.96504  1.0000
  S   S59       1.0  0.56259  0.13410  0.97777  1.0000
  S   S60       1.0  0.49822  0.14019  0.89814  1.0000
  H   H171      1.0  0.50478  0.29758  0.54288  1.0000
  H   H172      1.0  0.67862  0.24475  0.89085  1.0000
  C   C173      1.0  0.48383  0.02417  0.56439  1.0000
  H   H173      1.0  0.59635  0.09433  0.84478  1.0000
  H   H174      1.0  0.50150  0.21516  0.71803  1.0000
  H   H175      1.0  0.61473  0.24530  0.77611  1.0000
  S   S61       1.0  0.54359  0.19472  0.00608  1.0000
  C   C174      1.0  0.56812  0.16517  0.78166  1.0000
  C   C175      1.0  0.53247  0.15045  0.77633  1.0000
  C   C176      1.0  0.51141  0.14389  0.81224  1.0000
  C   C177      1.0  0.52577  0.15174  0.85366  1.0000
  C   C178      1.0  0.56144  0.16678  0.85889  1.0000
  C   C179      1.0  0.58250  0.17349  0.82301  1.0000
  H   H176      1.0  0.52108  0.14379  0.74465  1.0000
  H   H177      1.0  0.64111  0.28645  0.75083  1.0000
  H   H178      1.0  0.57284  0.17305  0.89058  1.0000
  H   H179      1.0  0.61008  0.18498  0.82740  1.0000
  H   H180      1.0  0.59214  0.07004  0.91762  1.0000
  C   C180      1.0  0.61053  0.29654  0.54938  1.0000
  C   C181      1.0  0.80294  0.30299  0.95625  1.0000
  C   C182      1.0  0.52725  0.26951  0.73390  1.0000
  N   N15       1.0  0.58644  0.26425  0.74204  1.0000
  C   C183      1.0  0.52570  0.23779  0.72720  1.0000
  H   H181      1.0  0.62047  0.24764  0.71909  1.0000
  C   C184      1.0  0.79603  0.29938  0.00001  1.0000
  C   C185      1.0  0.51942  0.24481  0.61993  1.0000
  C   C186      1.0  0.51780  0.27409  0.63364  1.0000
  H   H182      1.0  0.63683  0.21029  0.94728  1.0000
  H   H183      1.0  0.54378  0.24534  0.62033  1.0000
  Fe  Fe31      1.0  0.58331  0.17977  0.02264  1.0000
  C   C187      1.0  0.71182  0.28653  0.93335  1.0000
  H   H184      1.0  0.49284  0.07510  0.85545  1.0000
  C   C188      1.0  0.69411  0.27904  0.00739  1.0000
  C   C189      1.0  0.66498  0.24706  0.99742  1.0000
  C   C190      1.0  0.65917  0.23495  0.95521  1.0000
  C   C191      1.0  0.68285  0.25446  0.92334  1.0000
  S   S62       1.0  0.55497  0.06794  0.56545  1.0000
  C   C192      1.0  0.54432  0.08506  0.84493  1.0000
  C   C193      1.0  0.51435  0.07331  0.86890  1.0000
  S   S63       1.0  0.56260  0.16108  0.54477  1.0000
  C   C194      1.0  0.51852  0.99900  0.54368  1.0000
  H   H185      1.0  0.53819  0.04848  0.95809  1.0000
  H   H186      1.0  0.55446  0.21099  0.72593  1.0000
  H   H187      1.0  0.54325  0.00898  0.68506  1.0000
  C   C195      1.0  0.51630  0.02810  0.55661  1.0000
  C   C196      1.0  0.61725  0.26092  0.74731  1.0000
  C   C197      1.0  0.57029  0.07076  0.90343  1.0000
  N   N16       1.0  0.51263  0.06102  0.90932  1.0000
  H   H188      1.0  0.50429  0.27177  0.72983  1.0000
  S   S64       1.0  0.48551  0.11206  0.01703  1.0000
  C   C198      1.0  0.58819  0.29547  0.74858  1.0000
  S   S65       1.0  0.49056  0.17926  0.58354  1.0000
  H   H189      1.0  0.54078  0.29656  0.64529  1.0000
  H   H190      1.0  0.48381  0.13222  0.80797  1.0000
  C   C199      1.0  0.57262  0.08425  0.86261  1.0000
  C   C200      1.0  0.53312  0.00452  0.65180  1.0000
  H   H191      1.0  0.51871  0.01865  0.64698  1.0000
  H   H192      1.0  0.54592  0.09571  0.81333  1.0000
  C   C201      1.0  0.55574  0.23563  0.73145  1.0000
  C   C202      1.0  0.71716  0.29898  0.97536  1.0000
  C   C203      1.0  0.48621  0.27357  0.63360  1.0000
  S   S66       1.0  0.65681  0.24836  0.55671  1.0000
  H   H193      1.0  0.76735  0.29345  0.53609  1.0000
  H   H194      1.0  0.63572  0.29999  0.55735  1.0000
  C   C204      1.0  0.48967  0.21544  0.60472  1.0000
  H   H195      1.0  0.78267  0.28639  0.93393  1.0000
  C   C205      1.0  0.55870  0.29861  0.74441  1.0000
  H   H196      1.0  0.77062  0.28046  0.01115  1.0000
  H   H197      1.0  0.55509  0.01624  0.62928  1.0000
  H   H198      1.0  0.48660  0.05100  0.96878  1.0000
  S   S67       1.0  0.74197  0.31008  0.89355  1.0000
  Fe  Fe32      1.0  0.52875  0.10190  0.03168  1.0000
  C   C206      1.0  0.48106  0.04911  0.93393  1.0000
  C   C207      1.0  0.58420  0.26442  0.53513  1.0000
  H   H199      1.0  0.48172  0.04628  0.57449  1.0000
  S   S68       1.0  0.48225  0.30877  0.65214  1.0000
  Fe  Fe33      1.0  0.84560  0.39874  0.36025  1.0000
  S   S69       1.0  0.82024  0.34890  0.32278  1.0000
  S   S70       1.0  0.89573  0.40849  0.39271  1.0000
  Fe  Fe34      1.0  0.78478  0.41002  0.34088  1.0000
  S   S71       1.0  0.75639  0.36157  0.30142  1.0000
  S   S72       1.0  0.75730  0.43966  0.35546  1.0000
  C   C208      1.0  0.93110  0.41414  0.28616  1.0000
  Fe  Fe35      1.0  0.80830  0.37820  0.27360  1.0000
  S   S73       1.0  0.82145  0.37265  0.20533  1.0000
  S   S74       1.0  0.79664  0.38483  0.39570  1.0000
  S   S75       1.0  0.83625  0.42882  0.30930  1.0000
  H   H200      1.0  0.73820  0.32674  0.45119  1.0000
  Fe  Fe36      1.0  0.51140  0.34595  0.21348  1.0000
  S   S76       1.0  0.55094  0.39831  0.19096  1.0000
  Fe  Fe37      1.0  0.52560  0.37108  0.30662  1.0000
  S   S77       1.0  0.56666  0.42497  0.28957  1.0000
  S   S78       1.0  0.51028  0.35353  0.37499  1.0000
  Fe  Fe38      1.0  0.52896  0.42037  0.23761  1.0000
  S   S79       1.0  0.52249  0.46503  0.21209  1.0000
  Fe  Fe39      1.0  0.58403  0.39748  0.24435  1.0000
  S   S80       1.0  0.63521  0.40397  0.22432  1.0000
  S   S81       1.0  0.54551  0.34388  0.26470  1.0000
  C   C209      1.0  0.53788  0.37427  0.41927  1.0000
  C   C210      1.0  0.52508  0.36417  0.46072  1.0000
  C   C211      1.0  0.54626  0.37989  0.49678  1.0000
  C   C212      1.0  0.58067  0.40549  0.49167  1.0000
  C   C213      1.0  0.59350  0.41565  0.45026  1.0000
  C   C214      1.0  0.57217  0.40024  0.41417  1.0000
  H   H201      1.0  0.49849  0.34432  0.46490  1.0000
  H   H202      1.0  0.94348  0.49367  0.22304  1.0000
  H   H203      1.0  0.61995  0.43583  0.44607  1.0000
  H   H204      1.0  0.58219  0.40858  0.38246  1.0000
  C   C215      1.0  0.50419  0.43711  0.10979  1.0000
  C   C216      1.0  0.66933  0.41559  0.26102  1.0000
  C   C217      1.0  0.67026  0.43029  0.30089  1.0000
  C   C218      1.0  0.69792  0.43869  0.32936  1.0000
  C   C219      1.0  0.72423  0.43173  0.31839  1.0000
  C   C220      1.0  0.72351  0.41774  0.27817  1.0000
  C   C221      1.0  0.69624  0.40979  0.24959  1.0000
  H   H205      1.0  0.65000  0.43564  0.30950  1.0000
  H   H206      1.0  0.69881  0.45032  0.36005  1.0000
  H   H207      1.0  0.74443  0.41381  0.26858  1.0000
  H   H208      1.0  0.69615  0.39919  0.21846  1.0000
  C   C222      1.0  0.79085  0.41427  0.08857  1.0000
  C   C223      1.0  0.81067  0.39816  0.08415  1.0000
  C   C224      1.0  0.81966  0.38548  0.12022  1.0000
  C   C225      1.0  0.80899  0.38878  0.16113  1.0000
  C   C226      1.0  0.78914  0.40486  0.16574  1.0000
  C   C227      1.0  0.78011  0.41754  0.12954  1.0000
  C   C228      1.0  0.67962  0.38483  0.42142  1.0000
  H   H209      1.0  0.83517  0.37327  0.11648  1.0000
  H   H210      1.0  0.78085  0.40763  0.19713  1.0000
  H   H211      1.0  0.76491  0.43011  0.13335  1.0000
  H   H212      1.0  0.52637  0.43599  0.12441  1.0000
  C   C229      1.0  0.93772  0.44488  0.38741  1.0000
  C   C230      1.0  0.94318  0.47644  0.37129  1.0000
  H   H213      1.0  0.50900  0.46369  0.11649  1.0000
  H   H214      1.0  0.92135  0.47924  0.36198  1.0000
  S   S82       1.0  0.48682  0.36782  0.25698  1.0000
  H   H215      1.0  0.87891  0.38865  0.26198  1.0000
  S   S83       1.0  0.77934  0.43072  0.04366  1.0000
  C   C231      1.0  0.48656  0.47199  0.21201  1.0000
  C   C232      1.0  0.80962  0.33754  0.50683  1.0000
  H   H216      1.0  0.57096  0.32484  0.18086  1.0000
  C   C233      1.0  0.63821  0.33893  0.14326  1.0000
  H   H217      1.0  0.51283  0.51808  0.17401  1.0000
  C   C234      1.0  0.52501  0.44435  0.50320  1.0000
  C   C235      1.0  0.55744  0.46593  0.52162  1.0000
  H   H218      1.0  0.58635  0.32867  0.34883  1.0000
  H   H219      1.0  0.81635  0.31908  0.06295  1.0000
  H   H220      1.0  0.68898  0.40308  0.44791  1.0000
  C   C236      1.0  0.48894  0.50039  0.18945  1.0000
  C   C237      1.0  0.65667  0.34036  0.35156  1.0000
  H   H221      1.0  0.68690  0.34011  0.13682  1.0000
  C   C238      1.0  0.68536  0.34477  0.37502  1.0000
  C   C239      1.0  0.60967  0.35246  0.33807  1.0000
  C   C240      1.0  0.49564  0.44048  0.52340  1.0000
  C   C241      1.0  0.90371  0.41225  0.26240  1.0000
  H   H222      1.0  0.81945  0.39582  0.05304  1.0000
  H   H223      1.0  0.59635  0.36366  0.15065  1.0000
  H   H224      1.0  0.61347  0.35029  0.30337  1.0000
  H   H225      1.0  0.60508  0.37467  0.34165  1.0000
  H   H226      1.0  0.96256  0.41757  0.41213  1.0000
  H   H227      1.0  0.85095  0.37661  0.46937  1.0000
  N   N17       1.0  0.63995  0.35784  0.36280  1.0000
  H   H228      1.0  0.64814  0.32320  0.32401  1.0000
  H   H229      1.0  0.92746  0.39228  0.30520  1.0000
  C   C242      1.0  0.65062  0.37930  0.39776  1.0000
  C   C243      1.0  0.96293  0.44477  0.28622  1.0000
  C   C244      1.0  0.83075  0.34970  0.47115  1.0000
  C   C245      1.0  0.96647  0.44188  0.39968  1.0000
  H   H230      1.0  0.64979  0.36389  0.15940  1.0000
  C   C246      1.0  0.69711  0.36751  0.40980  1.0000
  C   C247      1.0  0.82562  0.32714  0.43737  1.0000
  H   H231      1.0  0.58018  0.46874  0.50585  1.0000
  C   C248      1.0  0.90822  0.44095  0.23943  1.0000
  H   H232      1.0  0.72017  0.37226  0.42715  1.0000
  Fe  Fe40      1.0  0.77087  0.33738  0.35448  1.0000
  H   H233      1.0  0.50366  0.43296  0.07480  1.0000
  H   H234      1.0  0.63737  0.39312  0.40675  1.0000
  H   H235      1.0  0.88681  0.43959  0.22111  1.0000
  H   H236      1.0  0.53584  0.37226  0.52848  1.0000
  H   H237      1.0  0.69873  0.33106  0.36589  1.0000
  C   C249      1.0  0.94028  0.47133  0.24063  1.0000
  H   H238      1.0  0.52273  0.43047  0.47368  1.0000
  C   C250      1.0  0.58164  0.33493  0.14884  1.0000
  H   H239      1.0  0.84189  0.33645  0.40948  1.0000
  N   N18       1.0  0.60348  0.32085  0.13515  1.0000
  H   H240      1.0  0.55993  0.32777  0.12599  1.0000
  C   C251      1.0  0.65929  0.32556  0.13077  1.0000
  H   H241      1.0  0.48795  0.37348  0.13376  1.0000
  N   N19       1.0  0.47174  0.41099  0.12863  1.0000
  N   N20       1.0  0.96714  0.47291  0.26377  1.0000
  H   H242      1.0  0.47030  0.42342  0.50979  1.0000
  H   H243      1.0  0.81324  0.35495  0.53315  1.0000
  H   H244      1.0  0.87406  0.36274  0.03617  1.0000
  Fe  Fe41      1.0  0.84971  0.42742  0.91619  1.0000
  S   S84       1.0  0.83141  0.46450  0.93472  1.0000
  S   S85       1.0  0.90425  0.43499  0.91841  1.0000
  Fe  Fe42      1.0  0.77570  0.36663  0.90926  1.0000
  S   S86       1.0  0.75207  0.39867  0.92716  1.0000
  C   C252      1.0  0.76529  0.49016  0.95759  1.0000
  Fe  Fe43      1.0  0.79083  0.43782  0.88299  1.0000
  S   S87       1.0  0.77481  0.46775  0.83866  1.0000
  Fe  Fe44      1.0  0.79381  0.42207  0.97732  1.0000
  H   H245      1.0  0.76461  0.51316  0.96993  1.0000
  S   S88       1.0  0.81204  0.40398  0.86118  1.0000
  S   S89       1.0  0.81436  0.38683  0.96263  1.0000
  H   H246      1.0  0.49482  0.55678  0.83050  1.0000
  H   H247      1.0  0.56674  0.34042  0.54722  1.0000
  Fe  Fe45      1.0  0.58649  0.41482  0.60317  1.0000
  S   S90       1.0  0.53334  0.40526  0.61580  1.0000
  Fe  Fe46      1.0  0.59977  0.40392  0.69757  1.0000
  S   S91       1.0  0.54703  0.39370  0.71650  1.0000
  S   S92       1.0  0.62779  0.38813  0.74603  1.0000
  Fe  Fe47      1.0  0.52908  0.36173  0.65635  1.0000
  C   C253      1.0  0.49907  0.45876  0.56111  1.0000
  Fe  Fe48      1.0  0.55646  0.43850  0.67441  1.0000
  S   S93       1.0  0.55064  0.48554  0.69052  1.0000
  S   S94       1.0  0.58060  0.36915  0.63964  1.0000
  S   S95       1.0  0.61091  0.45111  0.65925  1.0000
  N   N21       1.0  0.73043  0.46288  0.94580  1.0000
  H   H248      1.0  0.47650  0.45615  0.57716  1.0000
  H   H249      1.0  0.77702  0.48126  0.98245  1.0000
  C   C254      1.0  0.51762  0.52299  0.70312  1.0000
  C   C255      1.0  0.51339  0.48974  0.69744  1.0000
  H   H250      1.0  0.61172  0.49359  0.57270  1.0000
  H   H251      1.0  0.78244  0.49770  0.92935  1.0000
  H   H252      1.0  0.54329  0.54529  0.70305  1.0000
  H   H253      1.0  0.64002  0.38954  0.91177  1.0000
  C   C256      1.0  0.73481  0.44528  0.81089  1.0000
  C   C257      1.0  0.72395  0.46356  0.78434  1.0000
  C   C258      1.0  0.69145  0.44653  0.76364  1.0000
  C   C259      1.0  0.66948  0.41107  0.76961  1.0000
  C   C260      1.0  0.68039  0.39289  0.79622  1.0000
  C   C261      1.0  0.71289  0.40981  0.81657  1.0000
  H   H254      1.0  0.74073  0.49102  0.77979  1.0000
  H   H255      1.0  0.68336  0.46084  0.74332  1.0000
  H   H256      1.0  0.66364  0.36551  0.80120  1.0000
  H   H257      1.0  0.72088  0.39540  0.83687  1.0000
  C   C262      1.0  0.47031  0.53720  0.81509  1.0000
  C   C263      1.0  0.94076  0.49338  0.86792  1.0000
  C   C264      1.0  0.94180  0.46832  0.89369  1.0000
  C   C265      1.0  0.53194  0.48029  0.57841  1.0000
  H   H258      1.0  0.91655  0.49280  0.86263  1.0000
  C   C266      1.0  0.68338  0.43874  0.89521  1.0000
  C   C267      1.0  0.71206  0.43596  0.97296  1.0000
  C   C268      1.0  0.84025  0.33291  0.89566  1.0000
  H   H259      1.0  0.73941  0.32369  0.98335  1.0000
  C   C269      1.0  0.86004  0.34844  0.96998  1.0000
  H   H260      1.0  0.60661  0.53109  0.56467  1.0000
  H   H261      1.0  0.66543  0.38719  0.98206  1.0000
  H   H262      1.0  0.59314  0.50677  0.61371  1.0000
  N   N22       1.0  0.56048  0.48280  0.55935  1.0000
  H   H263      1.0  0.56036  0.32357  0.74891  1.0000
  C   C270      1.0  0.59469  0.50476  0.57844  1.0000
  H   H264      1.0  0.72321  0.43448  0.00328  1.0000
  H   H265      1.0  0.47421  0.51597  0.80278  1.0000
  H   H266      1.0  0.62442  0.34921  0.56466  1.0000
  H   H267      1.0  0.73068  0.48635  0.88636  1.0000
  H   H268      1.0  0.53439  0.49463  0.60748  1.0000
  C   C271      1.0  0.71618  0.46494  0.90785  1.0000
  C   C272      1.0  0.48002  0.46121  0.69734  1.0000
  C   C273      1.0  0.48900  0.52776  0.70892  1.0000
  S   S96       1.0  0.60813  0.42587  0.53619  1.0000
  H   H269      1.0  0.67280  0.43988  0.86428  1.0000
  H   H270      1.0  0.88490  0.36830  0.95845  1.0000
  C   C274      1.0  0.66505  0.41048  0.92185  1.0000
  C   C275      1.0  0.67929  0.40915  0.96118  1.0000
  C   C276      1.0  0.82169  0.32101  0.02899  1.0000
  C   C277      1.0  0.85405  0.34547  0.01400  1.0000
  H   H271      1.0  0.61250  0.31827  0.75683  1.0000
  H   H272      1.0  0.85899  0.36042  0.88829  1.0000
  H   H273      1.0  0.81602  0.32654  0.87809  1.0000
  H   H274      1.0  0.49280  0.55354  0.71304  1.0000
  N   N23       1.0  0.83426  0.32802  0.94173  1.0000
  C   C278      1.0  0.60420  0.32407  0.55354  1.0000
  H   H275      1.0  0.47627  0.43545  0.69304  1.0000
  C   C279      1.0  0.57143  0.31892  0.54367  1.0000
  H   H276      1.0  0.85029  0.31624  0.88359  1.0000
  H   H277      1.0  0.51951  0.72977  0.12909  1.0000
  C   C280      1.0  0.49449  0.75979  0.11873  1.0000
  H   H278      1.0  0.51849  0.78387  0.11537  1.0000
  C   C281      1.0  0.49507  0.72915  0.12639  1.0000
  H   H279      1.0  0.47628  0.95028  0.42032  1.0000
  H   H280      1.0  0.47097  0.90716  0.42199  1.0000
  H   H281      1.0  0.48364  0.74321  0.22324  1.0000
  H   H282      1.0  0.47960  0.79266  0.20154  1.0000
  C   C282      1.0  0.48940  0.97943  0.06494  1.0000
  H   H283      1.0  0.49103  0.94408  0.53010  1.0000
  H   H284      1.0  0.48345  0.71243  0.03448  1.0000
  C   C283      1.0  0.48872  0.96627  0.53906  1.0000
  H   H285      1.0  0.51816  0.89624  0.62262  1.0000
  C   C284      1.0  0.52649  0.94768  0.63572  1.0000
  C   C285      1.0  0.50631  0.91195  0.62886  1.0000
  H   H286      1.0  0.48815  0.75405  0.02511  1.0000
  H   H287      1.0  0.55432  0.95964  0.63471  1.0000
  N   N24       1.0  0.51136  0.96734  0.64332  1.0000
  C   C286      1.0  0.47624  0.95223  0.64464  1.0000
  H   H288      1.0  0.48017  0.72500  0.98044  1.0000
  C   C287      1.0  0.47394  0.72656  0.01433  1.0000
  C   C288      1.0  0.47053  0.89642  0.62996  1.0000
