data_image0
_chemical_formula_structural       FeS2FeS2FeSFeCS2FeSHFeS2FeSFeHS2FeS2FeS2FeSFeS3FeS2FeS2FeSFeS3C6H4C6H4C6H4C6H4C6H4C6H5C2H8CHCHC2HCHC2HCH4C7HC2HC3HCHCH5C2HNC6H10C2NCHCHC2H2CHC3H3CHC3NSH2CNHCHCHCH2SHC2NC2HCHC2H2SHCHCNHNCHCH2CH4C2H3CFeS2FeS2FeSFeS3FeS2FeS2FeSFeS3FeS2FeS2FeSFeHS2FeS2FeS2FeSFeS3C2NH2C6H3C5HC6H4C6H4C6H4C6H4C6H4CH2C3H5NC6H10CHNHCHCH2CHCNC4HC2HCHCH3CH4CHCH2CH3C3SHCH2C2H2CH2C5H2CHCNCH3CHCH2C3N2H4CHCHCH3NH3NC2HCH3C3HCFeS2FeS2FeSFeNS2FeS2FeS2FeSFeHS2FeS2FeS2FeSFeS3FeS2FeS2FeSFeS3C6H4C6H4C6H4C6H4C6H4C6H4CHC2H6C9H6CHCHC4H2NC6H8NH2CHC4H4CHCSCHCHCHCHCH2CH2CH2NH2CHCHNCH5C2NH3CH2CNCHC3HSHCHCH3CHCHC2FeS2FeS2FeSFeS3FeS2FeS2FeSFeS3FeS2FeS2FeSFeHSCFeS2FeS2FeSFeCS2H2NCHC6H4CH2CHC6H3C7H4C6H4C6H4C6H4CH2C2HCHCSCHNC6H8CHC2HCHC2HNSCHCNC6H7NCHCHC4H4C2HCH2CHCHC2H4NHSHC2HCH4C2H4NCH2C3HCHNH2CH4CHCHC3FeS2FeS2FeSFeS3FeS2FeS2FeSFeS3FeS2FeSCFeSFeS3FeHCFeS2FeSFeS3CH3CH4C6H2CHC6H4C6H4C6H4C6H4C6H4CHNC3HNC2NH4C2NCHC2H3CH5CSC2HNCH2CHCNCNHCH3CHC2SH4CHC2HCHCH2CHC3SNC6H2CHCH3C2HCH5CH3CHCHC3H4C2H2CHC2HC2H2CHC2HFeSCFeS2FeSFeS3FeS2FeS2FeSFeS3FeSHFeSHFeHFeSHSFeS2FeS2FeHFeS3HC6H4C6H4C6H4C6H4C6H4C6H4NHNC2H2NCHSCHCH2CH2C2HNH2C3HCH3CSHSCH2C4HC5H3SCH4NH2CHC3NCHCHC2H2C3H2CHC3HC2H2CHSH2CH4CHC2H4NH2C2HC3HSC2H10CNHCHCHC5H2NCHCHNCHFeS2FeS2FeSFeS3FeSCFeS2FeSFeS3FeS2FeSHFeSFeS3FeHCFeS2FeSFeS3HCH3CH3C6HCH2C6H4C6H4C6H3C7H3NC6H5CHNH4CHC3H3NSHNCH3C2H3CHNH2NCN2H2C4HCH2C3HC2HCH3C2H4CH2C2H2NC6H4CH3C2H3CSH2CHCHCS2HCH2C5HCHCH4CHCH3CH2CH2CHCNHCH4C2FeS2FeS2FeSFeS3FeS2FeS2FeSFeS3FeSHFeS2FeCFeSHSFeS2FeSHFeSFeS3C8HC8H2CHC6H4C6H2CSC6SH3C6H4CHCHCH3N2H4CSH2CNH7C3HC2H2CH3C3H5CHNH4C2H4NH4CHC3H2CH2CH3C2H2CSCH2CHC3H3C3H4CHCH2C2HC4H3CH2CNHCHFeS2FeS2FeSFeS3FeSCFeS2FeSFeS3FeS2FeSHFeSFeSNSFeSCFeS2FeSFeS3C2HCH3C7H4C6H4C6H5NC10H3C6H4C6H4CHCNH4CSCHCHCH7C2H3NHC2NHCHCH2C2SH6CH2CH2CH2NCH3C3SH2C2H6NCHCH2CHC3H4C3HCNHNCHC2HSH2C2HC6H5C3HC2HC3H2C2FeS2FeS2FeHFeS3FeSCFeS2FeSFeCSNFeS2FeS2FeSFeS3FeS2FeS2FeSFeS3CSHC7H4C6H4C6H4C2NH2C6H3C7H4C6H5CHC2HSHC5HCHC5HNH2C5H5C2H3CH5N2C3HCHCH4CH2CNH2CHCH2CHNCH2C2SNHC2H2NC6H11C3SCH3CH2NH2CH2CH3C2H4CH5CH3CHCH2C2FeS2FeS2FeSFeS3FeS2FeS2FeSFeS3FeS2FeS2FeHFeSHSFeS2FeS2FeSFeS3CH2C11H4C6H2CHC6H5NCHC7H4C6H4C6H6CH7NC6H10C3HCH2CHC3NCH5C2NC2HSC2H2CH5NC6H5CHCH2CHNHC2H4CHCHC5HCHC2H2C2HCHSC3H4CHNCFeS2FeS2FeSFeS3FeSHFeS2FeSFeHSCFeS2FeS2FeSFeS3FeS2FeS2FeSFeS3HC9H4C6H4C6H4CH4C6H3C7H4C6H5CHCHC2H3NC6H3CHC2HC2HC3HC3NC6H8C2H6C2H2CHCHC4HCHC2H6NCHC2HCHCNCNHS2H3CHCHSH2C2H2C2H3CH3CHFeS2FeS2FeHFeSHSFeSHFeS2FeSFeHS2FeS2FeS2FeSFeS3FeS2FeS2FeSFeS3CHC5H2C2H3C6H4C7H3C7H6SC6H4C6H4C6H5CH2C2HCHCH2CH2CHCHC2HSHNC6H9SH4CSH2CHCH2C2HNC3H2CH4NH3NC4HC2H3NH3CH3CHC4H2C4H2N2H2FeSHFeS2FeSFeS3FeS2FeS2FeHFeS3FeS2FeS2FeCFeS3FeS2FeS2FeSFeS3NH2C6H4C2H3C6H4C6H5SCH2C6H4C6H2C8H4CH7CNC5H2NC5H6CH2CNH4C2HC3H4SH3C2H3CHNC2HNCH3CHCHCH2C6H6SH2NHC2H3CH2CHCHCH2NH2CHCH2FeS2FeSHFeCFeSCSFeS2FeS2FeSFeS3FeS2FeS2FeSFeS3FeS2FeS2FeSFeS3CH3C2H8C6H5C6H3NC6H4CNC7H4C6H4C6SH3CHCH2C2HCNC6H8CH3CH2CHSCHCHC2NC6H8NHCNHCHCH4CHCH2C3HC2H5NCH3CH2CNC2SC2HC2NCH2C2H4C2HCH4CHFeSHFeS2FeSFeS3FeS2FeS2FeCFeS3FeS2FeS2FeSFeS3FeS2FeS2FeSFeS3H3C6H4CH2CSC6H4C6H4C2NC8H4CH2C4H3C6H11C3HCNCHC2NH3C5NC6H9CHCHC2HCH2CH3SHC3H2NC3HC3HC3HC9HNCH2CH6CHCHNH3CHCH4CH3C4NC3
_chemical_formula_sum              "Fe256 S512 C1536 H1536 N128"
_cell_length_a       85.4945
_cell_length_b       45.7351
_cell_length_c       63.8994
_cell_angle_alpha    89.4415
_cell_angle_beta     88.7159
_cell_angle_gamma    90.1839

_space_group_name_H-M_alt    "P 1"
_space_group_IT_number       1

loop_
  _space_group_symop_operation_xyz
  'x, y, z'

loop_
  _atom_site_type_symbol
  _atom_site_label
  _atom_site_symmetry_multiplicity
  _atom_site_fract_x
  _atom_site_fract_y
  _atom_site_fract_z
  _atom_site_occupancy
  Fe  Fe1       1.0  0.09318  0.07628  0.31544  1.0000
  S   S1        1.0  0.08685  0.05940  0.34756  1.0000
  S   S2        1.0  0.11699  0.09774  0.31130  1.0000
  Fe  Fe2       1.0  0.05977  0.06729  0.29914  1.0000
  S   S3        1.0  0.05124  0.04960  0.33046  1.0000
  S   S4        1.0  0.04200  0.06672  0.27273  1.0000
  Fe  Fe3       1.0  0.06522  0.08662  0.34384  1.0000
  S   S5        1.0  0.05703  0.11506  0.37070  1.0000
  Fe  Fe4       1.0  0.07366  0.02383  0.33141  1.0000
  C   C1        1.0  0.08625  0.33419  0.49260  1.0000
  S   S6        1.0  0.07221  0.10576  0.31264  1.0000
  S   S7        1.0  0.08147  0.03916  0.29904  1.0000
  Fe  Fe5       1.0  0.23840  0.05176  0.29529  1.0000
  S   S8        1.0  0.24383  0.06948  0.32727  1.0000
  H   H1        1.0  0.24899  0.21617  0.30052  1.0000
  Fe  Fe6       1.0  0.20347  0.04543  0.30690  1.0000
  S   S9        1.0  0.20651  0.06253  0.33925  1.0000
  S   S10       1.0  0.18004  0.02583  0.29862  1.0000
  Fe  Fe7       1.0  0.22212  0.09686  0.32441  1.0000
  S   S11       1.0  0.21896  0.14595  0.33043  1.0000
  Fe  Fe8       1.0  0.22774  0.03372  0.33941  1.0000
  H   H2        1.0  0.02969  0.17722  0.34099  1.0000
  S   S12       1.0  0.21761  0.08155  0.29149  1.0000
  S   S13       1.0  0.22387  0.01431  0.30795  1.0000
  Fe  Fe9       1.0  0.05808  0.29594  0.43860  1.0000
  S   S14       1.0  0.05020  0.31462  0.40764  1.0000
  S   S15       1.0  0.04275  0.29388  0.46862  1.0000
  Fe  Fe10      1.0  0.09228  0.29136  0.42264  1.0000
  S   S16       1.0  0.08704  0.30945  0.39092  1.0000
  S   S17       1.0  0.11569  0.27181  0.43077  1.0000
  Fe  Fe11      1.0  0.07199  0.34262  0.40755  1.0000
  S   S18       1.0  0.07437  0.39235  0.40318  1.0000
  Fe  Fe12      1.0  0.06588  0.28008  0.39334  1.0000
  S   S19       1.0  0.06153  0.25349  0.36435  1.0000
  S   S20       1.0  0.07890  0.32629  0.43949  1.0000
  S   S21       1.0  0.07213  0.25964  0.42409  1.0000
  Fe  Fe13      1.0  0.20326  0.32501  0.42121  1.0000
  S   S22       1.0  0.21416  0.30597  0.39209  1.0000
  S   S23       1.0  0.17892  0.34486  0.42013  1.0000
  Fe  Fe14      1.0  0.23470  0.32556  0.44451  1.0000
  S   S24       1.0  0.24776  0.30688  0.41669  1.0000
  S   S25       1.0  0.24378  0.33653  0.47714  1.0000
  Fe  Fe15      1.0  0.23354  0.33806  0.39738  1.0000
  S   S26       1.0  0.24145  0.36299  0.36824  1.0000
  Fe  Fe16      1.0  0.22720  0.27610  0.41361  1.0000
  S   S27       1.0  0.23224  0.22739  0.40877  1.0000
  S   S28       1.0  0.22203  0.35897  0.42523  1.0000
  S   S29       1.0  0.21484  0.29284  0.44277  1.0000
  C   C2        1.0  0.13319  0.29220  0.42717  1.0000
  C   C3        1.0  0.14764  0.27838  0.43010  1.0000
  C   C4        1.0  0.16177  0.29413  0.42778  1.0000
  C   C5        1.0  0.16152  0.32394  0.42272  1.0000
  C   C6        1.0  0.14704  0.33777  0.41986  1.0000
  C   C7        1.0  0.13292  0.32197  0.42199  1.0000
  H   H3        1.0  0.14794  0.25537  0.43416  1.0000
  H   H4        1.0  0.17284  0.28327  0.43006  1.0000
  H   H5        1.0  0.14677  0.36084  0.41601  1.0000
  H   H6        1.0  0.12186  0.33285  0.41979  1.0000
  C   C8        1.0  0.22115  0.16682  0.35357  1.0000
  C   C9        1.0  0.21522  0.19552  0.35409  1.0000
  C   C10       1.0  0.21808  0.21409  0.37111  1.0000
  C   C11       1.0  0.22689  0.20412  0.38792  1.0000
  C   C12       1.0  0.23246  0.17517  0.38766  1.0000
  C   C13       1.0  0.22963  0.15661  0.37061  1.0000
  H   H7        1.0  0.20850  0.20357  0.34112  1.0000
  H   H8        1.0  0.21364  0.23621  0.37112  1.0000
  H   H9        1.0  0.16576  0.00715  0.33762  1.0000
  H   H10       1.0  0.03640  0.16921  0.24843  1.0000
  C   C14       1.0  0.23938  0.46305  0.37045  1.0000
  C   C15       1.0  0.23919  0.44858  0.35126  1.0000
  C   C16       1.0  0.24011  0.41789  0.35071  1.0000
  C   C17       1.0  0.24090  0.40148  0.36934  1.0000
  C   C18       1.0  0.24106  0.41596  0.38850  1.0000
  C   C19       1.0  0.24038  0.44664  0.38903  1.0000
  H   H11       1.0  0.23058  0.39848  0.48779  1.0000
  H   H12       1.0  0.24000  0.40680  0.33584  1.0000
  H   H13       1.0  0.24194  0.40354  0.40290  1.0000
  H   H14       1.0  0.24063  0.45772  0.40391  1.0000
  C   C20       1.0  0.06678  0.45517  0.34729  1.0000
  C   C21       1.0  0.06454  0.42487  0.34495  1.0000
  C   C22       1.0  0.06620  0.40536  0.36203  1.0000
  C   C23       1.0  0.07022  0.41596  0.38167  1.0000
  C   C24       1.0  0.07209  0.44634  0.38410  1.0000
  C   C25       1.0  0.07036  0.46585  0.36706  1.0000
  H   H15       1.0  0.06169  0.41633  0.32977  1.0000
  H   H16       1.0  0.06469  0.38209  0.35991  1.0000
  H   H17       1.0  0.07511  0.45481  0.39924  1.0000
  H   H18       1.0  0.03335  0.12335  0.33955  1.0000
  C   C26       1.0  0.05841  0.15353  0.36874  1.0000
  C   C27       1.0  0.06165  0.16758  0.34959  1.0000
  C   C28       1.0  0.06245  0.19824  0.34845  1.0000
  C   C29       1.0  0.06032  0.21510  0.36650  1.0000
  C   C30       1.0  0.05715  0.20109  0.38568  1.0000
  C   C31       1.0  0.05609  0.17041  0.38676  1.0000
  H   H19       1.0  0.06327  0.15499  0.33556  1.0000
  H   H20       1.0  0.06482  0.20897  0.33353  1.0000
  H   H21       1.0  0.05521  0.21390  0.39962  1.0000
  H   H22       1.0  0.05344  0.15973  0.40161  1.0000
  C   C32       1.0  0.13438  0.07719  0.30831  1.0000
  C   C33       1.0  0.14890  0.09146  0.30966  1.0000
  C   C34       1.0  0.16299  0.07595  0.30687  1.0000
  C   C35       1.0  0.16263  0.04612  0.30233  1.0000
  C   C36       1.0  0.14812  0.03178  0.30116  1.0000
  C   C37       1.0  0.13403  0.04718  0.30432  1.0000
  H   H23       1.0  0.14927  0.11468  0.31270  1.0000
  H   H24       1.0  0.17410  0.08720  0.30786  1.0000
  H   H25       1.0  0.10074  0.43302  0.32085  1.0000
  H   H26       1.0  0.12292  0.03600  0.30323  1.0000
  H   H27       1.0  0.02277  0.07953  0.07072  1.0000
  C   C38       1.0  0.01947  0.14099  0.23423  1.0000
  C   C39       1.0  0.25454  0.18778  0.01033  1.0000
  H   H28       1.0  0.04250  0.22963  0.46437  1.0000
  H   H29       1.0  0.18972  0.39472  0.39300  1.0000
  H   H30       1.0  0.03016  0.19053  0.48651  1.0000
  H   H31       1.0  0.23429  0.13465  0.37046  1.0000
  H   H32       1.0  0.23612  0.26292  0.32279  1.0000
  H   H33       1.0  0.15495  0.05383  0.35040  1.0000
  H   H34       1.0  0.04914  0.12958  0.26873  1.0000
  H   H35       1.0  0.25839  0.18751  0.34776  1.0000
  C   C40       1.0  0.02837  0.21320  0.49054  1.0000
  H   H36       1.0  0.20075  0.45930  0.38485  1.0000
  C   C41       1.0  0.03409  0.09568  0.25745  1.0000
  H   H37       1.0  0.03364  0.43233  0.03305  1.0000
  C   C42       1.0  0.25963  0.22606  0.36650  1.0000
  C   C43       1.0  0.03948  0.12451  0.25871  1.0000
  H   H38       1.0  0.19635  0.46581  0.31825  1.0000
  C   C44       1.0  0.18444  0.04477  0.38472  1.0000
  H   H39       1.0  0.20062  0.00896  0.38414  1.0000
  C   C45       1.0  0.09922  0.28188  0.47937  1.0000
  C   C46       1.0  0.26081  0.43299  0.46243  1.0000
  H   H40       1.0  0.08219  0.23613  0.49169  1.0000
  C   C47       1.0  0.10813  0.30756  0.47795  1.0000
  H   H41       1.0  0.23843  0.46098  0.33686  1.0000
  H   H42       1.0  0.02306  0.35555  0.08125  1.0000
  H   H43       1.0  0.02309  0.09562  0.30943  1.0000
  H   H44       1.0  0.07198  0.48909  0.36919  1.0000
  C   C48       1.0  0.01697  0.99970  0.08938  1.0000
  C   C49       1.0  0.02157  0.08959  0.24419  1.0000
  C   C50       1.0  0.26458  0.02013  0.25474  1.0000
  C   C51       1.0  0.02377  0.39845  0.05332  1.0000
  C   C52       1.0  0.19844  0.46598  0.35178  1.0000
  C   C53       1.0  0.10731  0.48159  0.34203  1.0000
  C   C54       1.0  0.26141  0.35222  0.48646  1.0000
  H   H45       1.0  0.11252  0.46410  0.38109  1.0000
  C   C55       1.0  0.17161  0.05763  0.37515  1.0000
  C   C56       1.0  0.24096  0.41198  0.48544  1.0000
  H   H46       1.0  0.23926  0.16720  0.40060  1.0000
  C   C57       1.0  0.07766  0.30809  0.49376  1.0000
  C   C58       1.0  0.19033  0.01833  0.37707  1.0000
  C   C59       1.0  0.02716  0.13465  0.32722  1.0000
  H   H47       1.0  0.24545  0.18370  0.31619  1.0000
  C   C60       1.0  0.24697  0.41703  0.46526  1.0000
  H   H48       1.0  0.24925  0.09350  0.01872  1.0000
  C   C61       1.0  0.10605  0.39446  0.36572  1.0000
  H   H49       1.0  0.06971  0.25214  0.47218  1.0000
  H   H50       1.0  0.26575  0.43646  0.44682  1.0000
  H   H51       1.0  0.05758  0.48575  0.28025  1.0000
  H   H52       1.0  0.10502  0.37242  0.37210  1.0000
  H   H53       1.0  0.03565  0.07901  0.11362  1.0000
  C   C62       1.0  0.25545  0.21052  0.34871  1.0000
  C   C63       1.0  0.03332  0.26485  0.48300  1.0000
  H   H54       1.0  0.22988  0.20875  0.31240  1.0000
  N   N1        1.0  0.09921  0.17021  0.36227  1.0000
  C   C64       1.0  0.10237  0.19591  0.35185  1.0000
  C   C65       1.0  0.09632  0.17006  0.38343  1.0000
  C   C66       1.0  0.10241  0.22245  0.36258  1.0000
  C   C67       1.0  0.09643  0.19618  0.39467  1.0000
  C   C68       1.0  0.09952  0.22250  0.38414  1.0000
  C   C69       1.0  0.09961  0.14250  0.35092  1.0000
  H   H55       1.0  0.10468  0.19603  0.33509  1.0000
  H   H56       1.0  0.09364  0.14971  0.39164  1.0000
  H   H57       1.0  0.10449  0.24292  0.35425  1.0000
  H   H58       1.0  0.09394  0.19615  0.41139  1.0000
  H   H59       1.0  0.09954  0.24293  0.39265  1.0000
  H   H60       1.0  0.11143  0.13257  0.35169  1.0000
  H   H61       1.0  0.09084  0.12678  0.35759  1.0000
  H   H62       1.0  0.09679  0.14568  0.33415  1.0000
  H   H63       1.0  0.24316  0.29133  0.35415  1.0000
  H   H64       1.0  0.25794  0.26713  0.38249  1.0000
  C   C70       1.0  0.03219  0.14697  0.24719  1.0000
  C   C71       1.0  0.11009  0.44615  0.37068  1.0000
  N   N2        1.0  0.08425  0.28234  0.48738  1.0000
  C   C72       1.0  0.24683  0.26870  0.35255  1.0000
  H   H65       1.0  0.20768  0.41267  0.40016  1.0000
  C   C73       1.0  0.10309  0.39999  0.34467  1.0000
  H   H66       1.0  0.19841  0.41168  0.31590  1.0000
  C   C74       1.0  0.02514  0.16490  0.32799  1.0000
  C   C75       1.0  0.25641  0.99360  0.25438  1.0000
  H   H67       1.0  0.26553  0.21517  0.37924  1.0000
  H   H68       1.0  0.24118  0.40770  0.45192  1.0000
  C   C76       1.0  0.20006  0.44869  0.36979  1.0000
  H   H69       1.0  0.24919  0.47978  0.27162  1.0000
  C   C77       1.0  0.07492  0.25539  0.48776  1.0000
  C   C78       1.0  0.25524  0.25527  0.36841  1.0000
  C   C79       1.0  0.03542  0.23538  0.47794  1.0000
  H   H70       1.0  0.10088  0.48377  0.32714  1.0000
  H   H71       1.0  0.25882  0.09109  0.17207  1.0000
  H   H72       1.0  0.16718  0.07852  0.38053  1.0000
  C   C80       1.0  0.24286  0.25252  0.33493  1.0000
  H   H73       1.0  0.26219  0.43919  0.25236  1.0000
  C   C81       1.0  0.24273  0.20739  0.31464  1.0000
  C   C82       1.0  0.25775  0.10391  0.00826  1.0000
  C   C83       1.0  0.02115  0.05712  0.07607  1.0000
  N   N3        1.0  0.02080  0.05056  0.09702  1.0000
  S   S30       1.0  0.06603  0.47841  0.32479  1.0000
  H   H74       1.0  0.19010  0.05562  0.39755  1.0000
  H   H75       1.0  0.26599  0.47875  0.32580  1.0000
  C   C84       1.0  0.02129  0.11907  0.31045  1.0000
  N   N4        1.0  0.10686  0.45145  0.35011  1.0000
  H   H76       1.0  0.09987  0.38218  0.33452  1.0000
  C   C85       1.0  0.10356  0.42880  0.33706  1.0000
  H   H77       1.0  0.25200  0.17041  0.02223  1.0000
  C   C86       1.0  0.05570  0.99916  0.26201  1.0000
  H   H78       1.0  0.03259  0.40122  0.06508  1.0000
  C   C87       1.0  0.16473  0.04380  0.35828  1.0000
  H   H79       1.0  0.20844  0.38051  0.38456  1.0000
  H   H80       1.0  0.19782  0.48964  0.35284  1.0000
  S   S31       1.0  0.23214  0.00641  0.36847  1.0000
  H   H81       1.0  0.20122  0.38197  0.34828  1.0000
  C   C88       1.0  0.02445  0.41609  0.03529  1.0000
  C   C89       1.0  0.01739  0.17919  0.31178  1.0000
  N   N5        1.0  0.20099  0.41888  0.36840  1.0000
  C   C90       1.0  0.20037  0.40559  0.34934  1.0000
  C   C91       1.0  0.20171  0.40091  0.38746  1.0000
  H   H82       1.0  0.11988  0.30710  0.47108  1.0000
  C   C92       1.0  0.25804  0.48455  0.25971  1.0000
  H   H83       1.0  0.10427  0.26170  0.47354  1.0000
  C   C93       1.0  0.19771  0.45259  0.33231  1.0000
  C   C94       1.0  0.26548  0.46157  0.24878  1.0000
  H   H84       1.0  0.24395  0.20138  0.00823  1.0000
  H   H85       1.0  0.03152  0.00463  0.27124  1.0000
  S   S32       1.0  0.25885  0.04927  0.27147  1.0000
  H   H86       1.0  0.11962  0.48873  0.33924  1.0000
  C   C95       1.0  0.17091  0.01736  0.35109  1.0000
  H   H87       1.0  0.25678  0.21549  0.04648  1.0000
  C   C96       1.0  0.19880  0.42223  0.33101  1.0000
  N   N6        1.0  0.18357  0.00503  0.36042  1.0000
  H   H88       1.0  0.11138  0.41355  0.39537  1.0000
  N   N7        1.0  0.24713  0.22380  0.33323  1.0000
  C   C97       1.0  0.02300  0.07396  0.11223  1.0000
  H   H89       1.0  0.10826  0.35401  0.48313  1.0000
  C   C98       1.0  0.10964  0.41763  0.37882  1.0000
  H   H90       1.0  0.05532  0.01575  0.24976  1.0000
  H   H91       1.0  0.14776  0.00869  0.29770  1.0000
  C   C99       1.0  0.10159  0.33385  0.48463  1.0000
  H   H92       1.0  0.26441  0.01697  0.35001  1.0000
  H   H93       1.0  0.25407  0.03207  0.99918  1.0000
  H   H94       1.0  0.01965  0.04030  0.04464  1.0000
  H   H95       1.0  0.01867  0.01688  0.12035  1.0000
  C   C100      1.0  0.01935  0.03507  0.06126  1.0000
  C   C101      1.0  0.01903  0.02220  0.10374  1.0000
  H   H96       1.0  0.01815  0.06774  0.12795  1.0000
  H   H97       1.0  0.01730  0.06739  0.24304  1.0000
  H   H98       1.0  0.01672  0.09415  0.10742  1.0000
  C   C102      1.0  0.01714  0.00621  0.06800  1.0000
  Fe  Fe17      1.0  0.05672  0.33267  0.80130  1.0000
  S   S33       1.0  0.03948  0.31614  0.82584  1.0000
  S   S34       1.0  0.05043  0.35426  0.76989  1.0000
  Fe  Fe18      1.0  0.08504  0.32144  0.82994  1.0000
  S   S35       1.0  0.06933  0.30495  0.85612  1.0000
  S   S36       1.0  0.10960  0.32359  0.84273  1.0000
  Fe  Fe19      1.0  0.05691  0.27992  0.83168  1.0000
  S   S37       1.0  0.05110  0.23122  0.83510  1.0000
  Fe  Fe20      1.0  0.05381  0.34255  0.84807  1.0000
  S   S38       1.0  0.04416  0.37032  0.87443  1.0000
  S   S39       1.0  0.07336  0.29448  0.80542  1.0000
  S   S40       1.0  0.07021  0.36083  0.82355  1.0000
  Fe  Fe21      1.0  0.19914  0.30641  0.80952  1.0000
  S   S41       1.0  0.20659  0.32062  0.84131  1.0000
  S   S42       1.0  0.17516  0.30963  0.79495  1.0000
  Fe  Fe22      1.0  0.23278  0.29016  0.79499  1.0000
  S   S43       1.0  0.24298  0.30314  0.82586  1.0000
  S   S44       1.0  0.24297  0.27268  0.76405  1.0000
  Fe  Fe23      1.0  0.22184  0.28036  0.84026  1.0000
  S   S45       1.0  0.22236  0.25275  0.86979  1.0000
  Fe  Fe24      1.0  0.22703  0.34252  0.82491  1.0000
  S   S46       1.0  0.23482  0.38985  0.82999  1.0000
  S   S47       1.0  0.21276  0.26446  0.80972  1.0000
  S   S48       1.0  0.21849  0.33124  0.79289  1.0000
  Fe  Fe25      1.0  0.05054  0.05006  0.94453  1.0000
  S   S49       1.0  0.04426  0.06921  0.91304  1.0000
  S   S50       1.0  0.03190  0.05069  0.97110  1.0000
  Fe  Fe26      1.0  0.08512  0.04282  0.93044  1.0000
  S   S51       1.0  0.08118  0.06140  0.89845  1.0000
  S   S52       1.0  0.10842  0.02199  0.93807  1.0000
  Fe  Fe27      1.0  0.06647  0.09550  0.91453  1.0000
  S   S53       1.0  0.06961  0.14495  0.90969  1.0000
  Fe  Fe28      1.0  0.05945  0.03351  0.89958  1.0000
  H   H99       1.0  0.05103  0.17665  0.94392  1.0000
  S   S54       1.0  0.07197  0.07872  0.94691  1.0000
  S   S55       1.0  0.06418  0.01265  0.93070  1.0000
  Fe  Fe29      1.0  0.19820  0.07142  0.92096  1.0000
  S   S56       1.0  0.20966  0.05543  0.89117  1.0000
  S   S57       1.0  0.17317  0.08852  0.92067  1.0000
  Fe  Fe30      1.0  0.22971  0.07484  0.94400  1.0000
  S   S58       1.0  0.24327  0.05891  0.91570  1.0000
  S   S59       1.0  0.23894  0.08404  0.97692  1.0000
  Fe  Fe31      1.0  0.22803  0.08944  0.89723  1.0000
  S   S60       1.0  0.23619  0.11670  0.86916  1.0000
  Fe  Fe32      1.0  0.22380  0.02596  0.91174  1.0000
  S   S61       1.0  0.21601  0.47054  0.90760  1.0000
  S   S62       1.0  0.21579  0.10745  0.92565  1.0000
  S   S63       1.0  0.21110  0.03975  0.94150  1.0000
  C   C103      1.0  0.25528  0.02186  0.98398  1.0000
  C   C104      1.0  0.03784  0.33985  0.70115  1.0000
  N   N8        1.0  0.19997  0.40501  0.80189  1.0000
  H   H100      1.0  0.03984  0.14370  0.57769  1.0000
  H   H101      1.0  0.21146  0.44060  0.81646  1.0000
  C   C105      1.0  0.12637  0.04040  0.93268  1.0000
  C   C106      1.0  0.12675  0.06947  0.92571  1.0000
  C   C107      1.0  0.14119  0.08372  0.92203  1.0000
  C   C108      1.0  0.15540  0.06904  0.92508  1.0000
  C   C109      1.0  0.15505  0.03983  0.93179  1.0000
  C   C110      1.0  0.14058  0.02563  0.93565  1.0000
  H   H102      1.0  0.11591  0.08110  0.92344  1.0000
  H   H103      1.0  0.14135  0.10633  0.91692  1.0000
  H   H104      1.0  0.16589  0.02831  0.93424  1.0000
  C   C111      1.0  0.02358  0.32871  0.70896  1.0000
  C   C112      1.0  0.24899  0.42274  0.50260  1.0000
  C   C113      1.0  0.01892  0.22008  0.50817  1.0000
  C   C114      1.0  0.02779  0.10591  0.59070  1.0000
  C   C115      1.0  0.03106  0.12698  0.57524  1.0000
  H   H105      1.0  0.08631  0.25139  0.83556  1.0000
  C   C116      1.0  0.22107  0.44888  0.88555  1.0000
  C   C117      1.0  0.21714  0.41898  0.88597  1.0000
  C   C118      1.0  0.22132  0.40059  0.86918  1.0000
  C   C119      1.0  0.22969  0.41185  0.85185  1.0000
  C   C120      1.0  0.23373  0.44173  0.85148  1.0000
  C   C121      1.0  0.22935  0.46023  0.86815  1.0000
  H   H106      1.0  0.21079  0.40994  0.89938  1.0000
  H   H107      1.0  0.21811  0.37768  0.86969  1.0000
  H   H108      1.0  0.24020  0.45067  0.83814  1.0000
  H   H109      1.0  0.09622  0.99866  0.89884  1.0000
  C   C122      1.0  0.22757  0.21553  0.86933  1.0000
  C   C123      1.0  0.22719  0.19955  0.88818  1.0000
  C   C124      1.0  0.23000  0.16932  0.88831  1.0000
  C   C125      1.0  0.23350  0.15492  0.86962  1.0000
  C   C126      1.0  0.23436  0.17105  0.85078  1.0000
  C   C127      1.0  0.23123  0.20126  0.85059  1.0000
  H   H110      1.0  0.22440  0.21051  0.90272  1.0000
  H   H111      1.0  0.22954  0.15724  0.90292  1.0000
  H   H112      1.0  0.23714  0.16001  0.83628  1.0000
  H   H113      1.0  0.23142  0.21345  0.83601  1.0000
  C   C128      1.0  0.05529  0.20793  0.85668  1.0000
  C   C129      1.0  0.06283  0.21820  0.87438  1.0000
  C   C130      1.0  0.06688  0.19863  0.89055  1.0000
  C   C131      1.0  0.06352  0.16858  0.88922  1.0000
  C   C132      1.0  0.05565  0.15836  0.87177  1.0000
  C   C133      1.0  0.05157  0.17797  0.85560  1.0000
  H   H114      1.0  0.06570  0.24117  0.87552  1.0000
  H   H115      1.0  0.07288  0.20680  0.90404  1.0000
  H   H116      1.0  0.05291  0.13532  0.87056  1.0000
  H   H117      1.0  0.04572  0.16980  0.84199  1.0000
  C   C134      1.0  0.04730  0.40845  0.87361  1.0000
  C   C135      1.0  0.05349  0.42240  0.85568  1.0000
  C   C136      1.0  0.05486  0.45298  0.85494  1.0000
  C   C137      1.0  0.05042  0.46979  0.87228  1.0000
  C   C138      1.0  0.04483  0.45585  0.89054  1.0000
  C   C139      1.0  0.04311  0.42526  0.89110  1.0000
  H   H118      1.0  0.05662  0.40984  0.84207  1.0000
  H   H119      1.0  0.05912  0.46369  0.84074  1.0000
  H   H120      1.0  0.04123  0.46872  0.90393  1.0000
  H   H121      1.0  0.03832  0.41464  0.90505  1.0000
  C   C140      1.0  0.12754  0.31775  0.82912  1.0000
  C   C141      1.0  0.14133  0.31569  0.84064  1.0000
  C   C142      1.0  0.15597  0.31220  0.83046  1.0000
  C   C143      1.0  0.15695  0.31125  0.80860  1.0000
  C   C144      1.0  0.14314  0.31294  0.79711  1.0000
  C   C145      1.0  0.12847  0.31600  0.80731  1.0000
  H   H122      1.0  0.14070  0.31699  0.85754  1.0000
  H   H123      1.0  0.16650  0.31081  0.83947  1.0000
  H   H124      1.0  0.14382  0.31221  0.78019  1.0000
  H   H125      1.0  0.11795  0.31763  0.79827  1.0000
  C   C146      1.0  0.25120  0.20663  0.79051  1.0000
  H   H126      1.0  0.23614  0.17252  0.75743  1.0000
  H   H127      1.0  0.19492  0.43817  0.84869  1.0000
  C   C147      1.0  0.03191  0.38325  0.74163  1.0000
  C   C148      1.0  0.03208  0.36470  0.75936  1.0000
  C   C149      1.0  0.21042  0.40617  0.78339  1.0000
  H   H128      1.0  0.04286  0.39127  0.73495  1.0000
  H   H129      1.0  0.08769  0.36001  0.87151  1.0000
  H   H130      1.0  0.10729  0.24992  0.83127  1.0000
  H   H131      1.0  0.09903  0.26212  0.85587  1.0000
  H   H132      1.0  0.03066  0.37310  0.80655  1.0000
  N   N9        1.0  0.19457  0.14790  0.86507  1.0000
  C   C150      1.0  0.19387  0.17711  0.86036  1.0000
  C   C151      1.0  0.19107  0.13807  0.88490  1.0000
  C   C152      1.0  0.19010  0.19742  0.87590  1.0000
  C   C153      1.0  0.18723  0.15772  0.90082  1.0000
  C   C154      1.0  0.18687  0.18761  0.89629  1.0000
  C   C155      1.0  0.19842  0.12687  0.84858  1.0000
  H   H133      1.0  0.19673  0.18500  0.84467  1.0000
  H   H134      1.0  0.19141  0.11489  0.88856  1.0000
  H   H135      1.0  0.19026  0.22069  0.87230  1.0000
  H   H136      1.0  0.18468  0.14966  0.91658  1.0000
  H   H137      1.0  0.18428  0.20315  0.90859  1.0000
  H   H138      1.0  0.18769  0.12064  0.84024  1.0000
  H   H139      1.0  0.20724  0.13615  0.83732  1.0000
  H   H140      1.0  0.20380  0.10679  0.85527  1.0000
  H   H141      1.0  0.25426  0.34641  0.51881  1.0000
  H   H142      1.0  0.07733  0.43593  0.90822  1.0000
  C   C156      1.0  0.09764  0.24627  0.84294  1.0000
  H   H143      1.0  0.04853  0.33598  0.70960  1.0000
  N   N10       1.0  0.03387  0.14264  0.94121  1.0000
  H   H144      1.0  0.21060  0.42852  0.77646  1.0000
  C   C157      1.0  0.18854  0.38406  0.80370  1.0000
  H   H145      1.0  0.08316  0.48594  0.87897  1.0000
  C   C158      1.0  0.19280  0.42323  0.83594  1.0000
  H   H146      1.0  0.01764  0.34003  0.78123  1.0000
  H   H147      1.0  0.23254  0.48314  0.86766  1.0000
  C   C159      1.0  0.02616  0.11953  0.95049  1.0000
  H   H148      1.0  0.09687  0.13616  0.87116  1.0000
  C   C160      1.0  0.09752  0.15839  0.86505  1.0000
  N   N11       1.0  0.09222  0.44287  0.88139  1.0000
  C   C161      1.0  0.08336  0.42604  0.89496  1.0000
  C   C162      1.0  0.09921  0.43066  0.86410  1.0000
  C   C163      1.0  0.08170  0.39597  0.89171  1.0000
  C   C164      1.0  0.09780  0.40063  0.86039  1.0000
  H   H149      1.0  0.03639  0.16973  0.91394  1.0000
  C   C165      1.0  0.03097  0.41991  0.80317  1.0000
  C   C166      1.0  0.24290  0.00487  0.97679  1.0000
  H   H150      1.0  0.10592  0.44410  0.85307  1.0000
  C   C167      1.0  0.24607  0.48123  0.95200  1.0000
  H   H151      1.0  0.10340  0.39078  0.84676  1.0000
  C   C168      1.0  0.25177  0.45371  0.92010  1.0000
  H   H152      1.0  0.17006  0.36541  0.82309  1.0000
  H   H153      1.0  0.25105  0.46642  0.96396  1.0000
  H   H154      1.0  0.23232  0.00200  0.98630  1.0000
  C   C169      1.0  0.02322  0.02164  0.98622  1.0000
  H   H155      1.0  0.24452  0.41784  0.51826  1.0000
  H   H156      1.0  0.17415  0.40007  0.85226  1.0000
  H   H157      1.0  0.04906  0.36548  0.67656  1.0000
  H   H158      1.0  0.07438  0.38275  0.90222  1.0000
  C   C170      1.0  0.25547  0.10319  0.98649  1.0000
  H   H159      1.0  0.06557  0.30869  0.49931  1.0000
  C   C171      1.0  0.03019  0.15161  0.92143  1.0000
  H   H160      1.0  0.02220  0.29438  0.50477  1.0000
  H   H161      1.0  0.14040  0.00316  0.94108  1.0000
  C   C172      1.0  0.17898  0.38221  0.82171  1.0000
  H   H162      1.0  0.10426  0.48386  0.87732  1.0000
  H   H163      1.0  0.26503  0.11642  0.95644  1.0000
  H   H164      1.0  0.18687  0.36832  0.79133  1.0000
  C   C173      1.0  0.10479  0.20906  0.86897  1.0000
  C   C174      1.0  0.03811  0.35655  0.68273  1.0000
  C   C175      1.0  0.04646  0.15701  0.95248  1.0000
  S   S64       1.0  0.05420  0.00861  0.87012  1.0000
  H   H165      1.0  0.02929  0.11206  0.96601  1.0000
  C   C176      1.0  0.20209  0.42457  0.81764  1.0000
  H   H166      1.0  0.02507  0.14355  0.54491  1.0000
  H   H167      1.0  0.04226  0.16386  0.96824  1.0000
  C   C177      1.0  0.25950  0.45008  0.90078  1.0000
  C   C178      1.0  0.02419  0.36179  0.67234  1.0000
  H   H168      1.0  0.10979  0.17489  0.89153  1.0000
  H   H169      1.0  0.09237  0.00196  0.86064  1.0000
  C   C179      1.0  0.02393  0.27171  0.50066  1.0000
  H   H170      1.0  0.25236  0.25246  0.72348  1.0000
  H   H171      1.0  0.25681  0.43140  0.89110  1.0000
  C   C180      1.0  0.08900  0.38325  0.87434  1.0000
  C   C181      1.0  0.26317  0.35523  0.50821  1.0000
  C   C182      1.0  0.18123  0.40177  0.83799  1.0000
  C   C183      1.0  0.10470  0.18023  0.87656  1.0000
  C   C184      1.0  0.09085  0.19460  0.83902  1.0000
  H   H172      1.0  0.11026  0.22598  0.87810  1.0000
  H   H173      1.0  0.08497  0.20018  0.82463  1.0000
  C   C185      1.0  0.26147  0.26075  0.75407  1.0000
  H   H174      1.0  0.24307  0.43764  0.92518  1.0000
  C   C186      1.0  0.09064  0.16553  0.84608  1.0000
  N   N12       1.0  0.09769  0.21596  0.85059  1.0000
  C   C187      1.0  0.01862  0.13710  0.91033  1.0000
  H   H175      1.0  0.08465  0.14886  0.83730  1.0000
  H   H176      1.0  0.03401  0.10610  0.60531  1.0000
  H   H177      1.0  0.22250  0.40020  0.78796  1.0000
  C   C188      1.0  0.01779  0.35461  0.76780  1.0000
  H   H178      1.0  0.20677  0.39063  0.77113  1.0000
  C   C189      1.0  0.02261  0.12684  0.55673  1.0000
  H   H179      1.0  0.02416  0.37456  0.65790  1.0000
  H   H180      1.0  0.23971  0.21598  0.79339  1.0000
  C   C190      1.0  0.02764  0.39374  0.81372  1.0000
  C   C191      1.0  0.01708  0.42118  0.84279  1.0000
  C   C192      1.0  0.09358  0.47438  0.88499  1.0000
  N   N13       1.0  0.26267  0.43802  0.49973  1.0000
  N   N14       1.0  0.25453  0.47785  0.93196  1.0000
  H   H181      1.0  0.23501  0.21206  0.75623  1.0000
  H   H182      1.0  0.05643  0.14164  0.95415  1.0000
  H   H183      1.0  0.01779  0.40558  0.71866  1.0000
  H   H184      1.0  0.23345  0.47603  0.95019  1.0000
  C   C193      1.0  0.02737  0.44645  0.81286  1.0000
  H   H185      1.0  0.02344  0.31617  0.72347  1.0000
  C   C194      1.0  0.24304  0.19296  0.75537  1.0000
  H   H186      1.0  0.09454  0.47894  0.90197  1.0000
  C   C195      1.0  0.01770  0.39141  0.73232  1.0000
  H   H187      1.0  0.01723  0.47296  0.85984  1.0000
  H   H188      1.0  0.26441  0.46784  0.52487  1.0000
  H   H189      1.0  0.24850  0.19358  0.73941  1.0000
  N   N15       1.0  0.25494  0.19472  0.77148  1.0000
  H   H190      1.0  0.25943  0.21807  0.82112  1.0000
  H   H191      1.0  0.08085  0.35462  0.49725  1.0000
  H   H192      1.0  0.03007  0.46675  0.80462  1.0000
  N   N16       1.0  0.02076  0.44682  0.83257  1.0000
  C   C196      1.0  0.26232  0.20800  0.80622  1.0000
  C   C197      1.0  0.26248  0.25081  0.73329  1.0000
  H   H193      1.0  0.03640  0.41947  0.78764  1.0000
  C   C198      1.0  0.25743  0.99738  0.94454  1.0000
  H   H194      1.0  0.06517  0.25647  0.49956  1.0000
  H   H195      1.0  0.25718  0.17652  0.99530  1.0000
  H   H196      1.0  0.01818  0.37399  0.84207  1.0000
  C   C199      1.0  0.02055  0.39427  0.83358  1.0000
  C   C200      1.0  0.01639  0.08470  0.58732  1.0000
  C   C201      1.0  0.01670  0.24955  0.51309  1.0000
  H   H197      1.0  0.02612  0.49166  0.83817  1.0000
  C   C202      1.0  0.01712  0.47486  0.84247  1.0000
  Fe  Fe33      1.0  0.09226  0.57799  0.31497  1.0000
  S   S65       1.0  0.08261  0.55672  0.34426  1.0000
  S   S66       1.0  0.11689  0.59692  0.31437  1.0000
  Fe  Fe34      1.0  0.05978  0.57968  0.29404  1.0000
  S   S67       1.0  0.04784  0.55885  0.32236  1.0000
  S   S68       1.0  0.04974  0.59116  0.26188  1.0000
  Fe  Fe35      1.0  0.06300  0.58898  0.34109  1.0000
  S   S69       1.0  0.05692  0.61269  0.37107  1.0000
  Fe  Fe36      1.0  0.06854  0.52828  0.32326  1.0000
  N   N17       1.0  0.03334  0.69681  0.43793  1.0000
  S   S70       1.0  0.07333  0.61191  0.31290  1.0000
  S   S71       1.0  0.07972  0.54726  0.29375  1.0000
  Fe  Fe37      1.0  0.23733  0.54549  0.29808  1.0000
  S   S72       1.0  0.24674  0.56301  0.32820  1.0000
  S   S73       1.0  0.25439  0.54344  0.26991  1.0000
  Fe  Fe38      1.0  0.20382  0.54149  0.31702  1.0000
  S   S74       1.0  0.21097  0.55906  0.34806  1.0000
  S   S75       1.0  0.17952  0.52177  0.31408  1.0000
  Fe  Fe39      1.0  0.22547  0.59190  0.32963  1.0000
  S   S76       1.0  0.22743  0.64162  0.33375  1.0000
  Fe  Fe40      1.0  0.23149  0.52880  0.34398  1.0000
  H   H198      1.0  0.04387  0.66782  0.46000  1.0000
  S   S77       1.0  0.21674  0.57642  0.29845  1.0000
  S   S78       1.0  0.22366  0.50925  0.31399  1.0000
  Fe  Fe41      1.0  0.06084  0.78525  0.44708  1.0000
  S   S79       1.0  0.04720  0.80548  0.42087  1.0000
  S   S80       1.0  0.05221  0.76550  0.47848  1.0000
  Fe  Fe42      1.0  0.09205  0.78976  0.42157  1.0000
  S   S81       1.0  0.08056  0.81014  0.39385  1.0000
  S   S82       1.0  0.11689  0.77458  0.41546  1.0000
  Fe  Fe43      1.0  0.06738  0.83751  0.41713  1.0000
  S   S83       1.0  0.06473  0.88722  0.41456  1.0000
  Fe  Fe44      1.0  0.06176  0.77652  0.39977  1.0000
  S   S84       1.0  0.05319  0.75102  0.37210  1.0000
  S   S85       1.0  0.08021  0.81918  0.44494  1.0000
  S   S86       1.0  0.07402  0.75441  0.42598  1.0000
  Fe  Fe45      1.0  0.20110  0.82751  0.43350  1.0000
  S   S87       1.0  0.20428  0.81107  0.40077  1.0000
  S   S88       1.0  0.17724  0.84081  0.44641  1.0000
  Fe  Fe46      1.0  0.23624  0.82301  0.44315  1.0000
  S   S89       1.0  0.24182  0.80594  0.41073  1.0000
  S   S90       1.0  0.25542  0.82121  0.46787  1.0000
  Fe  Fe47      1.0  0.22529  0.84104  0.39969  1.0000
  S   S91       1.0  0.22950  0.86737  0.36975  1.0000
  Fe  Fe48      1.0  0.22037  0.77747  0.41444  1.0000
  S   S92       1.0  0.21789  0.72778  0.41088  1.0000
  S   S93       1.0  0.22110  0.85989  0.43169  1.0000
  S   S94       1.0  0.21577  0.79220  0.44757  1.0000
  C   C203      1.0  0.13350  0.79160  0.42588  1.0000
  C   C204      1.0  0.14838  0.78285  0.41869  1.0000
  C   C205      1.0  0.16191  0.79711  0.42547  1.0000
  C   C206      1.0  0.16066  0.82016  0.43961  1.0000
  C   C207      1.0  0.14579  0.82832  0.44733  1.0000
  C   C208      1.0  0.13222  0.81418  0.44041  1.0000
  H   H199      1.0  0.14944  0.76529  0.40754  1.0000
  H   H200      1.0  0.17329  0.79052  0.41957  1.0000
  H   H201      1.0  0.14477  0.84603  0.45837  1.0000
  H   H202      1.0  0.12081  0.82089  0.44619  1.0000
  C   C209      1.0  0.22664  0.66445  0.35613  1.0000
  C   C210      1.0  0.22987  0.69450  0.35355  1.0000
  C   C211      1.0  0.22773  0.71415  0.37026  1.0000
  C   C212      1.0  0.22224  0.70392  0.38976  1.0000
  C   C213      1.0  0.21958  0.67372  0.39258  1.0000
  C   C214      1.0  0.22178  0.65406  0.37589  1.0000
  H   H203      1.0  0.23368  0.70276  0.33834  1.0000
  H   H204      1.0  0.22992  0.73727  0.36787  1.0000
  H   H205      1.0  0.21543  0.66553  0.40766  1.0000
  H   H206      1.0  0.21933  0.63100  0.37817  1.0000
  C   C215      1.0  0.25209  0.71141  0.42731  1.0000
  C   C216      1.0  0.22922  0.95209  0.35004  1.0000
  C   C217      1.0  0.22881  0.92133  0.35065  1.0000
  C   C218      1.0  0.22933  0.90605  0.36980  1.0000
  C   C219      1.0  0.23021  0.92185  0.38838  1.0000
  C   C220      1.0  0.23085  0.95261  0.38774  1.0000
  H   H207      1.0  0.22900  0.96347  0.33517  1.0000
  H   H208      1.0  0.22815  0.90926  0.33621  1.0000
  H   H209      1.0  0.23076  0.91037  0.40321  1.0000
  H   H210      1.0  0.23187  0.96458  0.40218  1.0000
  C   C221      1.0  0.07312  0.95072  0.35856  1.0000
  C   C222      1.0  0.07581  0.92052  0.35626  1.0000
  C   C223      1.0  0.07324  0.90078  0.37313  1.0000
  C   C224      1.0  0.06796  0.91101  0.39260  1.0000
  C   C225      1.0  0.06534  0.94121  0.39492  1.0000
  C   C226      1.0  0.06787  0.96096  0.37803  1.0000
  H   H211      1.0  0.07989  0.91230  0.34131  1.0000
  H   H212      1.0  0.07526  0.87765  0.37103  1.0000
  H   H213      1.0  0.06126  0.94941  0.40990  1.0000
  H   H214      1.0  0.03329  0.71798  0.19051  1.0000
  C   C227      1.0  0.05673  0.65114  0.37073  1.0000
  C   C228      1.0  0.05946  0.66614  0.38932  1.0000
  C   C229      1.0  0.05897  0.69681  0.38972  1.0000
  C   C230      1.0  0.05537  0.71268  0.37165  1.0000
  C   C231      1.0  0.05275  0.69765  0.35301  1.0000
  C   C232      1.0  0.05357  0.66696  0.35248  1.0000
  H   H215      1.0  0.06190  0.65398  0.40347  1.0000
  H   H216      1.0  0.06087  0.70800  0.40419  1.0000
  H   H217      1.0  0.04989  0.70976  0.33898  1.0000
  H   H218      1.0  0.05132  0.65552  0.33811  1.0000
  C   C233      1.0  0.13414  0.57555  0.31447  1.0000
  C   C234      1.0  0.14875  0.58972  0.31482  1.0000
  C   C235      1.0  0.16274  0.57351  0.31477  1.0000
  C   C236      1.0  0.16222  0.54297  0.31438  1.0000
  C   C237      1.0  0.14760  0.52879  0.31409  1.0000
  C   C238      1.0  0.13361  0.54499  0.31415  1.0000
  H   H219      1.0  0.14925  0.61335  0.31485  1.0000
  H   H220      1.0  0.17393  0.58456  0.31466  1.0000
  H   H221      1.0  0.14713  0.50517  0.31360  1.0000
  H   H222      1.0  0.12243  0.53394  0.31365  1.0000
  C   C239      1.0  0.03075  0.61520  0.23200  1.0000
  H   H223      1.0  0.20004  0.98535  0.33992  1.0000
  C   C240      1.0  0.04709  0.51079  0.25534  1.0000
  C   C241      1.0  0.26334  0.84928  0.48381  1.0000
  H   H224      1.0  0.12900  0.90750  0.43077  1.0000
  H   H225      1.0  0.05624  0.58310  0.00504  1.0000
  H   H226      1.0  0.09135  0.94330  0.27338  1.0000
  H   H227      1.0  0.09743  0.87052  0.40194  1.0000
  H   H228      1.0  0.16565  0.85999  0.39945  1.0000
  H   H229      1.0  0.15730  0.89838  0.42429  1.0000
  C   C242      1.0  0.03560  0.50465  0.28993  1.0000
  C   C243      1.0  0.12614  0.85310  0.39611  1.0000
  C   C244      1.0  0.03390  0.75289  0.48910  1.0000
  C   C245      1.0  0.03239  0.60893  0.25348  1.0000
  C   C246      1.0  0.23041  0.96785  0.36860  1.0000
  C   C247      1.0  0.03928  0.69045  0.45883  1.0000
  C   C248      1.0  0.25902  0.62937  0.00426  1.0000
  C   C249      1.0  0.03266  0.72517  0.43101  1.0000
  C   C250      1.0  0.09944  0.65718  0.38459  1.0000
  H   H230      1.0  0.02657  0.75427  0.40561  1.0000
  H   H231      1.0  0.11748  0.83909  0.38908  1.0000
  H   H232      1.0  0.08615  0.66535  0.33614  1.0000
  H   H233      1.0  0.24583  0.99088  0.26383  1.0000
  H   H234      1.0  0.04905  0.70550  0.46261  1.0000
  H   H235      1.0  0.06574  0.98407  0.38010  1.0000
  C   C251      1.0  0.01977  0.75694  0.47881  1.0000
  H   H236      1.0  0.25559  0.95001  0.24173  1.0000
  C   C252      1.0  0.26618  0.97224  0.33998  1.0000
  H   H237      1.0  0.05777  0.94351  0.30758  1.0000
  C   C253      1.0  0.02291  0.53385  0.26365  1.0000
  C   C254      1.0  0.10211  0.67316  0.40274  1.0000
  C   C255      1.0  0.02686  0.51367  0.00973  1.0000
  C   C256      1.0  0.09395  0.65404  0.34727  1.0000
  H   H238      1.0  0.01835  0.66271  0.39602  1.0000
  H   H239      1.0  0.26485  0.92327  0.48991  1.0000
  N   N18       1.0  0.18804  0.66414  0.34835  1.0000
  C   C257      1.0  0.19301  0.68532  0.33442  1.0000
  C   C258      1.0  0.18381  0.67134  0.36842  1.0000
  C   C259      1.0  0.19391  0.71458  0.34054  1.0000
  C   C260      1.0  0.18468  0.70035  0.37511  1.0000
  C   C261      1.0  0.18979  0.72205  0.36105  1.0000
  C   C262      1.0  0.18737  0.63342  0.34203  1.0000
  H   H240      1.0  0.19687  0.67950  0.31871  1.0000
  H   H241      1.0  0.18021  0.65446  0.37956  1.0000
  H   H242      1.0  0.19835  0.73114  0.32967  1.0000
  H   H243      1.0  0.18200  0.70587  0.39129  1.0000
  H   H244      1.0  0.19106  0.74444  0.36630  1.0000
  H   H245      1.0  0.17508  0.62548  0.34236  1.0000
  H   H246      1.0  0.19240  0.63017  0.32600  1.0000
  H   H247      1.0  0.19445  0.61977  0.35273  1.0000
  N   N19       1.0  0.09601  0.67119  0.36625  1.0000
  H   H248      1.0  0.25776  0.69096  0.39779  1.0000
  H   H249      1.0  0.01737  0.71419  0.38309  1.0000
  C   C263      1.0  0.02003  0.61581  0.26726  1.0000
  H   H250      1.0  0.02106  0.61113  0.28381  1.0000
  C   C264      1.0  0.26200  0.97044  0.24187  1.0000
  C   C265      1.0  0.02795  0.67459  0.42580  1.0000
  C   C266      1.0  0.09784  0.71772  0.38322  1.0000
  C   C267      1.0  0.14857  0.88634  0.41575  1.0000
  H   H251      1.0  0.02397  0.55346  0.22558  1.0000
  H   H252      1.0  0.10475  0.66203  0.41730  1.0000
  H   H253      1.0  0.03404  0.52122  0.21671  1.0000
  H   H254      1.0  0.09998  0.63348  0.38525  1.0000
  C   C268      1.0  0.10137  0.70362  0.40198  1.0000
  H   H255      1.0  0.09233  0.71220  0.35090  1.0000
  C   C269      1.0  0.26223  0.51361  0.25536  1.0000
  S   S95       1.0  0.07651  0.97436  0.33655  1.0000
  C   C270      1.0  0.04304  0.97262  0.29049  1.0000
  H   H256      1.0  0.04023  0.61011  0.22115  1.0000
  C   C271      1.0  0.02343  0.72058  0.20131  1.0000
  H   H257      1.0  0.02976  0.69330  0.47078  1.0000
  C   C272      1.0  0.14202  0.84790  0.39188  1.0000
  H   H258      1.0  0.02844  0.65208  0.43125  1.0000
  C   C273      1.0  0.08543  0.95193  0.28766  1.0000
  H   H259      1.0  0.03701  0.74276  0.44056  1.0000
  C   C274      1.0  0.02667  0.73185  0.41135  1.0000
  H   H260      1.0  0.08404  0.93369  0.29920  1.0000
  H   H261      1.0  0.19602  0.96489  0.36379  1.0000
  C   C275      1.0  0.02296  0.70545  0.22037  1.0000
  H   H262      1.0  0.03239  0.69079  0.22452  1.0000
  H   H263      1.0  0.08843  0.63253  0.35109  1.0000
  C   C276      1.0  0.09522  0.70107  0.36537  1.0000
  H   H264      1.0  0.10350  0.71633  0.41590  1.0000
  H   H265      1.0  0.25102  0.64485  0.01136  1.0000
  N   N20       1.0  0.25440  0.73496  0.43991  1.0000
  H   H266      1.0  0.26610  0.58738  0.04528  1.0000
  H   H267      1.0  0.01962  0.76920  0.46427  1.0000
  C   C277      1.0  0.15328  0.86470  0.40175  1.0000
  H   H268      1.0  0.09707  0.74142  0.38260  1.0000
  C   C278      1.0  0.10498  0.87958  0.41425  1.0000
  H   H269      1.0  0.10224  0.90330  0.41517  1.0000
  N   N21       1.0  0.12162  0.87483  0.40950  1.0000
  C   C279      1.0  0.02317  0.52241  0.28404  1.0000
  H   H270      1.0  0.09303  0.96869  0.29488  1.0000
  H   H271      1.0  0.10546  0.65004  0.33936  1.0000
  H   H272      1.0  0.18200  0.96524  0.34327  1.0000
  H   H273      1.0  0.10164  0.86897  0.42942  1.0000
  H   H274      1.0  0.14557  0.83008  0.38179  1.0000
  C   C280      1.0  0.04769  0.49895  0.27558  1.0000
  C   C281      1.0  0.13259  0.89112  0.41949  1.0000
  N   N22       1.0  0.03472  0.52773  0.24955  1.0000
  H   H275      1.0  0.03606  0.49580  0.30575  1.0000
  H   H276      1.0  0.24981  0.72206  0.47144  1.0000
  H   H277      1.0  0.03282  0.96823  0.30040  1.0000
  C   C282      1.0  0.05722  0.95869  0.29446  1.0000
  H   H278      1.0  0.04491  0.55312  0.22488  1.0000
  H   H279      1.0  0.03511  0.52371  0.02007  1.0000
  C   C283      1.0  0.02142  0.70931  0.39872  1.0000
  N   N23       1.0  0.07035  0.96508  0.28258  1.0000
  C   C284      1.0  0.02203  0.68046  0.40595  1.0000
  H   H280      1.0  0.05666  0.50668  0.24435  1.0000
  C   C285      1.0  0.03435  0.53937  0.22810  1.0000
  C   C286      1.0  0.19073  0.97877  0.35146  1.0000
  C   C287      1.0  0.24527  0.73742  0.45950  1.0000
  H   H281      1.0  0.23272  0.73245  0.45677  1.0000
  S   S96       1.0  0.23840  0.50150  0.37196  1.0000
  H   H282      1.0  0.24337  0.69498  0.43159  1.0000
  C   C288      1.0  0.26021  0.87894  0.48041  1.0000
  H   H283      1.0  0.26174  0.96328  0.35475  1.0000
  C   C289      1.0  0.26019  0.70903  0.40814  1.0000
  H   H284      1.0  0.24570  0.75998  0.46585  1.0000
  H   H285      1.0  0.10148  0.49663  0.35329  1.0000
  H   H286      1.0  0.25241  0.88537  0.46809  1.0000
  C   C290      1.0  0.01693  0.62790  0.22434  1.0000
  H   H287      1.0  0.08022  0.99084  0.25757  1.0000
  C   C291      1.0  0.06972  0.98503  0.26653  1.0000
  H   H288      1.0  0.08139  0.61053  0.00263  1.0000
  C   C292      1.0  0.26533  0.75576  0.43447  1.0000
  C   C293      1.0  0.04231  0.99296  0.27414  1.0000
  Fe  Fe49      1.0  0.05874  0.83117  0.79675  1.0000
  S   S97       1.0  0.04636  0.81167  0.82521  1.0000
  S   S98       1.0  0.04888  0.83809  0.76386  1.0000
  Fe  Fe50      1.0  0.09054  0.83234  0.81882  1.0000
  S   S99       1.0  0.08038  0.81334  0.84859  1.0000
  S   S100      1.0  0.11562  0.84817  0.82030  1.0000
  Fe  Fe51      1.0  0.06736  0.78217  0.82844  1.0000
  S   S101      1.0  0.06774  0.73215  0.83156  1.0000
  Fe  Fe52      1.0  0.06054  0.84444  0.84318  1.0000
  S   S102      1.0  0.05253  0.86962  0.87174  1.0000
  S   S103      1.0  0.07889  0.79933  0.79863  1.0000
  S   S104      1.0  0.07153  0.86567  0.81469  1.0000
  Fe  Fe53      1.0  0.19936  0.79019  0.80714  1.0000
  S   S105      1.0  0.20114  0.80475  0.84038  1.0000
  S   S106      1.0  0.17602  0.77521  0.79481  1.0000
  Fe  Fe54      1.0  0.23461  0.79730  0.79769  1.0000
  S   S107      1.0  0.23884  0.81311  0.83048  1.0000
  S   S108      1.0  0.25591  0.79769  0.77508  1.0000
  Fe  Fe55      1.0  0.22260  0.77643  0.84062  1.0000
  S   S109      1.0  0.22817  0.74852  0.86895  1.0000
  Fe  Fe56      1.0  0.21705  0.84025  0.82760  1.0000
  S   S110      1.0  0.21269  0.88890  0.83376  1.0000
  S   S111      1.0  0.21978  0.75900  0.80821  1.0000
  S   S112      1.0  0.21391  0.82724  0.79391  1.0000
  Fe  Fe57      1.0  0.05622  0.54495  0.94486  1.0000
  S   S113      1.0  0.04337  0.56492  0.91781  1.0000
  S   S114      1.0  0.04624  0.53524  0.97799  1.0000
  Fe  Fe58      1.0  0.08793  0.54625  0.92023  1.0000
  S   S115      1.0  0.07717  0.56622  0.89175  1.0000
  S   S116      1.0  0.11278  0.52955  0.91539  1.0000
  Fe  Fe59      1.0  0.06402  0.59569  0.91370  1.0000
  S   S117      1.0  0.06149  0.64563  0.91108  1.0000
  Fe  Fe60      1.0  0.05774  0.53393  0.89799  1.0000
  H   H289      1.0  0.24189  0.61313  0.98268  1.0000
  S   S118      1.0  0.07613  0.57778  0.94220  1.0000
  C   C294      1.0  0.02029  0.86739  0.76761  1.0000
  Fe  Fe61      1.0  0.19968  0.56890  0.93366  1.0000
  S   S119      1.0  0.20115  0.55260  0.90076  1.0000
  S   S120      1.0  0.17647  0.58310  0.94827  1.0000
  Fe  Fe62      1.0  0.23537  0.56567  0.93945  1.0000
  S   S121      1.0  0.23917  0.54898  0.90649  1.0000
  S   S122      1.0  0.25773  0.56658  0.95877  1.0000
  Fe  Fe63      1.0  0.22169  0.58326  0.89734  1.0000
  S   S123      1.0  0.22334  0.61015  0.86736  1.0000
  Fe  Fe64      1.0  0.21837  0.51976  0.91267  1.0000
  C   C295      1.0  0.25378  0.61137  0.98795  1.0000
  S   S124      1.0  0.21924  0.60198  0.92957  1.0000
  S   S125      1.0  0.21554  0.53411  0.94625  1.0000
  H   H290      1.0  0.03486  0.59583  0.98137  1.0000
  H   H291      1.0  0.25894  0.72979  0.64692  1.0000
  N   N24       1.0  0.09472  0.95212  0.89988  1.0000
  C   C296      1.0  0.01861  0.50262  0.97480  1.0000
  H   H292      1.0  0.03740  0.98718  0.97333  1.0000
  C   C297      1.0  0.13022  0.54488  0.92501  1.0000
  C   C298      1.0  0.13013  0.56776  0.93939  1.0000
  C   C299      1.0  0.14437  0.57884  0.94680  1.0000
  C   C300      1.0  0.15878  0.56744  0.93967  1.0000
  C   C301      1.0  0.15883  0.54472  0.92520  1.0000
  C   C302      1.0  0.14462  0.53344  0.91800  1.0000
  H   H293      1.0  0.11911  0.57661  0.94499  1.0000
  H   H294      1.0  0.14423  0.59635  0.95806  1.0000
  H   H295      1.0  0.16980  0.53559  0.91971  1.0000
  H   H296      1.0  0.03364  0.96085  0.69698  1.0000
  C   C303      1.0  0.05767  0.60131  0.99411  1.0000
  H   H297      1.0  0.05244  0.73316  0.79112  1.0000
  H   H298      1.0  0.24605  0.85909  0.77688  1.0000
  C   C304      1.0  0.25465  0.90851  0.82387  1.0000
  H   H299      1.0  0.02317  0.63580  0.95995  1.0000
  C   C305      1.0  0.22532  0.95350  0.88613  1.0000
  C   C306      1.0  0.23078  0.92446  0.88679  1.0000
  C   C307      1.0  0.22697  0.90429  0.87106  1.0000
  C   C308      1.0  0.21763  0.91295  0.85442  1.0000
  C   C309      1.0  0.21231  0.94205  0.85364  1.0000
  C   C310      1.0  0.21609  0.96219  0.86939  1.0000
  H   H300      1.0  0.23792  0.91743  0.89966  1.0000
  H   H301      1.0  0.23118  0.88204  0.87190  1.0000
  H   H302      1.0  0.20507  0.94904  0.84087  1.0000
  C   C311      1.0  0.09292  0.98074  0.86831  1.0000
  C   C312      1.0  0.22529  0.71030  0.86869  1.0000
  C   C313      1.0  0.22799  0.69398  0.88697  1.0000
  C   C314      1.0  0.22704  0.66329  0.88690  1.0000
  C   C315      1.0  0.22352  0.64868  0.86846  1.0000
  C   C316      1.0  0.22068  0.66498  0.85023  1.0000
  C   C317      1.0  0.22146  0.69569  0.85036  1.0000
  H   H303      1.0  0.23110  0.70513  0.90116  1.0000
  H   H304      1.0  0.22949  0.65097  0.90097  1.0000
  H   H305      1.0  0.21796  0.65382  0.83589  1.0000
  H   H306      1.0  0.21940  0.70798  0.83618  1.0000
  C   C318      1.0  0.06624  0.70866  0.85402  1.0000
  C   C319      1.0  0.06763  0.67823  0.85132  1.0000
  C   C320      1.0  0.06634  0.65866  0.86854  1.0000
  C   C321      1.0  0.06357  0.66927  0.88875  1.0000
  C   C322      1.0  0.06222  0.69972  0.89145  1.0000
  C   C323      1.0  0.06358  0.71931  0.87424  1.0000
  H   H307      1.0  0.06968  0.66966  0.83579  1.0000
  H   H308      1.0  0.06739  0.63536  0.86614  1.0000
  H   H309      1.0  0.06006  0.70826  0.90697  1.0000
  H   H310      1.0  0.06244  0.74260  0.87664  1.0000
  C   C324      1.0  0.05266  0.90824  0.87099  1.0000
  C   C325      1.0  0.05256  0.92368  0.88987  1.0000
  C   C326      1.0  0.05299  0.95443  0.88982  1.0000
  C   C327      1.0  0.05324  0.97000  0.87086  1.0000
  C   C328      1.0  0.05304  0.95456  0.85198  1.0000
  C   C329      1.0  0.05291  0.92378  0.85202  1.0000
  H   H311      1.0  0.05220  0.91180  0.90459  1.0000
  H   H312      1.0  0.05289  0.96602  0.90444  1.0000
  H   H313      1.0  0.05313  0.96645  0.83726  1.0000
  H   H314      1.0  0.05277  0.91214  0.83739  1.0000
  C   C330      1.0  0.13222  0.82878  0.81116  1.0000
  C   C331      1.0  0.14714  0.83952  0.81581  1.0000
  C   C332      1.0  0.16067  0.82366  0.81036  1.0000
  C   C333      1.0  0.15938  0.79702  0.80000  1.0000
  C   C334      1.0  0.14449  0.78672  0.79469  1.0000
  C   C335      1.0  0.13092  0.80246  0.80035  1.0000
  H   H315      1.0  0.14824  0.85996  0.82406  1.0000
  H   H316      1.0  0.17207  0.83191  0.81442  1.0000
  H   H317      1.0  0.14344  0.76624  0.78651  1.0000
  H   H318      1.0  0.11950  0.79422  0.79644  1.0000
  C   C336      1.0  0.01706  0.76057  0.58163  1.0000
  H   H319      1.0  0.03525  0.62159  0.93879  1.0000
  H   H320      1.0  0.23443  0.97961  0.95104  1.0000
  C   C337      1.0  0.02955  0.85678  0.73253  1.0000
  C   C338      1.0  0.03178  0.85548  0.75430  1.0000
  H   H321      1.0  0.10922  0.95699  0.92610  1.0000
  C   C339      1.0  0.07179  0.61661  0.99267  1.0000
  H   H322      1.0  0.04366  0.95220  0.73862  1.0000
  C   C340      1.0  0.24859  0.87348  0.78980  1.0000
  S   S126      1.0  0.23049  0.97791  0.90650  1.0000
  C   C341      1.0  0.09296  0.92696  0.88870  1.0000
  H   H323      1.0  0.04451  0.73427  0.51644  1.0000
  N   N25       1.0  0.17636  0.63712  0.91021  1.0000
  C   C342      1.0  0.16105  0.62845  0.91201  1.0000
  C   C343      1.0  0.18567  0.62712  0.89417  1.0000
  C   C344      1.0  0.15466  0.60955  0.89734  1.0000
  C   C345      1.0  0.17966  0.60842  0.87913  1.0000
  C   C346      1.0  0.16407  0.59943  0.88084  1.0000
  C   C347      1.0  0.18318  0.65551  0.92634  1.0000
  H   H324      1.0  0.15389  0.63510  0.92533  1.0000
  H   H325      1.0  0.19790  0.63317  0.89317  1.0000
  H   H326      1.0  0.14268  0.60186  0.89927  1.0000
  H   H327      1.0  0.18725  0.60034  0.86662  1.0000
  H   H328      1.0  0.15937  0.58414  0.86971  1.0000
  H   H329      1.0  0.17423  0.66988  0.93371  1.0000
  H   H330      1.0  0.18822  0.64137  0.93873  1.0000
  H   H331      1.0  0.19262  0.66978  0.91960  1.0000
  C   C348      1.0  0.04558  0.60866  0.98066  1.0000
  H   H332      1.0  0.23513  0.93382  0.81363  1.0000
  C   C349      1.0  0.24266  0.91534  0.81014  1.0000
  C   C350      1.0  0.02295  0.96506  0.70589  1.0000
  H   H333      1.0  0.06068  0.77609  0.76128  1.0000
  C   C351      1.0  0.26088  0.86629  0.80297  1.0000
  H   H334      1.0  0.01971  0.71410  0.53174  1.0000
  C   C352      1.0  0.25944  0.73277  0.83446  1.0000
  C   C353      1.0  0.25969  0.72960  0.81278  1.0000
  H   H335      1.0  0.02704  0.60954  0.61635  1.0000
  N   N26       1.0  0.23970  0.89782  0.79344  1.0000
  S   S127      1.0  0.05039  0.50810  0.86986  1.0000
  C   C354      1.0  0.26536  0.49828  0.92546  1.0000
  H   H336      1.0  0.01911  0.83135  0.59712  1.0000
  C   C355      1.0  0.03148  0.74454  0.80822  1.0000
  N   N27       1.0  0.12351  0.76182  0.84389  1.0000
  C   C356      1.0  0.13621  0.74579  0.83747  1.0000
  C   C357      1.0  0.12553  0.78777  0.85398  1.0000
  C   C358      1.0  0.15140  0.75534  0.84155  1.0000
  C   C359      1.0  0.14055  0.79792  0.85836  1.0000
  C   C360      1.0  0.15355  0.78155  0.85210  1.0000
  C   C361      1.0  0.10767  0.75235  0.83871  1.0000
  H   H337      1.0  0.13468  0.72598  0.82856  1.0000
  H   H338      1.0  0.11553  0.80133  0.85800  1.0000
  H   H339      1.0  0.16148  0.74334  0.83562  1.0000
  H   H340      1.0  0.14212  0.81905  0.86562  1.0000
  H   H341      1.0  0.16529  0.78981  0.85452  1.0000
  H   H342      1.0  0.10715  0.72871  0.83489  1.0000
  H   H343      1.0  0.09938  0.75573  0.85213  1.0000
  N   N28       1.0  0.03859  0.76359  0.77412  1.0000
  C   C362      1.0  0.09697  0.95083  0.92254  1.0000
  H   H344      1.0  0.25977  0.71069  0.86417  1.0000
  C   C363      1.0  0.22621  0.90409  0.78037  1.0000
  H   H345      1.0  0.10350  0.76505  0.82503  1.0000
  C   C364      1.0  0.26320  0.76955  0.75831  1.0000
  C   C365      1.0  0.25499  0.74346  0.75530  1.0000
  C   C366      1.0  0.09483  0.97875  0.88995  1.0000
  C   C367      1.0  0.26387  0.59090  0.97876  1.0000
  H   H346      1.0  0.25841  0.75431  0.84135  1.0000
  H   H347      1.0  0.25469  0.70181  0.73961  1.0000
  H   H348      1.0  0.08930  0.95645  0.84006  1.0000
  H   H349      1.0  0.09262  0.90582  0.89650  1.0000
  C   C368      1.0  0.01799  0.76164  0.80842  1.0000
  C   C369      1.0  0.09121  0.92813  0.86699  1.0000
  H   H350      1.0  0.05264  0.74268  0.75082  1.0000
  C   C370      1.0  0.02811  0.99260  0.98440  1.0000
  H   H351      1.0  0.25912  0.74871  0.80266  1.0000
  H   H352      1.0  0.02176  0.86649  0.78438  1.0000
  C   C371      1.0  0.06123  0.64612  0.96488  1.0000
  H   H353      1.0  0.21178  0.98438  0.86863  1.0000
  C   C372      1.0  0.09117  0.95522  0.85678  1.0000
  H   H354      1.0  0.24376  0.74006  0.76310  1.0000
  C   C373      1.0  0.07362  0.63920  0.97798  1.0000
  C   C374      1.0  0.03367  0.73756  0.50833  1.0000
  H   H355      1.0  0.08943  0.90819  0.85822  1.0000
  H   H356      1.0  0.02953  0.78220  0.60603  1.0000
  H   H357      1.0  0.22728  0.89332  0.76489  1.0000
  H   H358      1.0  0.06287  0.66329  0.95319  1.0000
  N   N29       1.0  0.02099  0.95416  0.72579  1.0000
  H   H359      1.0  0.25828  0.98818  0.92895  1.0000
  S   S128      1.0  0.06916  0.51201  0.92510  1.0000
  H   H360      1.0  0.03422  0.73086  0.82164  1.0000
  C   C375      1.0  0.01959  0.72616  0.51710  1.0000
  C   C376      1.0  0.03479  0.63737  0.95190  1.0000
  H   H361      1.0  0.14480  0.51563  0.90698  1.0000
  C   C377      1.0  0.03371  0.93748  0.73520  1.0000
  H   H362      1.0  0.03830  0.84752  0.72206  1.0000
  H   H363      1.0  0.03598  0.65971  0.94499  1.0000
  H   H364      1.0  0.22504  0.92798  0.77759  1.0000
  H   H365      1.0  0.24676  0.50409  0.95777  1.0000
  C   C378      1.0  0.04979  0.76498  0.75641  1.0000
  C   C379      1.0  0.26175  0.65463  0.85235  1.0000
  H   H366      1.0  0.03777  0.92000  0.72442  1.0000
  H   H367      1.0  0.21535  0.89598  0.78843  1.0000
  H   H368      1.0  0.25643  0.92178  0.83761  1.0000
  H   H369      1.0  0.04515  0.77782  0.74304  1.0000
  N   N30       1.0  0.04741  0.63097  0.96640  1.0000
  C   C380      1.0  0.02942  0.51579  0.98789  1.0000
  H   H370      1.0  0.09442  0.92877  0.92919  1.0000
  H   H371      1.0  0.02036  0.50398  0.95800  1.0000
  C   C381      1.0  0.02103  0.97047  0.99699  1.0000
  C   C382      1.0  0.04177  0.74595  0.79090  1.0000
  C   C383      1.0  0.02183  0.78488  0.59290  1.0000
  H   H372      1.0  0.08465  0.65085  0.97637  1.0000
  C   C384      1.0  0.26017  0.70791  0.84732  1.0000
  H   H373      1.0  0.02989  0.92643  0.75003  1.0000
  N   N31       1.0  0.26079  0.68059  0.83879  1.0000
  H   H374      1.0  0.26171  0.65565  0.81075  1.0000
  H   H375      1.0  0.25366  0.63724  0.84701  1.0000
  C   C385      1.0  0.26383  0.88382  0.82021  1.0000
  H   H376      1.0  0.08906  0.96654  0.93062  1.0000
  H   H377      1.0  0.26082  0.69908  0.78732  1.0000
  H   H378      1.0  0.02104  0.73889  0.58595  1.0000
  H   H379      1.0  0.02301  0.79494  0.76110  1.0000
  C   C386      1.0  0.26122  0.72178  0.74192  1.0000
  H   H380      1.0  0.25823  0.65954  0.86880  1.0000
  C   C387      1.0  0.02537  0.78041  0.77417  1.0000
  H   H381      1.0  0.02499  0.94814  0.99543  1.0000
  C   C388      1.0  0.26110  0.67728  0.81752  1.0000
  C   C389      1.0  0.26058  0.70172  0.80419  1.0000
  C   C390      1.0  0.24403  0.99251  0.95696  1.0000
  Fe  Fe65      1.0  0.44867  0.20246  0.06543  1.0000
  S   S129      1.0  0.45279  0.18249  0.09697  1.0000
  S   S130      1.0  0.42512  0.22266  0.05822  1.0000
  Fe  Fe66      1.0  0.48311  0.19515  0.05075  1.0000
  S   S131      1.0  0.48953  0.17463  0.08170  1.0000
  S   S132      1.0  0.50226  0.19448  0.02496  1.0000
  Fe  Fe67      1.0  0.46717  0.14880  0.07991  1.0000
  S   S133      1.0  0.46428  0.09912  0.08307  1.0000
  Fe  Fe68      1.0  0.47464  0.21007  0.09604  1.0000
  S   S134      1.0  0.48031  0.23466  0.12552  1.0000
  S   S135      1.0  0.46150  0.16707  0.04803  1.0000
  S   S136      1.0  0.46975  0.23231  0.06545  1.0000
  Fe  Fe69      1.0  0.30725  0.15944  0.04613  1.0000
  S   S137      1.0  0.29255  0.17709  0.07284  1.0000
  S   S138      1.0  0.29878  0.14995  0.01296  1.0000
  Fe  Fe70      1.0  0.33763  0.16334  0.07167  1.0000
  S   S139      1.0  0.32495  0.18114  0.09984  1.0000
  S   S140      1.0  0.36272  0.14936  0.07676  1.0000
  Fe  Fe71      1.0  0.30684  0.14706  0.09305  1.0000
  S   S141      1.0  0.29864  0.11956  0.12076  1.0000
  Fe  Fe72      1.0  0.31211  0.20966  0.07734  1.0000
  S   S142      1.0  0.30812  0.25893  0.07980  1.0000
  S   S143      1.0  0.32022  0.12731  0.06624  1.0000
  S   S144      1.0  0.32605  0.19411  0.04922  1.0000
  Fe  Fe73      1.0  0.47942  0.40008  0.14958  1.0000
  S   S145      1.0  0.47051  0.37980  0.17956  1.0000
  S   S146      1.0  0.48910  0.37224  0.12336  1.0000
  Fe  Fe74      1.0  0.46980  0.46198  0.16165  1.0000
  S   S147      1.0  0.46009  0.44564  0.19283  1.0000
  C   C391      1.0  0.43243  0.46466  0.23992  1.0000
  Fe  Fe75      1.0  0.48184  0.41796  0.19494  1.0000
  S   S148      1.0  0.49378  0.41500  0.22663  1.0000
  Fe  Fe76      1.0  0.44970  0.40880  0.17491  1.0000
  S   S149      1.0  0.42627  0.38609  0.17917  1.0000
  S   S150      1.0  0.49237  0.43692  0.16504  1.0000
  S   S151      1.0  0.45782  0.42647  0.14374  1.0000
  Fe  Fe77      1.0  0.31364  0.45309  0.14917  1.0000
  H   H382      1.0  0.30447  0.43573  0.26300  1.0000
  C   C392      1.0  0.44420  0.31833  0.09650  1.0000
  Fe  Fe78      1.0  0.31924  0.38987  0.16366  1.0000
  S   S152      1.0  0.32564  0.40509  0.19598  1.0000
  S   S153      1.0  0.32173  0.34049  0.15807  1.0000
  Fe  Fe79      1.0  0.30494  0.43558  0.19417  1.0000
  S   S154      1.0  0.28766  0.43728  0.22229  1.0000
  Fe  Fe80      1.0  0.33953  0.44044  0.17942  1.0000
  S   S155      1.0  0.36338  0.45961  0.18652  1.0000
  S   S156      1.0  0.29764  0.41805  0.16284  1.0000
  S   S157      1.0  0.33460  0.42350  0.14743  1.0000
  C   C393      1.0  0.28607  0.37848  0.48116  1.0000
  H   H383      1.0  0.43985  0.24443  0.09646  1.0000
  H   H384      1.0  0.29486  0.38765  0.47054  1.0000
  H   H385      1.0  0.36476  0.23234  0.13217  1.0000
  C   C394      1.0  0.34460  0.09472  0.11139  1.0000
  H   H386      1.0  0.34611  0.24672  0.07108  1.0000
  H   H387      1.0  0.27196  0.36140  0.45624  1.0000
  H   H388      1.0  0.35044  0.48080  0.14746  1.0000
  H   H389      1.0  0.28632  0.41858  0.26987  1.0000
  C   C395      1.0  0.40887  0.40693  0.17990  1.0000
  C   C396      1.0  0.39433  0.39249  0.18023  1.0000
  C   C397      1.0  0.38028  0.40842  0.18170  1.0000
  C   C398      1.0  0.38069  0.43889  0.18327  1.0000
  C   C399      1.0  0.39524  0.45331  0.18293  1.0000
  C   C400      1.0  0.40928  0.43744  0.18103  1.0000
  H   H390      1.0  0.39391  0.36889  0.17944  1.0000
  H   H391      1.0  0.36914  0.39709  0.18206  1.0000
  C   C401      1.0  0.27728  0.46726  0.23351  1.0000
  H   H392      1.0  0.42040  0.44881  0.18069  1.0000
  C   C402      1.0  0.31080  0.28091  0.10230  1.0000
  C   C403      1.0  0.31632  0.26926  0.12105  1.0000
  C   C404      1.0  0.31916  0.28777  0.13810  1.0000
  C   C405      1.0  0.31647  0.31808  0.13671  1.0000
  C   C406      1.0  0.31073  0.32966  0.11806  1.0000
  C   C407      1.0  0.30797  0.31117  0.10095  1.0000
  H   H393      1.0  0.31855  0.24606  0.12236  1.0000
  H   H394      1.0  0.32358  0.27856  0.15246  1.0000
  H   H395      1.0  0.30862  0.35292  0.11673  1.0000
  H   H396      1.0  0.30369  0.32045  0.08654  1.0000
  C   C408      1.0  0.30533  0.02057  0.11795  1.0000
  C   C409      1.0  0.30738  0.03555  0.13668  1.0000
  C   C410      1.0  0.30576  0.06606  0.13726  1.0000
  C   C411      1.0  0.30230  0.08185  0.11906  1.0000
  C   C412      1.0  0.30088  0.06710  0.10014  1.0000
  C   C413      1.0  0.30227  0.03649  0.09963  1.0000
  H   H397      1.0  0.30976  0.02368  0.15086  1.0000
  H   H398      1.0  0.30695  0.07740  0.15193  1.0000
  H   H399      1.0  0.29812  0.07913  0.08604  1.0000
  H   H400      1.0  0.30070  0.02508  0.08507  1.0000
  C   C414      1.0  0.47780  0.03603  0.13639  1.0000
  C   C415      1.0  0.48041  0.06629  0.13826  1.0000
  C   C416      1.0  0.47628  0.08596  0.12217  1.0000
  C   C417      1.0  0.46953  0.07551  0.10397  1.0000
  C   C418      1.0  0.46709  0.04522  0.10197  1.0000
  C   C419      1.0  0.47117  0.02556  0.11809  1.0000
  H   H401      1.0  0.48553  0.07460  0.15236  1.0000
  H   H402      1.0  0.47830  0.10917  0.12390  1.0000
  H   H403      1.0  0.46197  0.03689  0.08788  1.0000
  H   H404      1.0  0.33871  0.04351  0.09309  1.0000
  C   C420      1.0  0.48155  0.27308  0.12435  1.0000
  C   C421      1.0  0.48042  0.28891  0.14300  1.0000
  C   C422      1.0  0.48212  0.31946  0.14276  1.0000
  C   C423      1.0  0.48517  0.33437  0.12389  1.0000
  C   C424      1.0  0.48619  0.31856  0.10522  1.0000
  C   C425      1.0  0.48427  0.28801  0.10541  1.0000
  H   H405      1.0  0.47844  0.27743  0.15771  1.0000
  H   H406      1.0  0.48171  0.33120  0.15729  1.0000
  H   H407      1.0  0.48871  0.32990  0.09057  1.0000
  H   H408      1.0  0.48540  0.27599  0.09099  1.0000
  C   C426      1.0  0.40780  0.20219  0.06334  1.0000
  C   C427      1.0  0.40833  0.17430  0.07243  1.0000
  C   C428      1.0  0.39440  0.15850  0.07641  1.0000
  C   C429      1.0  0.37982  0.17033  0.07129  1.0000
  C   C430      1.0  0.37925  0.19825  0.06218  1.0000
  C   C431      1.0  0.39320  0.21415  0.05830  1.0000
  H   H409      1.0  0.41948  0.16480  0.07630  1.0000
  H   H410      1.0  0.39497  0.13689  0.08336  1.0000
  H   H411      1.0  0.36812  0.20741  0.05787  1.0000
  H   H412      1.0  0.39271  0.23564  0.05112  1.0000
  C   C432      1.0  0.27834  0.02319  0.24237  1.0000
  H   H413      1.0  0.28485  0.04351  0.24271  1.0000
  N   N32       1.0  0.26765  0.20601  0.01694  1.0000
  C   C433      1.0  0.50740  0.38935  0.23693  1.0000
  C   C434      1.0  0.35194  0.32686  0.11359  1.0000
  C   C435      1.0  0.27921  0.23641  0.04295  1.0000
  H   H414      1.0  0.27466  0.03718  0.31593  1.0000
  N   N33       1.0  0.44462  0.40873  0.23544  1.0000
  C   C436      1.0  0.44218  0.04137  0.15402  1.0000
  C   C437      1.0  0.44169  0.27112  0.12392  1.0000
  N   N34       1.0  0.44473  0.32277  0.11764  1.0000
  H   H415      1.0  0.27872  0.24630  0.05834  1.0000
  H   H416      1.0  0.33369  0.10522  0.11733  1.0000
  H   H417      1.0  0.42252  0.39730  0.22283  1.0000
  H   H418      1.0  0.34424  0.09418  0.09400  1.0000
  C   C438      1.0  0.44330  0.29966  0.13132  1.0000
  C   C439      1.0  0.44240  0.29009  0.08859  1.0000
  N   N35       1.0  0.34614  0.06535  0.12054  1.0000
  C   C440      1.0  0.28208  0.13131  0.00337  1.0000
  H   H419      1.0  0.44645  0.36887  0.21857  1.0000
  C   C441      1.0  0.34403  0.01309  0.11769  1.0000
  C   C442      1.0  0.44255  0.01411  0.16396  1.0000
  H   H420      1.0  0.44200  0.28639  0.07183  1.0000
  H   H421      1.0  0.44115  0.25267  0.13472  1.0000
  H   H422      1.0  0.51150  0.41514  0.26437  1.0000
  C   C443      1.0  0.45342  0.43012  0.24437  1.0000
  H   H423      1.0  0.46405  0.38005  0.23090  1.0000
  H   H424      1.0  0.44526  0.33664  0.08564  1.0000
  H   H425      1.0  0.35708  0.21293  0.09768  1.0000
  H   H426      1.0  0.30248  0.41679  0.28778  1.0000
  H   H427      1.0  0.49348  0.09861  0.01835  1.0000
  C   C444      1.0  0.35188  0.03457  0.15014  1.0000
  S   S158      1.0  0.30896  0.48066  0.12023  1.0000
  C   C445      1.0  0.35588  0.23609  0.10100  1.0000
  C   C446      1.0  0.49736  0.11930  0.02559  1.0000
  H   H428      1.0  0.34360  0.29936  0.07880  1.0000
  N   N36       1.0  0.35278  0.29539  0.10949  1.0000
  C   C447      1.0  0.27319  0.03231  0.17761  1.0000
  H   H429      1.0  0.45154  0.35278  0.14128  1.0000
  H   H430      1.0  0.48709  0.13383  0.02780  1.0000
  C   C448      1.0  0.28045  0.21025  0.00400  1.0000
  H   H431      1.0  0.43431  0.36275  0.12722  1.0000
  C   C449      1.0  0.36023  0.24700  0.12035  1.0000
  N   N37       1.0  0.29065  0.45758  0.28657  1.0000
  C   C450      1.0  0.44116  0.26641  0.10243  1.0000
  N   N38       1.0  0.50460  0.11381  0.04583  1.0000
  H   H432      1.0  0.34949  0.33107  0.13048  1.0000
  C   C451      1.0  0.28028  0.45535  0.30315  1.0000
  H   H433      1.0  0.34100  0.99397  0.10866  1.0000
  H   H434      1.0  0.36191  0.28525  0.13947  1.0000
  H   H435      1.0  0.42316  0.02189  0.11030  1.0000
  C   C452      1.0  0.42848  0.01954  0.12546  1.0000
  H   H436      1.0  0.46523  0.42556  0.24936  1.0000
  C   C453      1.0  0.51058  0.22276  0.00872  1.0000
  C   C454      1.0  0.34273  0.04118  0.10900  1.0000
  S   S159      1.0  0.31947  0.47228  0.18023  1.0000
  H   H437      1.0  0.26772  0.06231  0.13010  1.0000
  H   H438      1.0  0.35477  0.10870  0.11527  1.0000
  H   H439      1.0  0.50582  0.35833  0.21204  1.0000
  H   H440      1.0  0.35281  0.08153  0.15025  1.0000
  C   C455      1.0  0.26957  0.01622  0.13628  1.0000
  H   H441      1.0  0.50565  0.13037  0.01439  1.0000
  C   C456      1.0  0.44752  0.45846  0.24656  1.0000
  C   C457      1.0  0.42335  0.44245  0.23151  1.0000
  H   H442      1.0  0.39565  0.47688  0.18407  1.0000
  C   C458      1.0  0.35046  0.06236  0.14096  1.0000
  H   H443      1.0  0.45474  0.47554  0.25305  1.0000
  C   C459      1.0  0.51433  0.39512  0.25626  1.0000
  H   H444      1.0  0.49590  0.25750  0.02015  1.0000
  H   H445      1.0  0.41160  0.44695  0.22625  1.0000
  C   C460      1.0  0.42964  0.41439  0.22952  1.0000
  H   H446      1.0  0.44372  0.30315  0.14807  1.0000
  C   C461      1.0  0.27204  0.99471  0.15145  1.0000
  C   C462      1.0  0.51120  0.36328  0.22672  1.0000
  C   C463      1.0  0.50533  0.25170  0.00942  1.0000
  S   S160      1.0  0.48242  0.01257  0.15768  1.0000
  N   N39       1.0  0.27130  0.05335  0.16250  1.0000
  C   C464      1.0  0.43511  0.04419  0.13464  1.0000
  C   C465      1.0  0.29631  0.43087  0.27641  1.0000
  C   C466      1.0  0.44607  0.35261  0.12567  1.0000
  C   C467      1.0  0.49895  0.09184  0.05858  1.0000
  C   C468      1.0  0.29241  0.24039  0.03001  1.0000
  C   C469      1.0  0.27440  0.48047  0.31285  1.0000
  H   H447      1.0  0.35534  0.03201  0.16632  1.0000
  H   H448      1.0  0.45365  0.36640  0.11516  1.0000
  C   C470      1.0  0.34870  0.00984  0.13835  1.0000
  H   H449      1.0  0.42778  0.48664  0.24120  1.0000
  C   C471      1.0  0.34989  0.25507  0.08599  1.0000
  H   H450      1.0  0.44790  0.06000  0.16098  1.0000
  H   H451      1.0  0.30220  0.25331  0.03533  1.0000
  H   H452      1.0  0.43522  0.06515  0.12650  1.0000
  C   C472      1.0  0.50532  0.08686  0.07828  1.0000
  C   C473      1.0  0.45107  0.37930  0.23285  1.0000
  H   H453      1.0  0.34226  0.33723  0.10492  1.0000
  C   C474      1.0  0.35862  0.27691  0.12434  1.0000
  H   H454      1.0  0.29474  0.00248  0.22086  1.0000
  H   H455      1.0  0.44797  0.36556  0.24675  1.0000
  H   H456      1.0  0.27631  0.43406  0.30875  1.0000
  H   H457      1.0  0.50682  0.37348  0.16781  1.0000
  H   H458      1.0  0.36315  0.33763  0.10890  1.0000
  C   C475      1.0  0.34850  0.28487  0.09046  1.0000
  H   H459      1.0  0.27250  0.11815  0.03342  1.0000
  H   H460      1.0  0.30347  0.22946  0.00048  1.0000
  H   H461      1.0  0.48918  0.07842  0.05381  1.0000
  C   C476      1.0  0.26856  0.44340  0.47996  1.0000
  H   H462      1.0  0.27957  0.45497  0.47769  1.0000
  C   C477      1.0  0.27355  0.01372  0.31835  1.0000
  H   H463      1.0  0.34713  0.49052  0.10955  1.0000
  C   C478      1.0  0.27759  0.99461  0.30218  1.0000
  C   C479      1.0  0.29548  0.48447  0.27930  1.0000
  C   C480      1.0  0.29308  0.22722  0.01042  1.0000
  H   H464      1.0  0.26863  0.01021  0.11996  1.0000
  H   H465      1.0  0.49617  0.00595  0.47528  1.0000
  H   H466      1.0  0.50067  0.06957  0.08841  1.0000
  H   H467      1.0  0.30323  0.48635  0.26567  1.0000
  C   C481      1.0  0.27309  0.36356  0.47297  1.0000
  C   C482      1.0  0.50711  0.00053  0.48256  1.0000
  H   H468      1.0  0.46912  0.00235  0.11641  1.0000
  H   H469      1.0  0.27574  0.09838  0.15523  1.0000
  C   C483      1.0  0.27095  0.11784  0.01667  1.0000
  H   H470      1.0  0.44850  0.01151  0.17869  1.0000
  C   C484      1.0  0.27100  0.08432  0.16825  1.0000
  C   C485      1.0  0.27370  0.00272  0.17229  1.0000
  H   H471      1.0  0.27843  0.08845  0.18198  1.0000
  C   C486      1.0  0.26915  0.04563  0.14211  1.0000
  C   C487      1.0  0.28398  0.99997  0.22995  1.0000
  H   H472      1.0  0.51562  0.26737  0.17326  1.0000
  H   H473      1.0  0.27449  0.03829  0.19389  1.0000
  C   C488      1.0  0.26688  0.21894  0.03616  1.0000
  H   H474      1.0  0.28210  0.00370  0.28752  1.0000
  C   C489      1.0  0.26780  0.00241  0.33737  1.0000
  C   C490      1.0  0.51636  0.13168  0.05238  1.0000
  H   H475      1.0  0.51630  0.31789  0.18693  1.0000
  Fe  Fe81      1.0  0.49001  0.17015  0.69404  1.0000
  S   S161      1.0  0.49704  0.18467  0.66122  1.0000
  C   C491      1.0  0.35971  0.05756  0.60787  1.0000
  Fe  Fe82      1.0  0.45487  0.17561  0.68435  1.0000
  S   S162      1.0  0.45934  0.19059  0.65128  1.0000
  S   S163      1.0  0.43088  0.17030  0.69997  1.0000
  Fe  Fe83      1.0  0.47757  0.15499  0.65101  1.0000
  S   S164      1.0  0.47794  0.12789  0.62150  1.0000
  Fe  Fe84      1.0  0.47829  0.21909  0.66391  1.0000
  S   S165      1.0  0.48263  0.26796  0.65783  1.0000
  S   S166      1.0  0.47181  0.13793  0.68344  1.0000
  S   S167      1.0  0.47248  0.20659  0.69737  1.0000
  Fe  Fe85      1.0  0.31362  0.20211  0.69614  1.0000
  S   S168      1.0  0.29781  0.18374  0.67168  1.0000
  S   S169      1.0  0.30633  0.21550  0.72948  1.0000
  Fe  Fe86      1.0  0.34303  0.19675  0.66741  1.0000
  S   S170      1.0  0.32912  0.17788  0.64137  1.0000
  S   S171      1.0  0.36780  0.20750  0.65616  1.0000
  Fe  Fe87      1.0  0.31163  0.21272  0.64926  1.0000
  S   S172      1.0  0.30308  0.23694  0.62074  1.0000
  Fe  Fe88      1.0  0.31686  0.15049  0.66580  1.0000
  S   S173      1.0  0.31139  0.10168  0.66297  1.0000
  S   S174      1.0  0.32612  0.23337  0.67387  1.0000
  S   S175      1.0  0.33198  0.16682  0.69175  1.0000
  Fe  Fe89      1.0  0.48563  0.44883  0.54952  1.0000
  S   S176      1.0  0.49142  0.42976  0.58115  1.0000
  H   H476      1.0  0.39789  0.39739  0.58816  1.0000
  Fe  Fe90      1.0  0.45122  0.45815  0.56286  1.0000
  S   S177      1.0  0.45460  0.44070  0.59527  1.0000
  H   H477      1.0  0.37321  0.39091  0.53144  1.0000
  Fe  Fe91      1.0  0.47687  0.46705  0.59372  1.0000
  H   H478      1.0  0.50913  0.48938  0.58908  1.0000
  Fe  Fe92      1.0  0.46865  0.40490  0.57998  1.0000
  S   S178      1.0  0.46268  0.35636  0.58479  1.0000
  H   H479      1.0  0.28831  0.14096  0.97113  1.0000
  S   S179      1.0  0.46394  0.42119  0.54730  1.0000
  Fe  Fe93      1.0  0.31075  0.40095  0.59246  1.0000
  S   S180      1.0  0.32428  0.38205  0.56544  1.0000
  S   S181      1.0  0.30239  0.37595  0.62129  1.0000
  Fe  Fe94      1.0  0.31526  0.46399  0.57717  1.0000
  S   S182      1.0  0.32942  0.44960  0.54880  1.0000
  S   S183      1.0  0.31964  0.01896  0.58358  1.0000
  Fe  Fe95      1.0  0.31115  0.41403  0.54544  1.0000
  H   H480      1.0  0.43029  0.22663  0.72307  1.0000
  Fe  Fe96      1.0  0.34131  0.41865  0.57094  1.0000
  S   S184      1.0  0.36634  0.40340  0.57493  1.0000
  S   S185      1.0  0.29621  0.43050  0.57231  1.0000
  S   S186      1.0  0.32851  0.43558  0.59933  1.0000
  H   H481      1.0  0.35116  0.29099  0.58595  1.0000
  C   C492      1.0  0.41052  0.45783  0.56114  1.0000
  C   C493      1.0  0.39597  0.46779  0.55422  1.0000
  C   C494      1.0  0.38212  0.45230  0.55939  1.0000
  C   C495      1.0  0.38280  0.42656  0.57133  1.0000
  C   C496      1.0  0.39727  0.41722  0.57885  1.0000
  C   C497      1.0  0.41108  0.43280  0.57382  1.0000
  H   H482      1.0  0.27676  0.22982  0.70940  1.0000
  H   H483      1.0  0.37102  0.45974  0.55354  1.0000
  H   H484      1.0  0.27720  0.37242  0.53313  1.0000
  H   H485      1.0  0.42219  0.42490  0.57928  1.0000
  C   C498      1.0  0.31437  0.07889  0.64091  1.0000
  C   C499      1.0  0.31958  0.08999  0.62150  1.0000
  C   C500      1.0  0.32106  0.07128  0.60416  1.0000
  C   C501      1.0  0.31749  0.04128  0.60603  1.0000
  C   C502      1.0  0.31236  0.03015  0.62545  1.0000
  C   C503      1.0  0.31078  0.04890  0.64277  1.0000
  H   H486      1.0  0.32230  0.11302  0.61980  1.0000
  H   H487      1.0  0.32500  0.08012  0.58917  1.0000
  H   H488      1.0  0.30952  0.00716  0.62711  1.0000
  H   H489      1.0  0.30665  0.04013  0.65769  1.0000
  C   C504      1.0  0.30312  0.27555  0.62115  1.0000
  C   C505      1.0  0.30181  0.29078  0.63999  1.0000
  C   C506      1.0  0.30139  0.32154  0.63981  1.0000
  C   C507      1.0  0.30269  0.33731  0.62087  1.0000
  C   C508      1.0  0.30432  0.32206  0.60208  1.0000
  C   C509      1.0  0.30434  0.29129  0.60222  1.0000
  H   H490      1.0  0.30072  0.27886  0.65467  1.0000
  H   H491      1.0  0.30007  0.33316  0.65441  1.0000
  H   H492      1.0  0.30517  0.33394  0.58739  1.0000
  H   H493      1.0  0.30526  0.27967  0.58758  1.0000
  C   C510      1.0  0.47735  0.29181  0.63693  1.0000
  C   C511      1.0  0.48138  0.32162  0.63804  1.0000
  C   C512      1.0  0.47712  0.34161  0.62220  1.0000
  C   C513      1.0  0.46866  0.33205  0.60505  1.0000
  C   C514      1.0  0.46455  0.30224  0.60400  1.0000
  C   C515      1.0  0.46891  0.28220  0.61978  1.0000
  H   H494      1.0  0.48794  0.32932  0.65119  1.0000
  H   H495      1.0  0.48037  0.36442  0.62326  1.0000
  H   H496      1.0  0.45806  0.29456  0.59079  1.0000
  H   H497      1.0  0.46580  0.25935  0.61859  1.0000
  C   C516      1.0  0.48728  0.02944  0.61935  1.0000
  C   C517      1.0  0.48083  0.04423  0.60239  1.0000
  C   C518      1.0  0.47813  0.07440  0.60334  1.0000
  C   C519      1.0  0.48150  0.09004  0.62144  1.0000
  C   C520      1.0  0.48763  0.07528  0.63868  1.0000
  C   C521      1.0  0.49064  0.04506  0.63754  1.0000
  H   H498      1.0  0.47842  0.03277  0.58820  1.0000
  H   H499      1.0  0.47339  0.08572  0.58996  1.0000
  H   H500      1.0  0.49030  0.08724  0.65270  1.0000
  H   H501      1.0  0.49570  0.03382  0.65073  1.0000
  C   C522      1.0  0.41334  0.17867  0.68702  1.0000
  C   C523      1.0  0.41351  0.19014  0.66665  1.0000
  C   C524      1.0  0.39943  0.19863  0.65739  1.0000
  C   C525      1.0  0.38503  0.19514  0.66819  1.0000
  C   C526      1.0  0.38481  0.18295  0.68835  1.0000
  C   C527      1.0  0.39894  0.17493  0.69777  1.0000
  H   H502      1.0  0.42448  0.19303  0.65817  1.0000
  H   H503      1.0  0.39969  0.20800  0.64177  1.0000
  H   H504      1.0  0.37380  0.18028  0.69685  1.0000
  H   H505      1.0  0.39870  0.16608  0.71353  1.0000
  N   N40       1.0  0.34395  0.29127  0.61810  1.0000
  H   H506      1.0  0.28460  0.17926  0.62509  1.0000
  N   N41       1.0  0.44583  0.02839  0.62447  1.0000
  C   C528      1.0  0.44026  0.27474  0.66058  1.0000
  C   C529      1.0  0.28938  0.23507  0.73785  1.0000
  H   H507      1.0  0.33675  0.35176  0.64682  1.0000
  H   H508      1.0  0.35625  0.03347  0.57077  1.0000
  N   N42       1.0  0.39822  0.39221  0.52893  1.0000
  C   C530      1.0  0.34841  0.33471  0.59731  1.0000
  H   H509      1.0  0.27184  0.43142  0.53006  1.0000
  S   S187      1.0  0.42785  0.47591  0.55257  1.0000
  C   C531      1.0  0.28418  0.09115  0.59293  1.0000
  H   H510      1.0  0.38138  0.38946  0.50514  1.0000
  C   C532      1.0  0.27979  0.13065  0.98161  1.0000
  H   H511      1.0  0.27591  0.08167  0.64481  1.0000
  H   H512      1.0  0.33558  0.25166  0.63227  1.0000
  C   C533      1.0  0.34813  0.30422  0.59940  1.0000
  H   H513      1.0  0.34058  0.24877  0.60533  1.0000
  H   H514      1.0  0.49695  0.08567  0.53857  1.0000
  C   C534      1.0  0.35234  0.01001  0.61973  1.0000
  C   C535      1.0  0.27631  0.23798  0.72523  1.0000
  H   H515      1.0  0.29660  0.46396  0.61281  1.0000
  N   N43       1.0  0.35713  0.02860  0.60393  1.0000
  H   H516      1.0  0.49724  0.06903  0.81240  1.0000
  H   H517      1.0  0.38988  0.35672  0.54805  1.0000
  C   C536      1.0  0.28761  0.38215  0.50288  1.0000
  C   C537      1.0  0.26956  0.18356  0.76766  1.0000
  C   C538      1.0  0.44116  0.08852  0.62428  1.0000
  H   H518      1.0  0.28369  0.06311  0.96749  1.0000
  C   C539      1.0  0.36001  0.01737  0.58277  1.0000
  H   H519      1.0  0.51504  0.30872  0.92664  1.0000
  H   H520      1.0  0.28129  0.19946  0.98897  1.0000
  H   H521      1.0  0.50109  0.12132  0.77952  1.0000
  C   C540      1.0  0.27024  0.47119  0.89374  1.0000
  S   S188      1.0  0.48388  0.49327  0.62188  1.0000
  H   H522      1.0  0.27802  0.05335  0.61180  1.0000
  S   S189      1.0  0.30326  0.40411  0.51209  1.0000
  C   C541      1.0  0.27082  0.44901  0.51804  1.0000
  H   H523      1.0  0.29864  0.24403  0.76824  1.0000
  H   H524      1.0  0.46201  0.30015  0.68379  1.0000
  C   C542      1.0  0.27618  0.37002  0.51639  1.0000
  C   C543      1.0  0.43946  0.04164  0.60738  1.0000
  C   C544      1.0  0.42587  0.40156  0.52928  1.0000
  C   C545      1.0  0.34412  0.25932  0.62009  1.0000
  H   H525      1.0  0.35595  0.25165  0.62447  1.0000
  C   C546      1.0  0.34946  0.02051  0.63995  1.0000
  C   C547      1.0  0.28716  0.12128  0.59307  1.0000
  C   C548      1.0  0.44719  0.07466  0.64187  1.0000
  C   C549      1.0  0.34027  0.30799  0.63515  1.0000
  C   C550      1.0  0.28960  0.16798  0.61113  1.0000
  H   H526      1.0  0.43579  0.41491  0.52427  1.0000
  H   H527      1.0  0.34515  0.00590  0.65226  1.0000
  H   H528      1.0  0.50900  0.09760  0.57238  1.0000
  S   S190      1.0  0.50395  0.44827  0.52286  1.0000
  C   C551      1.0  0.34029  0.33855  0.63354  1.0000
  H   H529      1.0  0.44666  0.25779  0.65148  1.0000
  H   H530      1.0  0.42488  0.23793  0.68618  1.0000
  H   H531      1.0  0.42762  0.27344  0.65706  1.0000
  H   H532      1.0  0.30249  0.17114  0.61100  1.0000
  N   N44       1.0  0.29453  0.48675  0.64149  1.0000
  H   H533      1.0  0.43930  0.37321  0.54928  1.0000
  H   H534      1.0  0.34427  0.37559  0.61290  1.0000
  C   C552      1.0  0.34437  0.35192  0.61447  1.0000
  H   H535      1.0  0.30905  0.47005  0.66554  1.0000
  C   C553      1.0  0.27858  0.09275  0.63005  1.0000
  C   C554      1.0  0.50038  0.03928  0.54225  1.0000
  C   C555      1.0  0.43715  0.07194  0.60695  1.0000
  N   N45       1.0  0.44289  0.27010  0.68295  1.0000
  C   C556      1.0  0.43410  0.24975  0.69380  1.0000
  H   H536      1.0  0.44464  0.29654  0.65516  1.0000
  C   C557      1.0  0.38274  0.39921  0.52083  1.0000
  H   H537      1.0  0.35852  0.09196  0.63090  1.0000
  C   C558      1.0  0.50866  0.32889  0.93126  1.0000
  C   C559      1.0  0.35167  0.05016  0.64399  1.0000
  H   H538      1.0  0.27416  0.26647  0.78243  1.0000
  H   H539      1.0  0.43640  0.02876  0.59384  1.0000
  C   C560      1.0  0.27730  0.19694  0.80238  1.0000
  C   C561      1.0  0.41093  0.40826  0.52224  1.0000
  C   C562      1.0  0.28857  0.24602  0.75838  1.0000
  H   H540      1.0  0.43996  0.11217  0.62396  1.0000
  H   H541      1.0  0.38114  0.42329  0.51968  1.0000
  C   C563      1.0  0.50619  0.01722  0.55510  1.0000
  H   H542      1.0  0.43257  0.08255  0.59314  1.0000
  C   C564      1.0  0.45476  0.28455  0.69252  1.0000
  C   C565      1.0  0.43707  0.24341  0.71479  1.0000
  C   C566      1.0  0.51300  0.02453  0.57405  1.0000
  H   H543      1.0  0.30367  0.44402  0.63485  1.0000
  C   C567      1.0  0.45812  0.27867  0.71347  1.0000
  C   C568      1.0  0.41479  0.36192  0.54992  1.0000
  H   H544      1.0  0.35161  0.34502  0.58246  1.0000
  H   H545      1.0  0.27268  0.17474  0.75243  1.0000
  C   C569      1.0  0.44921  0.25792  0.72464  1.0000
  H   H546      1.0  0.46787  0.28955  0.72073  1.0000
  S   S191      1.0  0.47249  0.48741  0.56233  1.0000
  H   H547      1.0  0.41618  0.34416  0.56111  1.0000
  H   H548      1.0  0.33693  0.29773  0.64997  1.0000
  C   C570      1.0  0.44948  0.04437  0.64170  1.0000
  H   H549      1.0  0.27608  0.46887  0.87860  1.0000
  H   H550      1.0  0.37262  0.01231  0.58035  1.0000
  H   H551      1.0  0.49775  0.33058  0.92225  1.0000
  H   H552      1.0  0.39544  0.48726  0.54451  1.0000
  C   C571      1.0  0.40000  0.36910  0.54244  1.0000
  H   H553      1.0  0.45461  0.03389  0.65519  1.0000
  C   C572      1.0  0.30251  0.48861  0.65977  1.0000
  C   C573      1.0  0.27985  0.07686  0.61157  1.0000
  H   H554      1.0  0.28612  0.19835  0.81428  1.0000
  H   H555      1.0  0.29080  0.13217  0.57860  1.0000
  H   H556      1.0  0.45191  0.25258  0.74072  1.0000
  H   H557      1.0  0.36356  0.07227  0.59537  1.0000
  N   N46       1.0  0.28580  0.13671  0.61126  1.0000
  H   H558      1.0  0.34899  0.05882  0.65943  1.0000
  H   H559      1.0  0.29271  0.17679  0.77953  1.0000
  C   C574      1.0  0.50803  0.07490  0.80332  1.0000
  C   C575      1.0  0.35696  0.06881  0.62792  1.0000
  H   H560      1.0  0.28292  0.44819  0.63178  1.0000
  C   C576      1.0  0.42780  0.37829  0.54328  1.0000
  C   C577      1.0  0.28097  0.18462  0.78299  1.0000
  C   C578      1.0  0.28178  0.12277  0.62966  1.0000
  H   H561      1.0  0.45064  0.08753  0.65521  1.0000
  S   S192      1.0  0.50767  0.16743  0.72067  1.0000
  C   C579      1.0  0.27470  0.25878  0.76648  1.0000
  C   C580      1.0  0.29441  0.45938  0.62973  1.0000
  H   H562      1.0  0.28566  0.07876  0.57861  1.0000
  H   H563      1.0  0.49504  0.03373  0.52753  1.0000
  H   H564      1.0  0.28481  0.17921  0.59717  1.0000
  H   H565      1.0  0.28146  0.13463  0.64430  1.0000
  H   H566      1.0  0.50613  0.07088  0.78641  1.0000
  H   H567      1.0  0.50523  0.32651  0.94810  1.0000
  H   H568      1.0  0.50436  0.10346  0.71860  1.0000
  H   H569      1.0  0.28300  0.45602  0.51398  1.0000
  H   H570      1.0  0.29177  0.03176  0.98099  1.0000
  H   H571      1.0  0.40954  0.42690  0.51183  1.0000
  C   C581      1.0  0.50145  0.06837  0.54846  1.0000
  N   N47       1.0  0.51223  0.10549  0.80700  1.0000
  H   H572      1.0  0.51326  0.35790  0.89527  1.0000
  C   C582      1.0  0.51234  0.47707  0.50736  1.0000
  H   H573      1.0  0.27967  0.01911  0.94210  1.0000
  C   C583      1.0  0.50747  0.12689  0.79346  1.0000
  H   H574      1.0  0.50786  0.17296  0.78571  1.0000
  C   C584      1.0  0.51126  0.15622  0.79689  1.0000
  C   C585      1.0  0.50833  0.07495  0.56753  1.0000
  C   C586      1.0  0.28111  0.04518  0.97894  1.0000
  C   C587      1.0  0.51305  0.10862  0.73008  1.0000
  C   C588      1.0  0.26657  0.11677  0.97320  1.0000
  H   H575      1.0  0.27815  0.05569  0.99414  1.0000
  H   H576      1.0  0.51518  0.07925  0.60748  1.0000
  N   N48       1.0  0.51387  0.05310  0.58012  1.0000
  C   C589      1.0  0.26946  0.01489  0.95206  1.0000
  H   H577      1.0  0.35304  0.99725  0.58004  1.0000
  C   C590      1.0  0.44834  0.99672  0.62441  1.0000
  H   H578      1.0  0.50529  0.99457  0.55042  1.0000
  N   N49       1.0  0.26826  0.02695  0.97154  1.0000
  C   C591      1.0  0.51224  0.27320  0.99609  1.0000
  H   H579      1.0  0.50803  0.29545  0.99678  1.0000
  Fe  Fe97      1.0  0.45013  0.68797  0.07592  1.0000
  S   S193      1.0  0.46442  0.67158  0.10280  1.0000
  S   S194      1.0  0.42438  0.69425  0.08463  1.0000
  Fe  Fe98      1.0  0.47951  0.69925  0.04803  1.0000
  S   S195      1.0  0.49561  0.68336  0.07289  1.0000
  S   S196      1.0  0.48713  0.71837  0.01602  1.0000
  Fe  Fe99      1.0  0.47815  0.64676  0.07868  1.0000
  S   S197      1.0  0.48779  0.60082  0.08417  1.0000
  Fe  Fe100     1.0  0.48043  0.70925  0.09508  1.0000
  S   S198      1.0  0.49153  0.73409  0.12140  1.0000
  S   S199      1.0  0.46292  0.66062  0.05188  1.0000
  S   S200      1.0  0.46537  0.72762  0.06996  1.0000
  Fe  Fe101     1.0  0.30252  0.65904  0.05074  1.0000
  S   S201      1.0  0.29783  0.67656  0.08325  1.0000
  C   C592      1.0  0.26730  0.90042  0.49285  1.0000
  Fe  Fe102     1.0  0.33816  0.66291  0.05692  1.0000
  S   S202      1.0  0.33579  0.68017  0.08955  1.0000
  S   S203      1.0  0.36177  0.65597  0.04076  1.0000
  Fe  Fe103     1.0  0.31688  0.64594  0.09309  1.0000
  S   S204      1.0  0.31467  0.61901  0.12291  1.0000
  Fe  Fe104     1.0  0.31709  0.70932  0.07686  1.0000
  S   S205      1.0  0.31573  0.75911  0.08046  1.0000
  S   S206      1.0  0.32048  0.62648  0.06128  1.0000
  S   S207      1.0  0.32054  0.69410  0.04358  1.0000
  Fe  Fe105     1.0  0.48138  0.90059  0.14684  1.0000
  S   S208      1.0  0.46752  0.88191  0.17392  1.0000
  S   S209      1.0  0.48950  0.87206  0.11996  1.0000
  Fe  Fe106     1.0  0.47739  0.96361  0.16162  1.0000
  S   S210      1.0  0.46308  0.94910  0.19003  1.0000
  H   H580      1.0  0.48922  0.50656  0.12189  1.0000
  Fe  Fe107     1.0  0.48111  0.91334  0.19355  1.0000
  S   S211      1.0  0.48845  0.90024  0.22666  1.0000
  Fe  Fe108     1.0  0.45085  0.91896  0.16813  1.0000
  S   S212      1.0  0.42529  0.90723  0.16350  1.0000
  S   S213      1.0  0.49626  0.92981  0.16663  1.0000
  S   S214      1.0  0.46395  0.93575  0.13958  1.0000
  Fe  Fe109     1.0  0.31235  0.95631  0.14595  1.0000
  H   H581      1.0  0.31557  0.95605  0.47350  1.0000
  C   C593      1.0  0.34939  0.50847  0.12007  1.0000
  Fe  Fe110     1.0  0.31904  0.89443  0.16207  1.0000
  S   S215      1.0  0.32409  0.91141  0.19439  1.0000
  S   S216      1.0  0.32014  0.84458  0.15847  1.0000
  Fe  Fe111     1.0  0.30288  0.94011  0.19090  1.0000
  S   S217      1.0  0.28273  0.94289  0.21510  1.0000
  Fe  Fe112     1.0  0.33758  0.94719  0.17748  1.0000
  S   S218      1.0  0.36045  0.96848  0.18660  1.0000
  S   S219      1.0  0.29693  0.92075  0.15970  1.0000
  S   S220      1.0  0.33402  0.92851  0.14556  1.0000
  H   H582      1.0  0.35469  0.52187  0.17157  1.0000
  C   C594      1.0  0.47719  0.61705  0.16405  1.0000
  H   H583      1.0  0.42928  0.94756  0.12771  1.0000
  H   H584      1.0  0.37792  0.76102  0.10755  1.0000
  H   H585      1.0  0.35466  0.71757  0.02860  1.0000
  C   C595      1.0  0.35020  0.53728  0.11253  1.0000
  H   H586      1.0  0.34644  0.59281  0.10339  1.0000
  H   H587      1.0  0.49603  0.79241  0.02158  1.0000
  H   H588      1.0  0.28617  0.75710  0.15404  1.0000
  C   C596      1.0  0.40752  0.92457  0.17080  1.0000
  C   C597      1.0  0.40696  0.94961  0.18322  1.0000
  C   C598      1.0  0.39247  0.96294  0.18792  1.0000
  C   C599      1.0  0.37844  0.95112  0.18054  1.0000
  C   C600      1.0  0.37902  0.92602  0.16826  1.0000
  C   C601      1.0  0.39349  0.91290  0.16338  1.0000
  H   H589      1.0  0.41759  0.95840  0.18952  1.0000
  C   C602      1.0  0.27444  0.62750  0.01147  1.0000
  H   H590      1.0  0.36832  0.91661  0.16258  1.0000
  H   H591      1.0  0.39380  0.89345  0.15387  1.0000
  C   C603      1.0  0.31888  0.78256  0.10203  1.0000
  C   C604      1.0  0.32150  0.77178  0.12220  1.0000
  C   C605      1.0  0.32255  0.79125  0.13912  1.0000
  C   C606      1.0  0.32104  0.82166  0.13612  1.0000
  C   C607      1.0  0.31903  0.83249  0.11582  1.0000
  C   C608      1.0  0.31795  0.81302  0.09889  1.0000
  H   H592      1.0  0.32232  0.74844  0.12486  1.0000
  H   H593      1.0  0.32424  0.78264  0.15473  1.0000
  H   H594      1.0  0.31789  0.85579  0.11323  1.0000
  H   H595      1.0  0.31602  0.82162  0.08333  1.0000
  C   C609      1.0  0.31093  0.51901  0.12126  1.0000
  C   C610      1.0  0.31199  0.53515  0.10249  1.0000
  C   C611      1.0  0.31338  0.56579  0.10276  1.0000
  C   C612      1.0  0.31358  0.58052  0.12184  1.0000
  C   C613      1.0  0.31261  0.56437  0.14059  1.0000
  C   C614      1.0  0.31131  0.53373  0.14032  1.0000
  H   H596      1.0  0.31170  0.52389  0.08769  1.0000
  H   H597      1.0  0.31401  0.57792  0.08822  1.0000
  H   H598      1.0  0.31269  0.57559  0.15543  1.0000
  H   H599      1.0  0.31031  0.52160  0.15487  1.0000
  C   C615      1.0  0.47036  0.53324  0.13362  1.0000
  C   C616      1.0  0.46240  0.55989  0.13100  1.0000
  C   C617      1.0  0.46725  0.58041  0.11552  1.0000
  C   C618      1.0  0.48015  0.57447  0.10240  1.0000
  C   C619      1.0  0.48781  0.54743  0.10457  1.0000
  C   C620      1.0  0.48293  0.52688  0.12004  1.0000
  H   H600      1.0  0.45264  0.56505  0.14138  1.0000
  H   H601      1.0  0.46118  0.60100  0.11400  1.0000
  H   H602      1.0  0.49776  0.54255  0.09446  1.0000
  C   C621      1.0  0.27587  0.97336  0.22972  1.0000
  C   C622      1.0  0.48854  0.77226  0.12298  1.0000
  C   C623      1.0  0.47974  0.78725  0.10815  1.0000
  C   C624      1.0  0.47922  0.81798  0.10815  1.0000
  C   C625      1.0  0.48725  0.83393  0.12318  1.0000
  C   C626      1.0  0.49545  0.81891  0.13863  1.0000
  C   C627      1.0  0.49613  0.78817  0.13849  1.0000
  H   H603      1.0  0.47376  0.77532  0.09625  1.0000
  H   H604      1.0  0.47293  0.82948  0.09610  1.0000
  H   H605      1.0  0.50194  0.83114  0.14997  1.0000
  N   N50       1.0  0.49802  0.79618  0.05443  1.0000
  C   C628      1.0  0.40772  0.67928  0.07276  1.0000
  C   C629      1.0  0.40782  0.67081  0.05178  1.0000
  C   C630      1.0  0.39372  0.66280  0.04229  1.0000
  C   C631      1.0  0.37946  0.66319  0.05369  1.0000
  C   C632      1.0  0.37949  0.67070  0.07484  1.0000
  C   C633      1.0  0.39354  0.67869  0.08429  1.0000
  H   H606      1.0  0.41867  0.67124  0.04272  1.0000
  H   H607      1.0  0.39382  0.65684  0.02595  1.0000
  H   H608      1.0  0.36869  0.67086  0.08387  1.0000
  H   H609      1.0  0.39337  0.68520  0.10053  1.0000
  H   H610      1.0  0.47943  0.65895  0.14875  1.0000
  C   C634      1.0  0.50957  0.81082  0.19876  1.0000
  H   H611      1.0  0.29306  0.53130  0.28223  1.0000
  N   N51       1.0  0.32246  0.92009  0.49252  1.0000
  H   H612      1.0  0.29649  0.60548  0.00742  1.0000
  H   H613      1.0  0.28334  0.84918  0.14459  1.0000
  H   H614      1.0  0.39209  0.98220  0.19761  1.0000
  H   H615      1.0  0.28620  0.92635  0.29270  1.0000
  C   C635      1.0  0.42174  0.96718  0.12583  1.0000
  H   H616      1.0  0.35578  0.57274  0.15757  1.0000
  C   C636      1.0  0.51248  0.80089  0.23560  1.0000
  C   C637      1.0  0.28459  0.60724  0.00214  1.0000
  C   C638      1.0  0.48839  0.79462  0.03577  1.0000
  H   H617      1.0  0.26814  0.93040  0.32526  1.0000
  H   H618      1.0  0.48037  0.77540  0.03672  1.0000
  H   H619      1.0  0.27430  0.52763  0.31225  1.0000
  N   N52       1.0  0.48866  0.82193  0.22314  1.0000
  S   S221      1.0  0.27996  0.64969  0.03300  1.0000
  H   H620      1.0  0.41028  0.96248  0.13373  1.0000
  N   N53       1.0  0.35228  0.56002  0.12597  1.0000
  C   C639      1.0  0.27920  0.94529  0.28732  1.0000
  H   H621      1.0  0.51431  0.81113  0.18288  1.0000
  H   H622      1.0  0.30176  0.90686  0.47712  1.0000
  H   H623      1.0  0.27426  0.52945  0.07895  1.0000
  C   C640      1.0  0.35104  0.50299  0.14139  1.0000
  C   C641      1.0  0.35401  0.55478  0.14692  1.0000
  H   H624      1.0  0.27514  0.55194  0.04576  1.0000
  H   H625      1.0  0.36590  0.74886  0.01915  1.0000
  H   H626      1.0  0.34879  0.54137  0.09594  1.0000
  C   C642      1.0  0.31226  0.89987  0.48497  1.0000
  H   H627      1.0  0.50061  0.55876  0.15409  1.0000
  N   N54       1.0  0.27569  0.96506  0.30473  1.0000
  H   H628      1.0  0.28199  0.77109  0.41093  1.0000
  H   H629      1.0  0.27935  0.79163  0.09231  1.0000
  N   N55       1.0  0.49692  0.62909  0.13796  1.0000
  C   C643      1.0  0.43582  0.98996  0.15433  1.0000
  N   N56       1.0  0.28446  0.80351  0.15160  1.0000
  N   N57       1.0  0.27563  0.57580  0.07459  1.0000
  H   H630      1.0  0.30647  0.85410  0.48245  1.0000
  H   H631      1.0  0.48095  0.81434  0.03407  1.0000
  C   C644      1.0  0.50455  0.65036  0.12375  1.0000
  C   C645      1.0  0.27370  0.75403  0.41545  1.0000
  C   C646      1.0  0.49623  0.58099  0.15345  1.0000
  C   C647      1.0  0.28217  0.77106  0.12244  1.0000
  H   H632      1.0  0.27705  0.54171  0.23616  1.0000
  C   C648      1.0  0.50357  0.77093  0.06313  1.0000
  H   H633      1.0  0.49290  0.81259  0.25530  1.0000
  H   H634      1.0  0.51287  0.99204  0.42822  1.0000
  C   C649      1.0  0.28984  0.51000  0.28864  1.0000
  C   C650      1.0  0.50739  0.87810  0.25729  1.0000
  C   C651      1.0  0.28422  0.77575  0.14382  1.0000
  H   H635      1.0  0.51262  0.59488  0.12941  1.0000
  C   C652      1.0  0.28253  0.82712  0.13859  1.0000
  C   C653      1.0  0.49738  0.81162  0.23931  1.0000
  H   H636      1.0  0.27289  0.97191  0.14702  1.0000
  C   C654      1.0  0.27448  0.55183  0.10826  1.0000
  H   H637      1.0  0.49780  0.88342  0.26791  1.0000
  H   H638      1.0  0.50299  0.77673  0.14997  1.0000
  H   H639      1.0  0.46441  0.81413  0.22857  1.0000
  C   C655      1.0  0.50291  0.60147  0.13948  1.0000
  C   C656      1.0  0.28035  0.82321  0.11715  1.0000
  H   H640      1.0  0.48759  0.82955  0.19018  1.0000
  H   H641      1.0  0.34970  0.98822  0.14535  1.0000
  H   H642      1.0  0.50043  0.74991  0.05671  1.0000
  H   H643      1.0  0.49723  0.67012  0.12144  1.0000
  C   C657      1.0  0.31909  0.95130  0.48981  1.0000
  H   H644      1.0  0.27782  0.62545  0.11334  1.0000
  H   H645      1.0  0.46899  0.84810  0.21500  1.0000
  C   C658      1.0  0.27600  0.57462  0.05167  1.0000
  C   C659      1.0  0.48327  0.58886  0.16576  1.0000
  H   H646      1.0  0.28269  0.74913  0.11610  1.0000
  H   H647      1.0  0.49750  0.84284  0.05576  1.0000
  N   N58       1.0  0.36934  0.73754  0.05098  1.0000
  C   C660      1.0  0.38448  0.73916  0.05742  1.0000
  C   C661      1.0  0.35725  0.74502  0.06425  1.0000
  C   C662      1.0  0.38780  0.74763  0.07784  1.0000
  C   C663      1.0  0.36014  0.75358  0.08476  1.0000
  C   C664      1.0  0.37552  0.75475  0.09160  1.0000
  C   C665      1.0  0.36609  0.72917  0.02942  1.0000
  H   H648      1.0  0.39408  0.73299  0.04701  1.0000
  H   H649      1.0  0.34526  0.74421  0.05906  1.0000
  H   H650      1.0  0.39981  0.74777  0.08308  1.0000
  H   H651      1.0  0.35048  0.75915  0.09527  1.0000
  C   C666      1.0  0.48426  0.63709  0.15007  1.0000
  H   H652      1.0  0.27742  0.62230  0.07466  1.0000
  H   H653      1.0  0.51380  0.84552  0.08711  1.0000
  H   H654      1.0  0.27712  0.72932  0.38713  1.0000
  C   C667      1.0  0.31482  0.86996  0.48807  1.0000
  C   C668      1.0  0.35343  0.59003  0.11775  1.0000
  H   H655      1.0  0.50145  0.66302  0.99893  1.0000
  H   H656      1.0  0.27793  0.79681  0.18360  1.0000
  H   H657      1.0  0.49610  0.57313  0.43761  1.0000
  C   C669      1.0  0.50620  0.88496  0.23584  1.0000
  S   S222      1.0  0.30584  0.98206  0.11703  1.0000
  H   H658      1.0  0.32941  0.96516  0.49320  1.0000
  H   H659      1.0  0.34862  0.60592  0.12926  1.0000
  C   C670      1.0  0.47278  0.83268  0.22744  1.0000
  H   H660      1.0  0.47759  0.57267  0.17595  1.0000
  C   C671      1.0  0.50538  0.73289  0.00671  1.0000
  H   H661      1.0  0.47236  0.84536  0.24221  1.0000
  C   C672      1.0  0.51134  0.82448  0.08011  1.0000
  S   S223      1.0  0.31677  0.97730  0.17678  1.0000
  S   S224      1.0  0.46549  0.51080  0.15575  1.0000
  H   H662      1.0  0.36583  0.59564  0.11397  1.0000
  C   C673      1.0  0.27652  0.60243  0.08405  1.0000
  H   H663      1.0  0.37503  0.71359  0.02334  1.0000
  H   H664      1.0  0.46689  0.62315  0.17319  1.0000
  C   C674      1.0  0.27652  0.60439  0.10589  1.0000
  C   C675      1.0  0.49448  0.82134  0.20302  1.0000
  C   C676      1.0  0.28725  0.80767  0.17394  1.0000
  C   C677      1.0  0.27464  0.55066  0.08637  1.0000
  C   C678      1.0  0.35339  0.52620  0.15495  1.0000
  H   H665      1.0  0.28710  0.58441  0.04542  1.0000
  C   C679      1.0  0.27918  0.50793  0.30543  1.0000
  H   H666      1.0  0.27941  0.84199  0.10676  1.0000
  C   C680      1.0  0.28027  0.79498  0.10905  1.0000
  H   H667      1.0  0.51589  0.65743  0.13016  1.0000
  H   H668      1.0  0.43630  0.96877  0.16201  1.0000
  H   H669      1.0  0.29027  0.50112  0.21718  1.0000
  H   H670      1.0  0.50661  0.64051  0.10809  1.0000
  C   C681      1.0  0.50192  0.82277  0.06254  1.0000
  H   H671      1.0  0.51471  0.55434  0.43830  1.0000
  C   C682      1.0  0.28123  0.49634  0.22886  1.0000
  H   H672      1.0  0.28762  0.83123  0.17813  1.0000
  H   H673      1.0  0.27549  0.98609  0.18421  1.0000
  H   H674      1.0  0.50819  0.57610  0.46005  1.0000
  C   C683      1.0  0.27547  0.57890  0.11803  1.0000
  H   H675      1.0  0.27421  0.53181  0.11756  1.0000
  H   H676      1.0  0.28604  0.95640  0.27449  1.0000
  C   C684      1.0  0.27373  0.51932  0.23970  1.0000
  H   H677      1.0  0.50481  0.59538  0.40400  1.0000
  H   H678      1.0  0.41999  0.97030  0.10880  1.0000
  C   C685      1.0  0.51305  0.77184  0.08067  1.0000
  H   H679      1.0  0.26735  0.77425  0.44458  1.0000
  C   C686      1.0  0.50841  0.57472  0.44267  1.0000
  N   N59       1.0  0.42901  0.99282  0.13527  1.0000
  H   H680      1.0  0.27597  0.58006  0.13496  1.0000
  C   C687      1.0  0.27099  0.73062  0.40214  1.0000
  H   H681      1.0  0.29884  0.79848  0.17798  1.0000
  H   H682      1.0  0.51514  0.96300  0.38366  1.0000
  H   H683      1.0  0.26812  0.93722  0.28062  1.0000
  H   H684      1.0  0.51446  0.91072  0.37410  1.0000
  C   C688      1.0  0.26994  0.95378  0.32328  1.0000
  C   C689      1.0  0.51330  0.60766  0.41276  1.0000
  Fe  Fe113     1.0  0.48400  0.67188  0.69464  1.0000
  S   S225      1.0  0.49449  0.69150  0.66490  1.0000
  S   S226      1.0  0.49568  0.66713  0.72662  1.0000
  Fe  Fe114     1.0  0.45111  0.66768  0.67540  1.0000
  S   S227      1.0  0.45926  0.68690  0.64463  1.0000
  S   S228      1.0  0.42721  0.64614  0.67878  1.0000
  Fe  Fe115     1.0  0.48006  0.65757  0.64846  1.0000
  S   S229      1.0  0.48699  0.63202  0.61958  1.0000
  Fe  Fe116     1.0  0.47275  0.71934  0.66336  1.0000
  S   S230      1.0  0.47304  0.76926  0.65906  1.0000
  S   S231      1.0  0.47116  0.63619  0.67809  1.0000
  S   S232      1.0  0.46305  0.70195  0.69428  1.0000
  Fe  Fe117     1.0  0.30420  0.69281  0.69218  1.0000
  S   S233      1.0  0.29893  0.67467  0.66031  1.0000
  S   S234      1.0  0.28276  0.69767  0.71435  1.0000
  Fe  Fe118     1.0  0.33942  0.69748  0.68068  1.0000
  S   S235      1.0  0.33630  0.68053  0.64824  1.0000
  S   S236      1.0  0.36305  0.71580  0.68984  1.0000
  Fe  Fe119     1.0  0.31525  0.70992  0.64801  1.0000
  S   S237      1.0  0.30926  0.73787  0.61977  1.0000
  Fe  Fe120     1.0  0.32039  0.64671  0.66332  1.0000
  S   S238      1.0  0.32323  0.59740  0.65771  1.0000
  S   S239      1.0  0.31930  0.72935  0.67944  1.0000
  S   S240      1.0  0.32469  0.66223  0.69628  1.0000
  Fe  Fe121     1.0  0.48067  0.95416  0.54474  1.0000
  S   S241      1.0  0.49567  0.93545  0.57011  1.0000
  H   H685      1.0  0.45098  0.55124  0.64630  1.0000
  Fe  Fe122     1.0  0.45057  0.94992  0.57304  1.0000
  S   S242      1.0  0.46377  0.93080  0.59996  1.0000
  S   S243      1.0  0.42610  0.96629  0.58134  1.0000
  Fe  Fe123     1.0  0.48193  0.96486  0.59180  1.0000
  C   C690      1.0  0.44618  0.60469  0.63041  1.0000
  Fe  Fe124     1.0  0.47595  0.90293  0.57602  1.0000
  S   S244      1.0  0.48043  0.85370  0.57950  1.0000
  H   H686      1.0  0.49591  0.74667  0.97722  1.0000
  S   S245      1.0  0.46158  0.91993  0.54914  1.0000
  Fe  Fe125     1.0  0.31615  0.90470  0.59279  1.0000
  S   S246      1.0  0.32127  0.88756  0.56047  1.0000
  S   S247      1.0  0.31434  0.87635  0.62211  1.0000
  Fe  Fe126     1.0  0.31826  0.96921  0.57940  1.0000
  S   S248      1.0  0.32348  0.95620  0.54608  1.0000
  H   H687      1.0  0.39588  0.90650  0.53256  1.0000
  Fe  Fe127     1.0  0.30445  0.92220  0.54982  1.0000
  S   S249      1.0  0.28696  0.92104  0.52303  1.0000
  Fe  Fe128     1.0  0.33972  0.92290  0.55933  1.0000
  S   S250      1.0  0.36345  0.91449  0.54402  1.0000
  S   S251      1.0  0.29803  0.93751  0.58247  1.0000
  S   S252      1.0  0.33583  0.93769  0.59227  1.0000
  C   C691      1.0  0.28626  0.53667  0.64503  1.0000
  C   C692      1.0  0.40892  0.95056  0.57124  1.0000
  C   C693      1.0  0.39435  0.95787  0.58035  1.0000
  C   C694      1.0  0.38038  0.94652  0.57240  1.0000
  C   C695      1.0  0.38083  0.92812  0.55503  1.0000
  C   C696      1.0  0.39540  0.92076  0.54596  1.0000
  C   C697      1.0  0.40941  0.93177  0.55410  1.0000
  C   C698      1.0  0.50631  0.74550  0.98653  1.0000
  H   H688      1.0  0.36927  0.95199  0.57965  1.0000
  C   C699      1.0  0.35334  0.73885  0.61791  1.0000
  C   C700      1.0  0.32784  0.86081  0.49914  1.0000
  C   C701      1.0  0.32063  0.57556  0.63509  1.0000
  C   C702      1.0  0.31112  0.58436  0.61865  1.0000
  C   C703      1.0  0.30768  0.56470  0.60245  1.0000
  C   C704      1.0  0.31378  0.53612  0.60235  1.0000
  C   C705      1.0  0.32370  0.52764  0.61842  1.0000
  C   C706      1.0  0.32704  0.54722  0.63469  1.0000
  H   H689      1.0  0.30603  0.60598  0.61875  1.0000
  H   H690      1.0  0.30001  0.57153  0.59010  1.0000
  C   C707      1.0  0.28051  0.86298  0.51255  1.0000
  H   H691      1.0  0.33441  0.54017  0.64731  1.0000
  C   C708      1.0  0.31168  0.77626  0.62023  1.0000
  C   C709      1.0  0.31691  0.79054  0.63803  1.0000
  C   C710      1.0  0.31807  0.82122  0.63818  1.0000
  C   C711      1.0  0.31421  0.83786  0.62048  1.0000
  C   C712      1.0  0.30945  0.82356  0.60244  1.0000
  C   C713      1.0  0.30811  0.79287  0.60237  1.0000
  H   H692      1.0  0.31987  0.77809  0.65178  1.0000
  H   H693      1.0  0.32179  0.83213  0.65219  1.0000
  H   H694      1.0  0.30634  0.83620  0.58875  1.0000
  H   H695      1.0  0.30412  0.78200  0.58849  1.0000
  C   C714      1.0  0.47231  0.79171  0.63614  1.0000
  C   C715      1.0  0.47489  0.78059  0.61604  1.0000
  C   C716      1.0  0.47658  0.79983  0.59870  1.0000
  C   C717      1.0  0.47548  0.83034  0.60115  1.0000
  C   C718      1.0  0.47207  0.84134  0.62109  1.0000
  C   C719      1.0  0.47060  0.82213  0.63846  1.0000
  H   H696      1.0  0.47608  0.75727  0.61392  1.0000
  H   H697      1.0  0.47913  0.79106  0.58334  1.0000
  C   C720      1.0  0.27992  0.76743  0.67715  1.0000
  S   S253      1.0  0.48843  0.97339  0.51273  1.0000
  C   C721      1.0  0.48460  0.53184  0.62092  1.0000
  C   C722      1.0  0.48313  0.54734  0.60209  1.0000
  C   C723      1.0  0.48398  0.57805  0.60186  1.0000
  C   C724      1.0  0.48591  0.59351  0.62050  1.0000
  C   C725      1.0  0.48709  0.57804  0.63938  1.0000
  C   C726      1.0  0.48659  0.54730  0.63954  1.0000
  S   S254      1.0  0.46820  0.98541  0.56628  1.0000
  H   H698      1.0  0.48304  0.58992  0.58721  1.0000
  H   H699      1.0  0.48883  0.58972  0.65377  1.0000
  H   H700      1.0  0.48780  0.53543  0.65415  1.0000
  C   C727      1.0  0.40954  0.66625  0.68100  1.0000
  C   C728      1.0  0.40942  0.69568  0.68676  1.0000
  C   C729      1.0  0.39509  0.71048  0.68954  1.0000
  C   C730      1.0  0.38077  0.69625  0.68612  1.0000
  C   C731      1.0  0.38091  0.66700  0.67994  1.0000
  C   C732      1.0  0.39522  0.65201  0.67763  1.0000
  H   H701      1.0  0.42034  0.70684  0.68956  1.0000
  H   H702      1.0  0.39513  0.73299  0.69456  1.0000
  H   H703      1.0  0.36998  0.65573  0.67734  1.0000
  H   H704      1.0  0.39517  0.62921  0.67327  1.0000
  C   C733      1.0  0.36250  0.74339  0.63547  1.0000
  H   H705      1.0  0.45115  0.62175  0.61963  1.0000
  C   C734      1.0  0.36070  0.79485  0.63075  1.0000
  H   H706      1.0  0.50150  0.51237  0.52421  1.0000
  C   C735      1.0  0.27573  0.72576  0.73135  1.0000
  H   H707      1.0  0.34038  0.75958  0.59340  1.0000
  H   H708      1.0  0.36321  0.81686  0.63590  1.0000
  H   H709      1.0  0.51319  0.54253  0.58268  1.0000
  N   N60       1.0  0.36626  0.77113  0.64147  1.0000
  N   N61       1.0  0.27578  0.76023  0.65729  1.0000
  H   H710      1.0  0.29515  0.55970  0.67157  1.0000
  H   H711      1.0  0.26770  0.51729  0.93496  1.0000
  H   H712      1.0  0.50973  0.66521  0.76703  1.0000
  H   H713      1.0  0.42055  0.92602  0.54694  1.0000
  C   C736      1.0  0.51427  0.82006  0.60321  1.0000
  S   S255      1.0  0.49216  0.99205  0.61770  1.0000
  H   H714      1.0  0.49046  0.67864  0.97837  1.0000
  H   H715      1.0  0.28831  0.85659  0.52487  1.0000
  C   C737      1.0  0.47587  0.59244  0.72764  1.0000
  N   N62       1.0  0.44456  0.57666  0.61968  1.0000
  H   H716      1.0  0.49830  0.64199  0.97560  1.0000
  H   H717      1.0  0.30951  0.51664  0.68504  1.0000
  H   H718      1.0  0.35020  0.71688  0.61329  1.0000
  H   H719      1.0  0.43730  0.98504  0.62874  1.0000
  H   H720      1.0  0.27603  0.81865  0.50282  1.0000
  H   H721      1.0  0.27306  0.77504  0.62583  1.0000
  H   H722      1.0  0.26773  0.84672  0.80012  1.0000
  C   C738      1.0  0.34789  0.76287  0.60666  1.0000
  C   C739      1.0  0.27752  0.89266  0.50897  1.0000
  C   C740      1.0  0.44069  0.52351  0.59954  1.0000
  H   H723      1.0  0.29519  0.75520  0.72658  1.0000
  C   C741      1.0  0.27584  0.78099  0.64173  1.0000
  C   C742      1.0  0.28395  0.75185  0.73438  1.0000
  H   H724      1.0  0.36647  0.72458  0.64440  1.0000
  H   H725      1.0  0.50402  0.68375  0.94243  1.0000
  C   C743      1.0  0.28421  0.81749  0.66612  1.0000
  H   H726      1.0  0.43759  0.59659  0.59108  1.0000
  H   H727      1.0  0.28032  0.82626  0.63345  1.0000
  H   H728      1.0  0.46200  0.65413  0.72821  1.0000
  C   C744      1.0  0.50902  0.83859  0.63786  1.0000
  C   C745      1.0  0.27929  0.58897  0.98601  1.0000
  C   C746      1.0  0.35154  0.79109  0.61310  1.0000
  H   H729      1.0  0.27906  0.72133  0.64002  1.0000
  H   H730      1.0  0.43415  0.54929  0.57283  1.0000
  H   H731      1.0  0.51551  0.82377  0.58645  1.0000
  H   H732      1.0  0.34692  0.80992  0.60482  1.0000
  H   H733      1.0  0.51081  0.86561  0.61002  1.0000
  C   C747      1.0  0.27769  0.77358  0.74772  1.0000
  H   H734      1.0  0.47172  0.58956  0.71190  1.0000
  N   N63       1.0  0.51154  0.78685  0.63247  1.0000
  H   H735      1.0  0.46854  0.83099  0.65391  1.0000
  H   H736      1.0  0.27299  0.87798  0.83092  1.0000
  H   H737      1.0  0.48153  0.53576  0.58768  1.0000
  H   H738      1.0  0.35033  0.98705  0.61664  1.0000
  C   C748      1.0  0.50895  0.80986  0.64563  1.0000
  C   C749      1.0  0.37556  0.77546  0.66018  1.0000
  H   H739      1.0  0.36773  0.77574  0.67430  1.0000
  H   H740      1.0  0.38409  0.75737  0.66213  1.0000
  H   H741      1.0  0.38239  0.79615  0.65920  1.0000
  H   H742      1.0  0.47072  0.63545  0.76949  1.0000
  N   N64       1.0  0.46947  0.61340  0.74034  1.0000
  H   H743      1.0  0.45434  0.60299  0.64364  1.0000
  H   H744      1.0  0.43462  0.61209  0.63667  1.0000
  H   H745      1.0  0.45214  0.98949  0.60858  1.0000
  H   H746      1.0  0.50610  0.80602  0.66206  1.0000
  C   C750      1.0  0.27992  0.80996  0.64593  1.0000
  H   H747      1.0  0.32853  0.50581  0.61858  1.0000
  C   C751      1.0  0.28638  0.51027  0.63414  1.0000
  C   C752      1.0  0.43785  0.54971  0.58897  1.0000
  C   C753      1.0  0.44540  0.52409  0.62029  1.0000
  H   H748      1.0  0.49220  0.60456  0.78266  1.0000
  H   H749      1.0  0.45120  0.62320  0.71880  1.0000
  C   C754      1.0  0.44717  0.55101  0.63023  1.0000
  H   H750      1.0  0.27390  0.64611  0.85216  1.0000
  H   H751      1.0  0.28048  0.50906  0.61931  1.0000
  C   C755      1.0  0.43982  0.57627  0.59936  1.0000
  H   H752      1.0  0.34829  0.87480  0.51561  1.0000
  H   H753      1.0  0.28724  0.57328  0.97905  1.0000
  H   H754      1.0  0.28042  0.55570  0.63867  1.0000
  C   C756      1.0  0.51511  0.64808  0.75784  1.0000
  C   C757      1.0  0.48811  0.57484  0.73462  1.0000
  H   H755      1.0  0.27178  0.71547  0.66638  1.0000
  H   H756      1.0  0.34332  0.92724  0.50959  1.0000
  C   C758      1.0  0.30270  0.51475  0.67099  1.0000
  S   S256      1.0  0.30751  0.51120  0.58293  1.0000
  C   C759      1.0  0.33820  0.88157  0.50675  1.0000
  H   H757      1.0  0.44780  0.63560  0.74498  1.0000
  H   H758      1.0  0.47118  0.86470  0.62326  1.0000
  C   C760      1.0  0.47521  0.61782  0.75988  1.0000
  H   H759      1.0  0.28782  0.83974  0.66938  1.0000
  C   C761      1.0  0.27354  0.84149  0.49996  1.0000
  C   C762      1.0  0.29452  0.53891  0.66352  1.0000
  C   C763      1.0  0.48735  0.60045  0.76742  1.0000
  H   H760      1.0  0.30934  0.95761  0.50066  1.0000
  H   H761      1.0  0.50632  0.85667  0.64816  1.0000
  H   H762      1.0  0.44799  0.50382  0.62848  1.0000
  C   C764      1.0  0.51423  0.79164  0.61153  1.0000
  C   C765      1.0  0.51077  0.64448  0.73686  1.0000
  C   C766      1.0  0.45701  0.63243  0.73269  1.0000
  H   H763      1.0  0.43926  0.50281  0.59162  1.0000
  H   H764      1.0  0.39390  0.97219  0.59370  1.0000
  H   H765      1.0  0.28420  0.79359  0.74997  1.0000
  H   H766      1.0  0.32979  0.83772  0.50207  1.0000
  C   C767      1.0  0.51161  0.84363  0.61649  1.0000
  H   H767      1.0  0.45775  0.99012  0.63521  1.0000
  C   C768      1.0  0.27116  0.73022  0.65245  1.0000
  H   H768      1.0  0.50373  0.56615  0.75999  1.0000
  H   H769      1.0  0.49345  0.55878  0.72434  1.0000
  C   C769      1.0  0.49384  0.57888  0.75466  1.0000
  C   C770      1.0  0.50960  0.50656  0.51169  1.0000
  H   H770      1.0  0.51479  0.61920  0.70906  1.0000
  C   C771      1.0  0.50686  0.98439  0.50147  1.0000
  C   C772      1.0  0.50062  0.66426  0.98159  1.0000
  C   C773      1.0  0.28422  0.79612  0.68188  1.0000
  C   C774      1.0  0.33531  0.91130  0.50330  1.0000
  H   H771      1.0  0.28764  0.80160  0.69762  1.0000
  H   H772      1.0  0.28002  0.75093  0.68944  1.0000
  H   H773      1.0  0.50826  0.75582  0.65763  1.0000
  C   C775      1.0  0.51097  0.75672  0.64052  1.0000
  H   H774      1.0  0.28157  0.51203  0.90089  1.0000
  H   H775      1.0  0.50149  0.74442  0.63280  1.0000
  C   C776      1.0  0.51469  0.68534  0.95123  1.0000
  N   N65       1.0  0.51491  0.67636  0.97171  1.0000
  H   H776      1.0  0.51564  0.55129  0.50385  1.0000
  C   C777      1.0  0.27329  0.49539  0.90619  1.0000
  H   H777      1.0  0.51574  0.77335  0.60101  1.0000
  Fe  Fe129     1.0  0.58970  0.33208  0.31334  1.0000
  S   S257      1.0  0.58285  0.31360  0.34482  1.0000
  S   S258      1.0  0.61369  0.35347  0.31082  1.0000
  Fe  Fe130     1.0  0.55649  0.32356  0.29581  1.0000
  S   S259      1.0  0.54748  0.30438  0.32655  1.0000
  S   S260      1.0  0.54192  0.32302  0.26583  1.0000
  Fe  Fe131     1.0  0.56121  0.34085  0.34123  1.0000
  S   S261      1.0  0.55370  0.36665  0.36979  1.0000
  Fe  Fe132     1.0  0.56997  0.27875  0.32759  1.0000
  S   S262      1.0  0.57302  0.22918  0.33216  1.0000
  S   S263      1.0  0.56874  0.36153  0.31066  1.0000
  S   S264      1.0  0.57831  0.29562  0.29588  1.0000
  Fe  Fe133     1.0  0.73420  0.28449  0.29337  1.0000
  S   S265      1.0  0.74471  0.30143  0.32306  1.0000
  C   C778      1.0  0.51940  0.28105  0.14120  1.0000
  Fe  Fe134     1.0  0.70044  0.29147  0.31105  1.0000
  S   S266      1.0  0.70836  0.30885  0.34184  1.0000
  S   S267      1.0  0.67560  0.27743  0.30393  1.0000
  Fe  Fe135     1.0  0.72576  0.33578  0.32307  1.0000
  S   S268      1.0  0.73164  0.38440  0.32690  1.0000
  Fe  Fe136     1.0  0.72650  0.27331  0.33989  1.0000
  S   S269      1.0  0.72962  0.24765  0.37008  1.0000
  S   S270      1.0  0.71643  0.32088  0.29209  1.0000
  S   S271      1.0  0.71744  0.25404  0.31042  1.0000
  Fe  Fe137     1.0  0.58953  0.04234  0.40929  1.0000
  S   S272      1.0  0.57493  0.06148  0.38383  1.0000
  S   S273      1.0  0.61420  0.03379  0.39709  1.0000
  Fe  Fe138     1.0  0.56076  0.03525  0.43934  1.0000
  S   S274      1.0  0.54445  0.05439  0.41575  1.0000
  H   H778      1.0  0.53205  0.14201  0.07729  1.0000
  Fe  Fe139     1.0  0.55767  0.02615  0.39270  1.0000
  S   S275      1.0  0.54682  0.99892  0.36742  1.0000
  Fe  Fe140     1.0  0.56346  0.08805  0.40901  1.0000
  S   S276      1.0  0.55949  0.13754  0.40696  1.0000
  N   N66       1.0  0.53384  0.22111  0.31639  1.0000
  S   S277      1.0  0.57908  0.07085  0.43441  1.0000
  Fe  Fe141     1.0  0.72781  0.02070  0.41911  1.0000
  S   S278      1.0  0.71836  0.03447  0.45075  1.0000
  C   C779      1.0  0.59632  0.47631  0.39015  1.0000
  Fe  Fe142     1.0  0.72566  0.08271  0.40204  1.0000
  S   S279      1.0  0.71584  0.10090  0.43198  1.0000
  S   S280      1.0  0.73084  0.10914  0.37255  1.0000
  Fe  Fe143     1.0  0.73417  0.07390  0.44787  1.0000
  S   S281      1.0  0.74428  0.09450  0.47739  1.0000
  Fe  Fe144     1.0  0.70079  0.06049  0.43282  1.0000
  S   S282      1.0  0.67603  0.06200  0.44643  1.0000
  S   S283      1.0  0.74515  0.05818  0.41764  1.0000
  S   S284      1.0  0.70910  0.04416  0.40144  1.0000
  C   C780      1.0  0.53099  0.49197  0.47944  1.0000
  C   C781      1.0  0.52291  0.12748  0.07206  1.0000
  H   H779      1.0  0.54304  0.25982  0.26346  1.0000
  C   C782      1.0  0.59690  0.42733  0.34360  1.0000
  H   H780      1.0  0.72288  0.46252  0.47184  1.0000
  H   H781      1.0  0.58897  0.37696  0.38177  1.0000
  H   H782      1.0  0.52245  0.30155  0.11087  1.0000
  C   C783      1.0  0.52296  0.46997  0.49104  1.0000
  C   C784      1.0  0.63123  0.04139  0.41117  1.0000
  C   C785      1.0  0.63057  0.04795  0.43247  1.0000
  C   C786      1.0  0.64442  0.05424  0.44305  1.0000
  C   C787      1.0  0.65898  0.05419  0.43241  1.0000
  C   C788      1.0  0.65961  0.04796  0.41104  1.0000
  C   C789      1.0  0.64579  0.04134  0.40051  1.0000
  H   H783      1.0  0.61941  0.04803  0.44083  1.0000
  H   H784      1.0  0.64387  0.05903  0.45961  1.0000
  H   H785      1.0  0.67075  0.04826  0.40265  1.0000
  H   H786      1.0  0.58706  0.49188  0.38548  1.0000
  C   C790      1.0  0.72754  0.40773  0.34855  1.0000
  C   C791      1.0  0.72070  0.39730  0.36728  1.0000
  C   C792      1.0  0.71788  0.41654  0.38410  1.0000
  C   C793      1.0  0.72175  0.44645  0.38243  1.0000
  C   C794      1.0  0.72858  0.45689  0.36370  1.0000
  C   C795      1.0  0.73147  0.43762  0.34690  1.0000
  H   H787      1.0  0.71765  0.37440  0.36885  1.0000
  H   H788      1.0  0.71262  0.40816  0.39851  1.0000
  H   H789      1.0  0.59052  0.42141  0.40343  1.0000
  H   H790      1.0  0.73677  0.44598  0.33252  1.0000
  C   C796      1.0  0.72791  0.20918  0.36981  1.0000
  C   C797      1.0  0.73187  0.19326  0.35191  1.0000
  C   C798      1.0  0.73220  0.16252  0.35282  1.0000
  C   C799      1.0  0.72844  0.14748  0.37153  1.0000
  C   C800      1.0  0.72391  0.16339  0.38923  1.0000
  C   C801      1.0  0.72374  0.19416  0.38839  1.0000
  H   H791      1.0  0.73517  0.20462  0.33754  1.0000
  H   H792      1.0  0.73570  0.15036  0.33905  1.0000
  H   H793      1.0  0.72096  0.15208  0.40370  1.0000
  H   H794      1.0  0.72064  0.20638  0.40227  1.0000
  H   H795      1.0  0.75353  0.45729  0.40082  1.0000
  N   N67       1.0  0.65432  0.27230  0.35153  1.0000
  C   C802      1.0  0.52880  0.34925  0.25507  1.0000
  C   C803      1.0  0.59749  0.45220  0.35618  1.0000
  C   C804      1.0  0.59410  0.40006  0.35291  1.0000
  C   C805      1.0  0.56954  0.20437  0.35345  1.0000
  C   C806      1.0  0.56383  0.21345  0.37301  1.0000
  C   C807      1.0  0.56079  0.19269  0.38913  1.0000
  C   C808      1.0  0.56342  0.16266  0.38595  1.0000
  C   C809      1.0  0.56914  0.15359  0.36638  1.0000
  C   C810      1.0  0.57218  0.17433  0.35028  1.0000
  C   C811      1.0  0.52190  0.33318  0.13577  1.0000
  H   H796      1.0  0.75534  0.25962  0.21939  1.0000
  H   H797      1.0  0.57111  0.13059  0.36359  1.0000
  H   H798      1.0  0.57655  0.16702  0.33520  1.0000
  C   C812      1.0  0.55417  0.40533  0.36906  1.0000
  C   C813      1.0  0.55547  0.42087  0.35014  1.0000
  C   C814      1.0  0.55613  0.45161  0.35010  1.0000
  C   C815      1.0  0.55573  0.46708  0.36896  1.0000
  C   C816      1.0  0.55451  0.45158  0.38791  1.0000
  C   C817      1.0  0.55357  0.42083  0.38793  1.0000
  H   H799      1.0  0.55573  0.40928  0.33550  1.0000
  H   H800      1.0  0.55696  0.46344  0.33537  1.0000
  H   H801      1.0  0.55396  0.46324  0.40253  1.0000
  H   H802      1.0  0.55246  0.40899  0.40264  1.0000
  C   C818      1.0  0.63090  0.33260  0.30739  1.0000
  C   C819      1.0  0.64555  0.34601  0.30995  1.0000
  C   C820      1.0  0.65944  0.32958  0.30854  1.0000
  C   C821      1.0  0.65875  0.29971  0.30419  1.0000
  C   C822      1.0  0.64413  0.28654  0.30099  1.0000
  C   C823      1.0  0.63024  0.30281  0.30281  1.0000
  H   H803      1.0  0.64613  0.36909  0.31340  1.0000
  H   H804      1.0  0.67064  0.33995  0.31096  1.0000
  H   H805      1.0  0.64353  0.26351  0.29737  1.0000
  H   H806      1.0  0.61903  0.29234  0.30062  1.0000
  C   C824      1.0  0.76562  0.16708  0.21168  1.0000
  H   H807      1.0  0.61041  0.14199  0.45516  1.0000
  C   C825      1.0  0.75794  0.31100  0.04986  1.0000
  N   N68       1.0  0.61594  0.11478  0.39840  1.0000
  H   H808      1.0  0.52208  0.10161  0.10051  1.0000
  H   H809      1.0  0.61945  0.12337  0.36596  1.0000
  H   H810      1.0  0.59214  0.12699  0.39424  1.0000
  H   H811      1.0  0.60748  0.09156  0.37229  1.0000
  C   C826      1.0  0.73771  0.45125  0.44533  1.0000
  S   S285      1.0  0.55399  0.01487  0.47124  1.0000
  C   C827      1.0  0.74608  0.35564  0.03766  1.0000
  H   H812      1.0  0.58864  0.00420  0.36631  1.0000
  C   C828      1.0  0.59969  0.13620  0.42528  1.0000
  H   H813      1.0  0.63616  0.12214  0.44298  1.0000
  C   C829      1.0  0.62647  0.12367  0.43233  1.0000
  H   H814      1.0  0.52242  0.27927  0.28737  1.0000
  H   H815      1.0  0.72802  0.35019  0.22743  1.0000
  H   H816      1.0  0.64956  0.35389  0.36540  1.0000
  H   H817      1.0  0.56172  0.23643  0.37574  1.0000
  H   H818      1.0  0.53738  0.18701  0.33912  1.0000
  H   H819      1.0  0.62628  0.32395  0.35675  1.0000
  H   H820      1.0  0.64814  0.23597  0.33284  1.0000
  C   C830      1.0  0.75474  0.44226  0.41448  1.0000
  C   C831      1.0  0.63778  0.31398  0.35733  1.0000
  H   H821      1.0  0.52561  0.36917  0.18000  1.0000
  H   H822      1.0  0.66818  0.23716  0.33952  1.0000
  H   H823      1.0  0.52462  0.32326  0.22781  1.0000
  N   N69       1.0  0.59552  0.44986  0.37743  1.0000
  H   H824      1.0  0.52452  0.38363  0.15387  1.0000
  C   C832      1.0  0.74819  0.16839  0.45344  1.0000
  C   C833      1.0  0.51731  0.10491  0.08507  1.0000
  N   N70       1.0  0.52011  0.33760  0.15685  1.0000
  H   H825      1.0  0.55196  0.19122  0.30779  1.0000
  C   C834      1.0  0.59265  0.42319  0.38668  1.0000
  H   H826      1.0  0.53924  0.48609  0.46711  1.0000
  C   C835      1.0  0.62827  0.11405  0.41170  1.0000
  H   H827      1.0  0.64636  0.03646  0.38397  1.0000
  H   H828      1.0  0.73879  0.15226  0.45747  1.0000
  C   C836      1.0  0.59189  0.39791  0.37456  1.0000
  C   C837      1.0  0.65085  0.33080  0.36206  1.0000
  S   S286      1.0  0.71854  0.46918  0.40463  1.0000
  H   H829      1.0  0.52554  0.99974  0.40575  1.0000
  H   H830      1.0  0.62956  0.27184  0.34791  1.0000
  H   H831      1.0  0.55785  0.21541  0.27381  1.0000
  H   H832      1.0  0.51706  0.25483  0.32155  1.0000
  H   H833      1.0  0.53561  0.22326  0.34930  1.0000
  H   H834      1.0  0.76329  0.41409  0.05810  1.0000
  C   C838      1.0  0.76455  0.35757  0.06486  1.0000
  H   H835      1.0  0.58839  0.14471  0.43035  1.0000
  H   H836      1.0  0.62810  0.08960  0.37517  1.0000
  C   C839      1.0  0.73399  0.35636  0.24152  1.0000
  H   H837      1.0  0.52516  0.44723  0.48752  1.0000
  H   H838      1.0  0.74264  0.40831  0.06373  1.0000
  C   C840      1.0  0.52498  0.37530  0.26526  1.0000
  H   H839      1.0  0.75813  0.16460  0.46404  1.0000
  H   H840      1.0  0.67594  0.33095  0.36515  1.0000
  N   N71       1.0  0.75097  0.45797  0.43384  1.0000
  C   C841      1.0  0.60186  0.12607  0.40484  1.0000
  H   H841      1.0  0.55637  0.19999  0.40419  1.0000
  H   H842      1.0  0.51850  0.25909  0.13499  1.0000
  H   H843      1.0  0.60793  0.48711  0.38805  1.0000
  C   C842      1.0  0.52181  0.34339  0.23576  1.0000
  C   C843      1.0  0.66564  0.31797  0.36185  1.0000
  C   C844      1.0  0.74775  0.34209  0.24713  1.0000
  S   S287      1.0  0.74516  0.27305  0.26122  1.0000
  H   H844      1.0  0.67873  0.27877  0.35600  1.0000
  H   H845      1.0  0.74663  0.42359  0.41207  1.0000
  C   C845      1.0  0.66716  0.28845  0.35664  1.0000
  C   C846      1.0  0.61789  0.10448  0.37685  1.0000
  H   H846      1.0  0.53020  0.38020  0.28010  1.0000
  H   H847      1.0  0.76177  0.20476  0.38775  1.0000
  H   H848      1.0  0.75228  0.32484  0.23717  1.0000
  H   H849      1.0  0.75575  0.18164  0.21414  1.0000
  H   H850      1.0  0.75328  0.21079  0.42464  1.0000
  H   H851      1.0  0.75460  0.11856  0.43430  1.0000
  N   N72       1.0  0.75505  0.34893  0.26531  1.0000
  C   C847      1.0  0.53561  0.00344  0.48239  1.0000
  H   H852      1.0  0.75439  0.37463  0.29304  1.0000
  C   C848      1.0  0.63973  0.28452  0.35221  1.0000
  H   H853      1.0  0.59833  0.42913  0.32672  1.0000
  H   H854      1.0  0.76540  0.31544  0.28332  1.0000
  C   C849      1.0  0.72777  0.37791  0.25455  1.0000
  H   H855      1.0  0.65370  0.22717  0.35947  1.0000
  C   C850      1.0  0.65614  0.24155  0.34570  1.0000
  C   C851      1.0  0.75572  0.18900  0.41891  1.0000
  C   C852      1.0  0.61205  0.13471  0.43915  1.0000
  H   H856      1.0  0.59327  0.38073  0.34329  1.0000
  H   H857      1.0  0.52129  0.02317  0.45894  1.0000
  H   H858      1.0  0.63950  0.10533  0.40660  1.0000
  H   H859      1.0  0.73040  0.40106  0.28352  1.0000
  C   C853      1.0  0.54503  0.20991  0.30309  1.0000
  C   C854      1.0  0.52860  0.25940  0.29152  1.0000
  C   C855      1.0  0.52136  0.01012  0.47313  1.0000
  H   H860      1.0  0.75772  0.15115  0.18204  1.0000
  C   C856      1.0  0.75636  0.13753  0.42419  1.0000
  N   N73       1.0  0.75344  0.16498  0.43160  1.0000
  H   H861      1.0  0.74139  0.31304  0.02484  1.0000
  N   N74       1.0  0.75460  0.37141  0.05153  1.0000
  C   C857      1.0  0.54020  0.24848  0.27808  1.0000
  H   H862      1.0  0.73842  0.36661  0.02679  1.0000
  C   C858      1.0  0.76126  0.13352  0.40337  1.0000
  C   C859      1.0  0.73533  0.38486  0.27297  1.0000
  H   H863      1.0  0.72975  0.43440  0.44016  1.0000
  S   S288      1.0  0.57295  0.00536  0.41644  1.0000
  H   H864      1.0  0.75948  0.28750  0.04888  1.0000
  H   H865      1.0  0.75011  0.41269  0.03707  1.0000
  C   C860      1.0  0.74766  0.32525  0.03655  1.0000
  C   C861      1.0  0.54847  0.22356  0.28384  1.0000
  H   H866      1.0  0.74331  0.19049  0.45639  1.0000
  C   C862      1.0  0.74895  0.36985  0.27826  1.0000
  C   C863      1.0  0.75247  0.40314  0.05277  1.0000
  C   C864      1.0  0.51926  0.36740  0.16505  1.0000
  C   C865      1.0  0.53115  0.20816  0.33725  1.0000
  C   C866      1.0  0.76249  0.10786  0.48637  1.0000
  C   C867      1.0  0.52563  0.24548  0.31080  1.0000
  H   H867      1.0  0.59931  0.47347  0.34885  1.0000
  H   H868      1.0  0.71694  0.38874  0.25066  1.0000
  H   H869      1.0  0.68412  0.00530  0.42857  1.0000
  H   H870      1.0  0.52285  0.35164  0.12500  1.0000
  H   H871      1.0  0.59465  0.47157  0.40715  1.0000
  C   C868      1.0  0.76476  0.25358  0.22958  1.0000
  C   C869      1.0  0.76293  0.25755  0.25134  1.0000
  C   C870      1.0  0.74349  0.48967  0.46957  1.0000
  H   H872      1.0  0.73167  0.47978  0.36216  1.0000
  C   C871      1.0  0.52163  0.30487  0.12765  1.0000
  C   C872      1.0  0.51800  0.31435  0.17027  1.0000
  H   H873      1.0  0.51848  0.20410  0.34024  1.0000
  C   C873      1.0  0.76071  0.18579  0.39805  1.0000
  C   C874      1.0  0.51765  0.28574  0.16267  1.0000
  C   C875      1.0  0.76338  0.15782  0.39024  1.0000
  H   H874      1.0  0.76284  0.11168  0.39720  1.0000
  H   H875      1.0  0.52056  0.14963  0.04252  1.0000
  C   C876      1.0  0.73371  0.46713  0.46326  1.0000
  C   C877      1.0  0.76057  0.48020  0.43985  1.0000
  Fe  Fe145     1.0  0.55687  0.06400  0.79801  1.0000
  S   S289      1.0  0.54864  0.04752  0.82975  1.0000
  S   S290      1.0  0.54013  0.06291  0.77061  1.0000
  Fe  Fe146     1.0  0.59043  0.07286  0.81314  1.0000
  S   S291      1.0  0.58462  0.05749  0.84584  1.0000
  S   S292      1.0  0.61419  0.09190  0.80415  1.0000
  Fe  Fe147     1.0  0.57093  0.02144  0.83076  1.0000
  H   H876      1.0  0.60405  0.44788  0.79870  1.0000
  Fe  Fe148     1.0  0.56297  0.08484  0.84212  1.0000
  S   S293      1.0  0.55368  0.11326  0.86845  1.0000
  S   S294      1.0  0.57827  0.03539  0.79793  1.0000
  S   S295      1.0  0.56965  0.10282  0.81039  1.0000
  Fe  Fe149     1.0  0.73434  0.04074  0.79632  1.0000
  S   S296      1.0  0.74001  0.05916  0.82801  1.0000
  C   C878      1.0  0.59894  0.46045  0.81195  1.0000
  Fe  Fe150     1.0  0.69965  0.03306  0.80864  1.0000
  S   S297      1.0  0.70298  0.05024  0.84086  1.0000
  S   S298      1.0  0.67576  0.01458  0.80143  1.0000
  Fe  Fe151     1.0  0.71781  0.08535  0.82556  1.0000
  S   S299      1.0  0.71205  0.13344  0.83208  1.0000
  Fe  Fe152     1.0  0.72459  0.02267  0.84070  1.0000
  C   C879      1.0  0.76263  0.39857  0.99142  1.0000
  S   S300      1.0  0.71311  0.06962  0.79285  1.0000
  N   N75       1.0  0.61082  0.47687  0.82320  1.0000
  Fe  Fe153     1.0  0.56565  0.27627  0.89833  1.0000
  S   S301      1.0  0.56763  0.25544  0.93012  1.0000
  S   S302      1.0  0.56356  0.25107  0.86818  1.0000
  Fe  Fe154     1.0  0.57157  0.33854  0.91393  1.0000
  S   S303      1.0  0.57401  0.32188  0.94705  1.0000
  S   S304      1.0  0.57633  0.38775  0.91031  1.0000
  Fe  Fe155     1.0  0.58833  0.28565  0.93306  1.0000
  S   S305      1.0  0.61075  0.26830  0.94676  1.0000
  Fe  Fe156     1.0  0.55305  0.29325  0.94149  1.0000
  S   S306      1.0  0.53263  0.29427  0.96537  1.0000
  S   S307      1.0  0.58737  0.30391  0.90054  1.0000
  S   S308      1.0  0.54958  0.31244  0.90913  1.0000
  Fe  Fe157     1.0  0.70043  0.31356  0.92318  1.0000
  S   S309      1.0  0.71086  0.29825  0.89260  1.0000
  S   S310      1.0  0.67514  0.32873  0.92213  1.0000
  Fe  Fe158     1.0  0.73242  0.31497  0.94475  1.0000
  S   S311      1.0  0.74475  0.30008  0.91529  1.0000
  S   S312      1.0  0.74691  0.31768  0.97463  1.0000
  Fe  Fe159     1.0  0.72938  0.33191  0.89843  1.0000
  S   S313      1.0  0.73729  0.35906  0.87022  1.0000
  Fe  Fe160     1.0  0.72511  0.26756  0.91194  1.0000
  S   S314      1.0  0.73221  0.22042  0.90444  1.0000
  S   S315      1.0  0.71833  0.34920  0.92795  1.0000
  S   S316      1.0  0.71342  0.28045  0.94253  1.0000
  C   C880      1.0  0.66919  0.09382  0.85365  1.0000
  S   S317      1.0  0.75399  0.03894  0.77129  1.0000
  H   H877      1.0  0.60244  0.36767  0.93608  1.0000
  C   C881      1.0  0.54426  0.46456  0.53637  1.0000
  C   C882      1.0  0.62903  0.28156  0.93722  1.0000
  C   C883      1.0  0.64287  0.27164  0.94633  1.0000
  C   C884      1.0  0.65744  0.28422  0.94060  1.0000
  C   C885      1.0  0.65816  0.30707  0.92588  1.0000
  C   C886      1.0  0.64440  0.31603  0.91615  1.0000
  C   C887      1.0  0.62992  0.30321  0.92166  1.0000
  H   H878      1.0  0.64229  0.25479  0.95833  1.0000
  H   H879      1.0  0.66796  0.27728  0.94830  1.0000
  H   H880      1.0  0.64488  0.33375  0.90480  1.0000
  H   H881      1.0  0.61940  0.31108  0.91451  1.0000
  C   C888      1.0  0.72558  0.19586  0.88512  1.0000
  C   C889      1.0  0.73282  0.16837  0.88328  1.0000
  C   C890      1.0  0.72870  0.14879  0.86736  1.0000
  C   C891      1.0  0.71733  0.15661  0.85297  1.0000
  C   C892      1.0  0.70989  0.18390  0.85501  1.0000
  C   C893      1.0  0.71393  0.20338  0.87103  1.0000
  H   H882      1.0  0.74182  0.16228  0.89413  1.0000
  H   H883      1.0  0.73449  0.12787  0.86604  1.0000
  H   H884      1.0  0.70103  0.19014  0.84401  1.0000
  H   H885      1.0  0.70824  0.22442  0.87226  1.0000
  C   C894      1.0  0.72734  0.45755  0.87066  1.0000
  C   C895      1.0  0.72985  0.44237  0.88947  1.0000
  C   C896      1.0  0.73224  0.41197  0.88958  1.0000
  C   C897      1.0  0.73229  0.39650  0.87081  1.0000
  C   C898      1.0  0.72949  0.41156  0.85202  1.0000
  C   C899      1.0  0.72696  0.44197  0.85193  1.0000
  H   H886      1.0  0.73015  0.45424  0.90403  1.0000
  H   H887      1.0  0.73451  0.40066  0.90414  1.0000
  H   H888      1.0  0.72948  0.39975  0.83743  1.0000
  H   H889      1.0  0.72504  0.45337  0.83735  1.0000
  C   C900      1.0  0.53159  0.09230  0.75652  1.0000
  C   C901      1.0  0.76245  0.00881  0.75781  1.0000
  N   N76       1.0  0.66841  0.06774  0.86433  1.0000
  H   H890      1.0  0.54407  0.12672  0.77175  1.0000
  H   H891      1.0  0.73189  0.30632  0.84420  1.0000
  C   C902      1.0  0.56648  0.45294  0.85638  1.0000
  C   C903      1.0  0.56299  0.42301  0.85424  1.0000
  C   C904      1.0  0.56598  0.40273  0.87047  1.0000
  C   C905      1.0  0.57262  0.41213  0.88905  1.0000
  C   C906      1.0  0.57614  0.44206  0.89120  1.0000
  C   C907      1.0  0.57309  0.46236  0.87500  1.0000
  H   H892      1.0  0.55792  0.41544  0.83990  1.0000
  H   H893      1.0  0.56320  0.37983  0.86854  1.0000
  H   H894      1.0  0.58120  0.44965  0.90554  1.0000
  C   C908      1.0  0.52026  0.11262  0.82454  1.0000
  C   C909      1.0  0.55668  0.15152  0.86820  1.0000
  C   C910      1.0  0.55358  0.16742  0.88651  1.0000
  C   C911      1.0  0.55573  0.19794  0.88680  1.0000
  C   C912      1.0  0.56060  0.21286  0.86858  1.0000
  C   C913      1.0  0.56340  0.19703  0.85016  1.0000
  C   C914      1.0  0.56166  0.16645  0.85003  1.0000
  H   H895      1.0  0.54958  0.15607  0.90059  1.0000
  H   H896      1.0  0.55339  0.20992  0.90102  1.0000
  H   H897      1.0  0.56707  0.20847  0.83597  1.0000
  H   H898      1.0  0.56394  0.15455  0.83578  1.0000
  C   C915      1.0  0.63125  0.07026  0.80469  1.0000
  C   C916      1.0  0.63044  0.03991  0.80734  1.0000
  C   C917      1.0  0.64417  0.02308  0.80610  1.0000
  C   C918      1.0  0.65884  0.03652  0.80287  1.0000
  C   C919      1.0  0.65969  0.06695  0.80083  1.0000
  C   C920      1.0  0.64591  0.08371  0.80147  1.0000
  H   H899      1.0  0.61922  0.02930  0.80998  1.0000
  H   H900      1.0  0.67743  0.04193  0.88928  1.0000
  H   H901      1.0  0.67094  0.07747  0.79823  1.0000
  H   H902      1.0  0.64662  0.10718  0.79930  1.0000
  H   H903      1.0  0.51727  0.06350  0.73842  1.0000
  C   C921      1.0  0.61620  0.34583  0.95937  1.0000
  H   H904      1.0  0.65354  0.03068  0.86973  1.0000
  C   C922      1.0  0.65905  0.35454  0.96829  1.0000
  C   C923      1.0  0.61182  0.04920  0.75823  1.0000
  H   H905      1.0  0.51768  0.06008  0.80790  1.0000
  S   S318      1.0  0.73017  0.99716  0.87017  1.0000
  H   H906      1.0  0.73876  0.99727  0.72351  1.0000
  C   C924      1.0  0.52527  0.47670  0.56423  1.0000
  C   C925      1.0  0.58693  0.11535  0.74939  1.0000
  C   C926      1.0  0.75935  0.46019  0.73916  1.0000
  C   C927      1.0  0.52038  0.08602  0.74138  1.0000
  C   C928      1.0  0.64150  0.37704  0.94276  1.0000
  H   H907      1.0  0.76526  0.00904  0.84198  1.0000
  C   C929      1.0  0.52285  0.21574  0.99457  1.0000
  H   H908      1.0  0.72346  0.26171  0.82532  1.0000
  C   C930      1.0  0.67905  0.11622  0.86025  1.0000
  C   C931      1.0  0.63118  0.34246  0.96742  1.0000
  C   C932      1.0  0.53860  0.40197  0.92023  1.0000
  C   C933      1.0  0.58537  0.05517  0.74506  1.0000
  C   C934      1.0  0.75837  0.34686  0.98455  1.0000
  H   H909      1.0  0.61452  0.03305  0.74581  1.0000
  N   N77       1.0  0.75618  0.25690  0.86598  1.0000
  H   H910      1.0  0.56358  0.11617  0.73726  1.0000
  H   H911      1.0  0.75643  0.21114  0.85985  1.0000
  C   C935      1.0  0.62666  0.38092  0.93431  1.0000
  C   C936      1.0  0.52980  0.23726  0.98131  1.0000
  C   C937      1.0  0.73279  0.26044  0.83650  1.0000
  C   C938      1.0  0.68829  0.11171  0.87769  1.0000
  C   C939      1.0  0.51988  0.36682  0.90801  1.0000
  H   H912      1.0  0.76354  0.99519  0.87885  1.0000
  H   H913      1.0  0.52701  0.19347  0.99382  1.0000
  H   H914      1.0  0.75941  0.42114  0.98874  1.0000
  H   H915      1.0  0.66206  0.33097  0.96959  1.0000
  H   H916      1.0  0.69625  0.12871  0.88264  1.0000
  C   C940      1.0  0.75153  0.23226  0.85583  1.0000
  C   C941      1.0  0.74933  0.28325  0.86177  1.0000
  H   H917      1.0  0.52275  0.18627  0.81744  1.0000
  H   H918      1.0  0.60888  0.03737  0.77307  1.0000
  H   H919      1.0  0.58447  0.03158  0.74387  1.0000
  C   C942      1.0  0.62641  0.47179  0.81953  1.0000
  H   H920      1.0  0.54506  0.39661  0.95241  1.0000
  H   H921      1.0  0.66240  0.09726  0.83972  1.0000
  H   H922      1.0  0.57580  0.48528  0.87696  1.0000
  H   H923      1.0  0.60653  0.33273  0.96559  1.0000
  H   H924      1.0  0.76373  0.41802  0.80541  1.0000
  N   N78       1.0  0.64358  0.35801  0.95913  1.0000
  N   N79       1.0  0.59868  0.06784  0.75234  1.0000
  C   C943      1.0  0.76492  0.42559  0.83861  1.0000
  C   C944      1.0  0.74193  0.01569  0.71274  1.0000
  C   C945      1.0  0.53552  0.12149  0.76012  1.0000
  H   H925      1.0  0.60988  0.10754  0.76112  1.0000
  C   C946      1.0  0.67755  0.06301  0.88134  1.0000
  H   H926      1.0  0.64874  0.05243  0.84738  1.0000
  C   C947      1.0  0.57261  0.07237  0.73940  1.0000
  H   H927      1.0  0.67997  0.13661  0.85145  1.0000
  H   H928      1.0  0.69507  0.08096  0.90155  1.0000
  H   H929      1.0  0.58757  0.13882  0.75151  1.0000
  H   H930      1.0  0.65013  0.48376  0.82714  1.0000
  C   C948      1.0  0.52825  0.14408  0.74873  1.0000
  H   H931      1.0  0.66844  0.36479  0.95831  1.0000
  H   H932      1.0  0.65141  0.38874  0.93579  1.0000
  C   C949      1.0  0.65866  0.04392  0.85660  1.0000
  N   N80       1.0  0.76470  0.47598  0.84899  1.0000
  H   H933      1.0  0.74641  0.03357  0.72271  1.0000
  H   H934      1.0  0.63021  0.45597  0.80797  1.0000
  C   C950      1.0  0.61395  0.36523  0.94273  1.0000
  H   H935      1.0  0.74525  0.38163  0.97048  1.0000
  C   C951      1.0  0.53775  0.38875  0.93998  1.0000
  H   H936      1.0  0.66585  0.02943  0.84636  1.0000
  H   H937      1.0  0.53082  0.40041  0.88846  1.0000
  C   C952      1.0  0.68759  0.08493  0.88832  1.0000
  H   H938      1.0  0.75190  0.12584  0.51433  1.0000
  N   N81       1.0  0.53535  0.48606  0.54860  1.0000
  C   C953      1.0  0.52127  0.06055  0.59986  1.0000
  H   H939      1.0  0.53919  0.23143  0.97053  1.0000
  H   H940      1.0  0.75974  0.06775  0.54186  1.0000
  C   C954      1.0  0.73993  0.23371  0.84075  1.0000
  C   C955      1.0  0.73751  0.28541  0.84706  1.0000
  S   S319      1.0  0.56268  0.47727  0.83514  1.0000
  N   N82       1.0  0.51877  0.35451  0.92761  1.0000
  H   H941      1.0  0.63290  0.32674  0.97997  1.0000
  C   C956      1.0  0.76277  0.12216  0.50578  1.0000
  C   C957      1.0  0.59951  0.09751  0.75477  1.0000
  H   H942      1.0  0.54647  0.42032  0.91731  1.0000
  H   H943      1.0  0.75172  0.44224  0.73521  1.0000
  N   N83       1.0  0.59947  0.21098  0.88334  1.0000
  C   C958      1.0  0.60099  0.22044  0.90343  1.0000
  C   C959      1.0  0.59528  0.18265  0.87954  1.0000
  C   C960      1.0  0.59758  0.20174  0.92039  1.0000
  C   C961      1.0  0.59169  0.16338  0.89611  1.0000
  C   C962      1.0  0.59274  0.17313  0.91666  1.0000
  C   C963      1.0  0.60300  0.23103  0.86581  1.0000
  H   H944      1.0  0.60471  0.24268  0.90646  1.0000
  H   H945      1.0  0.59425  0.17499  0.86361  1.0000
  H   H946      1.0  0.59856  0.20960  0.93630  1.0000
  H   H947      1.0  0.58775  0.14127  0.89298  1.0000
  H   H948      1.0  0.58975  0.15858  0.92966  1.0000
  H   H949      1.0  0.59618  0.22520  0.85182  1.0000
  H   H950      1.0  0.59951  0.25376  0.86980  1.0000
  H   H951      1.0  0.61570  0.23057  0.86183  1.0000
  H   H952      1.0  0.53700  0.44484  0.53343  1.0000
  H   H953      1.0  0.52334  0.45349  0.56693  1.0000
  H   H954      1.0  0.73611  0.21396  0.83303  1.0000
  C   C964      1.0  0.52406  0.14176  0.82859  1.0000
  C   C965      1.0  0.76439  0.48465  0.82844  1.0000
  C   C966      1.0  0.52772  0.36488  0.94343  1.0000
  S   S320      1.0  0.72041  0.00274  0.80938  1.0000
  C   C967      1.0  0.75462  0.37620  0.98092  1.0000
  H   H955      1.0  0.62506  0.39557  0.92108  1.0000
  H   H956      1.0  0.56197  0.06226  0.73390  1.0000
  H   H957      1.0  0.53039  0.14725  0.84255  1.0000
  C   C968      1.0  0.51966  0.16364  0.81457  1.0000
  H   H958      1.0  0.76079  0.05101  0.69049  1.0000
  H   H959      1.0  0.53374  0.06642  0.59690  1.0000
  N   N84       1.0  0.75379  0.00703  0.69708  1.0000
  H   H960      1.0  0.75281  0.30279  0.86997  1.0000
  H   H961      1.0  0.75460  0.04152  0.50904  1.0000
  C   C969      1.0  0.52452  0.26617  0.98196  1.0000
  H   H962      1.0  0.53134  0.16662  0.75164  1.0000
  H   H963      1.0  0.54782  0.47354  0.52073  1.0000
  C   C970      1.0  0.57345  0.10265  0.74151  1.0000
  H   H964      1.0  0.74253  0.47932  0.76088  1.0000
  H   H965      1.0  0.62264  0.06215  0.76080  1.0000
  H   H966      1.0  0.73120  0.02325  0.70490  1.0000
  C   C971      1.0  0.52976  0.39081  0.90405  1.0000
  C   C972      1.0  0.76405  0.46395  0.81251  1.0000
  H   H967      1.0  0.52729  0.35451  0.95878  1.0000
  H   H968      1.0  0.75977  0.99521  0.80556  1.0000
  H   H969      1.0  0.52384  0.09581  0.83554  1.0000
  H   H970      1.0  0.59274  0.44502  0.82287  1.0000
  C   C973      1.0  0.63775  0.48723  0.83045  1.0000
  H   H971      1.0  0.76251  0.24568  0.89686  1.0000
  H   H972      1.0  0.76356  0.47098  0.79628  1.0000
  H   H973      1.0  0.52059  0.04196  0.61122  1.0000
  H   H974      1.0  0.55486  0.45792  0.54489  1.0000
  H   H975      1.0  0.64345  0.99954  0.80778  1.0000
  C   C974      1.0  0.76237  0.02813  0.68668  1.0000
  H   H976      1.0  0.51726  0.00713  0.58407  1.0000
  H   H977      1.0  0.59011  0.47565  0.80541  1.0000
  H   H978      1.0  0.76469  0.40255  0.84290  1.0000
  C   C975      1.0  0.76424  0.43425  0.81765  1.0000
  H   H979      1.0  0.75982  0.48959  0.88033  1.0000
  C   C976      1.0  0.75409  0.48123  0.75372  1.0000
  H   H980      1.0  0.65922  0.36458  0.98401  1.0000
  H   H981      1.0  0.76520  0.43994  0.87047  1.0000
  C   C977      1.0  0.76517  0.44689  0.85418  1.0000
  C   C978      1.0  0.51691  0.13784  0.73373  1.0000
  Fe  Fe161     1.0  0.58933  0.82034  0.31633  1.0000
  S   S321      1.0  0.57775  0.80132  0.34521  1.0000
  S   S322      1.0  0.61446  0.83648  0.31834  1.0000
  Fe  Fe162     1.0  0.55804  0.82398  0.29273  1.0000
  S   S323      1.0  0.54425  0.80539  0.32032  1.0000
  S   S324      1.0  0.54933  0.83526  0.25986  1.0000
  Fe  Fe163     1.0  0.55918  0.83507  0.33972  1.0000
  S   S325      1.0  0.55233  0.86094  0.36849  1.0000
  Fe  Fe164     1.0  0.56406  0.77319  0.32359  1.0000
  S   S326      1.0  0.56000  0.72389  0.32691  1.0000
  S   S327      1.0  0.57147  0.85590  0.31210  1.0000
  S   S328      1.0  0.57709  0.78981  0.29470  1.0000
  Fe  Fe165     1.0  0.73460  0.79460  0.30468  1.0000
  S   S329      1.0  0.74138  0.81176  0.33626  1.0000
  S   S330      1.0  0.75273  0.79407  0.27774  1.0000
  Fe  Fe166     1.0  0.70047  0.78471  0.31925  1.0000
  S   S331      1.0  0.70471  0.80057  0.35167  1.0000
  S   S332      1.0  0.67755  0.76338  0.31071  1.0000
  Fe  Fe167     1.0  0.71877  0.83700  0.33637  1.0000
  S   S333      1.0  0.71379  0.88526  0.34323  1.0000
  Fe  Fe168     1.0  0.72678  0.77422  0.34899  1.0000
  S   S334      1.0  0.73347  0.74643  0.37677  1.0000
  S   S335      1.0  0.71295  0.82264  0.30369  1.0000
  S   S336      1.0  0.72163  0.75558  0.31759  1.0000
  Fe  Fe169     1.0  0.58978  0.54071  0.42584  1.0000
  S   S337      1.0  0.58448  0.55915  0.39419  1.0000
  S   S338      1.0  0.61337  0.51966  0.43086  1.0000
  Fe  Fe170     1.0  0.55587  0.54820  0.44244  1.0000
  S   S339      1.0  0.54821  0.56681  0.41145  1.0000
  S   S340      1.0  0.53889  0.55010  0.47076  1.0000
  Fe  Fe171     1.0  0.56288  0.53105  0.39709  1.0000
  H   H982      1.0  0.57748  0.98287  0.33427  1.0000
  Fe  Fe172     1.0  0.57044  0.59329  0.41123  1.0000
  S   S341      1.0  0.57243  0.64293  0.40672  1.0000
  H   H983      1.0  0.53907  0.66395  0.40623  1.0000
  S   S342      1.0  0.57742  0.57678  0.44308  1.0000
  Fe  Fe173     1.0  0.72114  0.51852  0.41014  1.0000
  S   S343      1.0  0.71161  0.53411  0.44140  1.0000
  S   S344      1.0  0.73482  0.97277  0.41495  1.0000
  Fe  Fe174     1.0  0.73033  0.58085  0.39729  1.0000
  S   S345      1.0  0.72150  0.60052  0.42726  1.0000
  S   S346      1.0  0.73901  0.60882  0.36995  1.0000
  Fe  Fe175     1.0  0.73323  0.56260  0.44298  1.0000
  S   S347      1.0  0.74579  0.56387  0.47445  1.0000
  Fe  Fe176     1.0  0.70075  0.57080  0.42325  1.0000
  S   S348      1.0  0.67698  0.59256  0.42640  1.0000
  S   S349      1.0  0.74358  0.54429  0.41299  1.0000
  S   S350      1.0  0.70883  0.55370  0.39211  1.0000
  C   C979      1.0  0.53260  0.64618  0.41379  1.0000
  H   H984      1.0  0.67179  0.94104  0.38322  1.0000
  H   H985      1.0  0.51968  0.79407  0.24857  1.0000
  C   C980      1.0  0.51687  0.79881  0.08925  1.0000
  C   C981      1.0  0.52850  0.52143  0.48406  1.0000
  C   C982      1.0  0.60043  0.72336  0.32984  1.0000
  C   C983      1.0  0.76413  0.81087  0.03696  1.0000
  C   C984      1.0  0.51874  0.87811  0.22234  1.0000
  C   C985      1.0  0.63093  0.54024  0.42893  1.0000
  C   C986      1.0  0.63080  0.57076  0.42728  1.0000
  C   C987      1.0  0.64500  0.58650  0.42644  1.0000
  C   C988      1.0  0.65943  0.57186  0.42699  1.0000
  C   C989      1.0  0.65956  0.54132  0.42829  1.0000
  C   C990      1.0  0.64536  0.52561  0.42939  1.0000
  H   H986      1.0  0.61977  0.58224  0.42702  1.0000
  H   H987      1.0  0.64481  0.61011  0.42551  1.0000
  H   H988      1.0  0.67059  0.52982  0.42875  1.0000
  H   H989      1.0  0.52858  0.67134  0.99907  1.0000
  C   C991      1.0  0.72101  0.90974  0.36229  1.0000
  C   C992      1.0  0.73099  0.90069  0.37814  1.0000
  C   C993      1.0  0.73536  0.92045  0.39386  1.0000
  C   C994      1.0  0.72991  0.94948  0.39388  1.0000
  C   C995      1.0  0.72007  0.95860  0.37790  1.0000
  C   C996      1.0  0.71566  0.93884  0.36224  1.0000
  H   H990      1.0  0.73518  0.87840  0.37846  1.0000
  H   H991      1.0  0.74297  0.91313  0.40615  1.0000
  C   C997      1.0  0.59789  0.96313  0.37711  1.0000
  H   H992      1.0  0.70793  0.94611  0.35007  1.0000
  C   C998      1.0  0.73418  0.70810  0.37459  1.0000
  C   C999      1.0  0.73568  0.69105  0.39276  1.0000
  C   C1000     1.0  0.73661  0.66047  0.39156  1.0000
  C   C1001     1.0  0.73629  0.64678  0.37212  1.0000
  C   C1002     1.0  0.73489  0.66384  0.35390  1.0000
  C   C1003     1.0  0.73377  0.69441  0.35513  1.0000
  H   H993      1.0  0.73618  0.70151  0.40786  1.0000
  H   H994      1.0  0.73812  0.64761  0.40563  1.0000
  H   H995      1.0  0.73484  0.65335  0.33879  1.0000
  H   H996      1.0  0.73298  0.70731  0.34099  1.0000
  H   H997      1.0  0.74804  0.84340  0.02588  1.0000
  N   N85       1.0  0.52330  0.95471  0.41449  1.0000
  C   C1004     1.0  0.53313  0.85652  0.25152  1.0000
  H   H998      1.0  0.66821  0.99026  0.39837  1.0000
  C   C1005     1.0  0.76065  0.71552  0.24893  1.0000
  C   C1006     1.0  0.56260  0.70199  0.34967  1.0000
  C   C1007     1.0  0.56014  0.67159  0.34856  1.0000
  C   C1008     1.0  0.56296  0.65314  0.36589  1.0000
  C   C1009     1.0  0.56822  0.66499  0.38456  1.0000
  C   C1010     1.0  0.57046  0.69542  0.38577  1.0000
  C   C1011     1.0  0.56771  0.71383  0.36843  1.0000
  H   H999      1.0  0.55619  0.66222  0.33411  1.0000
  H   H1000     1.0  0.56115  0.62978  0.36474  1.0000
  H   H1001     1.0  0.57445  0.70482  0.40019  1.0000
  H   H1002     1.0  0.56963  0.73715  0.36952  1.0000
  C   C1012     1.0  0.55276  0.89937  0.36680  1.0000
  C   C1013     1.0  0.54746  0.91418  0.34908  1.0000
  C   C1014     1.0  0.54588  0.94480  0.34933  1.0000
  C   C1015     1.0  0.54996  0.96078  0.36706  1.0000
  C   C1016     1.0  0.55584  0.94595  0.38442  1.0000
  C   C1017     1.0  0.55714  0.91537  0.38433  1.0000
  H   H1003     1.0  0.54391  0.90196  0.33555  1.0000
  H   H1004     1.0  0.54128  0.95608  0.33584  1.0000
  H   H1005     1.0  0.55873  0.95777  0.39829  1.0000
  H   H1006     1.0  0.56111  0.90398  0.39814  1.0000
  C   C1018     1.0  0.63171  0.81529  0.31650  1.0000
  C   C1019     1.0  0.64614  0.82886  0.32023  1.0000
  C   C1020     1.0  0.66022  0.81308  0.31874  1.0000
  C   C1021     1.0  0.65999  0.78354  0.31337  1.0000
  C   C1022     1.0  0.64557  0.76989  0.30960  1.0000
  C   C1023     1.0  0.63146  0.78567  0.31122  1.0000
  H   H1007     1.0  0.64644  0.85178  0.32425  1.0000
  H   H1008     1.0  0.67123  0.82387  0.32162  1.0000
  H   H1009     1.0  0.64532  0.74708  0.30529  1.0000
  H   H1010     1.0  0.62045  0.77514  0.30803  1.0000
  H   H1011     1.0  0.74463  0.73183  0.27284  1.0000
  H   H1012     1.0  0.54525  0.64879  0.44247  1.0000
  C   C1024     1.0  0.51776  0.91704  0.38973  1.0000
  H   H1013     1.0  0.70205  0.72921  0.35416  1.0000
  H   H1014     1.0  0.75575  0.65153  0.15721  1.0000
  H   H1015     1.0  0.60433  0.66942  0.39356  1.0000
  H   H1016     1.0  0.68296  0.71422  0.34913  1.0000
  H   H1017     1.0  0.54369  0.74118  0.01936  1.0000
  H   H1018     1.0  0.70050  0.69651  0.33932  1.0000
  H   H1019     1.0  0.69534  0.64582  0.42352  1.0000
  N   N86       1.0  0.71510  0.81898  0.24952  1.0000
  C   C1025     1.0  0.70238  0.83699  0.25115  1.0000
  C   C1026     1.0  0.71385  0.79005  0.25505  1.0000
  C   C1027     1.0  0.68782  0.82598  0.25798  1.0000
  C   C1028     1.0  0.69947  0.77834  0.26198  1.0000
  C   C1029     1.0  0.68638  0.79645  0.26332  1.0000
  C   C1030     1.0  0.73034  0.83137  0.24316  1.0000
  H   H1020     1.0  0.70350  0.86013  0.24750  1.0000
  H   H1021     1.0  0.72407  0.77602  0.25453  1.0000
  H   H1022     1.0  0.67778  0.84032  0.25957  1.0000
  H   H1023     1.0  0.69851  0.75558  0.26683  1.0000
  H   H1024     1.0  0.67521  0.78774  0.26899  1.0000
  H   H1025     1.0  0.73852  0.81418  0.23742  1.0000
  H   H1026     1.0  0.72912  0.84772  0.23034  1.0000
  H   H1027     1.0  0.73577  0.84201  0.25681  1.0000
  H   H1028     1.0  0.75599  0.88033  0.05160  1.0000
  H   H1029     1.0  0.74040  0.50260  0.48321  1.0000
  C   C1031     1.0  0.52389  0.98571  0.41995  1.0000
  C   C1032     1.0  0.59698  0.69395  0.32657  1.0000
  C   C1033     1.0  0.60657  0.73195  0.34887  1.0000
  H   H1030     1.0  0.59167  0.68733  0.31208  1.0000
  C   C1034     1.0  0.69076  0.89891  0.39617  1.0000
  H   H1031     1.0  0.76102  0.79500  0.02522  1.0000
  H   H1032     1.0  0.60918  0.75485  0.35152  1.0000
  C   C1035     1.0  0.59016  0.98114  0.36300  1.0000
  H   H1033     1.0  0.76099  0.61188  0.13152  1.0000
  C   C1036     1.0  0.53323  0.74261  0.01017  1.0000
  C   C1037     1.0  0.53595  0.63785  0.43425  1.0000
  C   C1038     1.0  0.52705  0.90429  0.42399  1.0000
  N   N87       1.0  0.60521  0.68218  0.36136  1.0000
  C   C1039     1.0  0.52736  0.93403  0.42898  1.0000
  H   H1034     1.0  0.62035  0.65412  0.37815  1.0000
  H   H1035     1.0  0.71575  0.98081  0.37769  1.0000
  H   H1036     1.0  0.75710  0.91337  0.00214  1.0000
  H   H1037     1.0  0.52133  0.85833  0.28155  1.0000
  H   H1038     1.0  0.53062  0.60789  0.45946  1.0000
  C   C1040     1.0  0.60894  0.71091  0.36455  1.0000
  C   C1041     1.0  0.60784  0.66053  0.37801  1.0000
  N   N88       1.0  0.59375  0.92191  0.35480  1.0000
  C   C1042     1.0  0.59949  0.93331  0.37282  1.0000
  C   C1043     1.0  0.58587  0.93931  0.34108  1.0000
  H   H1039     1.0  0.53066  0.88795  0.43530  1.0000
  S   S351      1.0  0.56886  0.51051  0.42789  1.0000
  C   C1044     1.0  0.75429  0.73715  0.26226  1.0000
  C   C1045     1.0  0.59537  0.89061  0.35059  1.0000
  H   H1040     1.0  0.60531  0.91936  0.38400  1.0000
  H   H1041     1.0  0.58073  0.93000  0.32725  1.0000
  C   C1046     1.0  0.69810  0.93655  0.42137  1.0000
  H   H1042     1.0  0.70232  0.88914  0.39961  1.0000
  H   H1043     1.0  0.70685  0.92193  0.42760  1.0000
  H   H1044     1.0  0.59710  0.88677  0.33354  1.0000
  H   H1045     1.0  0.60573  0.88107  0.35829  1.0000
  H   H1046     1.0  0.58471  0.87865  0.35616  1.0000
  N   N89       1.0  0.69579  0.69122  0.37214  1.0000
  C   C1047     1.0  0.69664  0.70512  0.39096  1.0000
  C   C1048     1.0  0.69475  0.66136  0.37142  1.0000
  C   C1049     1.0  0.69658  0.68903  0.40971  1.0000
  C   C1050     1.0  0.69465  0.64463  0.38988  1.0000
  C   C1051     1.0  0.69550  0.65862  0.40911  1.0000
  C   C1052     1.0  0.69526  0.70858  0.35274  1.0000
  H   H1047     1.0  0.69770  0.72875  0.39152  1.0000
  H   H1048     1.0  0.69414  0.65024  0.35656  1.0000
  H   H1049     1.0  0.69746  0.70001  0.42459  1.0000
  H   H1050     1.0  0.69389  0.62092  0.38935  1.0000
  H   H1051     1.0  0.60250  0.97228  0.39135  1.0000
  C   C1053     1.0  0.52128  0.63093  0.40288  1.0000
  H   H1052     1.0  0.70373  0.97096  0.44288  1.0000
  C   C1054     1.0  0.76373  0.89357  0.99950  1.0000
  H   H1053     1.0  0.54161  0.85842  0.21950  1.0000
  H   H1054     1.0  0.52369  0.79979  0.10334  1.0000
  C   C1055     1.0  0.51895  0.73155  0.01852  1.0000
  H   H1055     1.0  0.64556  0.50202  0.43069  1.0000
  N   N90       1.0  0.68935  0.92847  0.40469  1.0000
  H   H1056     1.0  0.51898  0.63675  0.38674  1.0000
  C   C1056     1.0  0.52075  0.86398  0.26511  1.0000
  C   C1057     1.0  0.68552  0.98369  0.42191  1.0000
  H   H1057     1.0  0.60057  0.64056  0.37598  1.0000
  H   H1058     1.0  0.59793  0.73953  0.31783  1.0000
  H   H1059     1.0  0.68141  0.88459  0.40293  1.0000
  H   H1060     1.0  0.68987  0.89932  0.37881  1.0000
  C   C1058     1.0  0.53211  0.86403  0.23016  1.0000
  H   H1061     1.0  0.61349  0.71777  0.37942  1.0000
  C   C1059     1.0  0.76302  0.63307  0.16137  1.0000
  H   H1062     1.0  0.59635  0.65083  0.34008  1.0000
  C   C1060     1.0  0.59950  0.67350  0.34256  1.0000
  C   C1061     1.0  0.76134  0.85883  0.05196  1.0000
  C   C1062     1.0  0.52769  0.61461  0.44370  1.0000
  C   C1063     1.0  0.67661  0.97525  0.40495  1.0000
  C   C1064     1.0  0.58405  0.96921  0.34490  1.0000
  H   H1063     1.0  0.53393  0.99024  0.43026  1.0000
  C   C1065     1.0  0.75679  0.83805  0.03735  1.0000
  H   H1064     1.0  0.52262  0.87295  0.39974  1.0000
  C   C1066     1.0  0.51823  0.94657  0.39522  1.0000
  C   C1067     1.0  0.76042  0.76557  0.26172  1.0000
  H   H1065     1.0  0.53108  0.94055  0.44441  1.0000
  H   H1066     1.0  0.53055  0.79343  0.21230  1.0000
  C   C1068     1.0  0.69638  0.96430  0.43013  1.0000
  C   C1069     1.0  0.51862  0.80066  0.21520  1.0000
  H   H1067     1.0  0.75578  0.69366  0.24939  1.0000
  C   C1070     1.0  0.52235  0.89583  0.40415  1.0000
  H   H1068     1.0  0.76112  0.61797  0.45891  1.0000
  S   S352      1.0  0.55674  0.50569  0.36816  1.0000
  C   C1071     1.0  0.67869  0.94739  0.39649  1.0000
  C   C1072     1.0  0.75951  0.58865  0.48539  1.0000
  C   C1073     1.0  0.75705  0.49621  0.45788  1.0000
  H   H1069     1.0  0.76543  0.76618  0.35044  1.0000
  H   H1070     1.0  0.51805  0.88332  0.20584  1.0000
  H   H1071     1.0  0.51855  0.72154  0.03393  1.0000
  H   H1072     1.0  0.76452  0.51419  0.46246  1.0000
  C   C1074     1.0  0.76516  0.61336  0.47452  1.0000
  H   H1073     1.0  0.51692  0.75172  0.08803  1.0000
  N   N91       1.0  0.51640  0.60004  0.43301  1.0000
  C   C1075     1.0  0.76594  0.61083  0.14700  1.0000
  Fe  Fe177     1.0  0.55781  0.57629  0.79910  1.0000
  S   S353      1.0  0.54489  0.55783  0.82751  1.0000
  S   S354      1.0  0.54679  0.58190  0.76670  1.0000
  Fe  Fe178     1.0  0.58938  0.57600  0.82189  1.0000
  S   S355      1.0  0.57851  0.55756  0.85144  1.0000
  S   S356      1.0  0.61457  0.59063  0.82566  1.0000
  Fe  Fe179     1.0  0.56530  0.52704  0.83102  1.0000
  S   S357      1.0  0.57350  0.97210  0.83649  1.0000
  Fe  Fe180     1.0  0.55934  0.58990  0.84564  1.0000
  S   S358      1.0  0.55228  0.61555  0.87447  1.0000
  S   S359      1.0  0.57754  0.54336  0.80146  1.0000
  S   S360      1.0  0.57092  0.61034  0.81722  1.0000
  Fe  Fe181     1.0  0.73598  0.53775  0.79835  1.0000
  S   S361      1.0  0.74072  0.55502  0.83059  1.0000
  H   H1074     1.0  0.64171  0.52065  0.85329  1.0000
  Fe  Fe182     1.0  0.70035  0.53877  0.80716  1.0000
  S   S362      1.0  0.70274  0.55546  0.83982  1.0000
  S   S363      1.0  0.67674  0.52922  0.79283  1.0000
  Fe  Fe183     1.0  0.72085  0.58637  0.82612  1.0000
  S   S364      1.0  0.72096  0.63620  0.83012  1.0000
  Fe  Fe184     1.0  0.72233  0.52272  0.84160  1.0000
  H   H1075     1.0  0.75858  0.51775  0.86116  1.0000
  S   S365      1.0  0.71728  0.57153  0.79292  1.0000
  C   C1076     1.0  0.53771  0.51532  0.54504  1.0000
  Fe  Fe185     1.0  0.56034  0.77780  0.90046  1.0000
  S   S366      1.0  0.57385  0.75574  0.92556  1.0000
  S   S367      1.0  0.55175  0.75432  0.87197  1.0000
  Fe  Fe186     1.0  0.56542  0.83862  0.91825  1.0000
  S   S368      1.0  0.57956  0.82068  0.94502  1.0000
  S   S369      1.0  0.55932  0.88707  0.91449  1.0000
  Fe  Fe187     1.0  0.59122  0.79224  0.92065  1.0000
  S   S370      1.0  0.61587  0.77686  0.91251  1.0000
  Fe  Fe188     1.0  0.56087  0.78544  0.94780  1.0000
  S   S371      1.0  0.55287  0.76614  0.97964  1.0000
  S   S372      1.0  0.57832  0.81263  0.89397  1.0000
  S   S373      1.0  0.54600  0.80521  0.92274  1.0000
  Fe  Fe189     1.0  0.70287  0.81355  0.93603  1.0000
  S   S374      1.0  0.70584  0.79785  0.90307  1.0000
  S   S375      1.0  0.67914  0.82513  0.95036  1.0000
  Fe  Fe190     1.0  0.73838  0.81493  0.94387  1.0000
  S   S376      1.0  0.74374  0.79911  0.91105  1.0000
  S   S377      1.0  0.75903  0.81768  0.96640  1.0000
  Fe  Fe191     1.0  0.72533  0.83112  0.90108  1.0000
  S   S378      1.0  0.72707  0.85843  0.87130  1.0000
  Fe  Fe192     1.0  0.72386  0.76709  0.91571  1.0000
  S   S379      1.0  0.72565  0.71757  0.91080  1.0000
  S   S380      1.0  0.72124  0.84911  0.93329  1.0000
  S   S381      1.0  0.71962  0.78072  0.94923  1.0000
  H   H1076     1.0  0.68872  0.61221  0.81848  1.0000
  C   C1077     1.0  0.51768  0.52858  0.50014  1.0000
  C   C1078     1.0  0.65903  0.63456  0.79992  1.0000
  C   C1079     1.0  0.51793  0.62229  0.72519  1.0000
  C   C1080     1.0  0.63324  0.79014  0.92372  1.0000
  C   C1081     1.0  0.64772  0.77976  0.91612  1.0000
  C   C1082     1.0  0.66184  0.78990  0.92438  1.0000
  C   C1083     1.0  0.66162  0.81047  0.94042  1.0000
  C   C1084     1.0  0.64713  0.82075  0.94813  1.0000
  C   C1085     1.0  0.63299  0.81076  0.93975  1.0000
  H   H1077     1.0  0.64803  0.76373  0.90378  1.0000
  H   H1078     1.0  0.67289  0.78171  0.91837  1.0000
  H   H1079     1.0  0.64684  0.83661  0.96058  1.0000
  H   H1080     1.0  0.62191  0.81884  0.94579  1.0000
  C   C1086     1.0  0.72324  0.69548  0.88825  1.0000
  C   C1087     1.0  0.72374  0.66483  0.89055  1.0000
  C   C1088     1.0  0.72293  0.64633  0.87303  1.0000
  C   C1089     1.0  0.72168  0.65830  0.85291  1.0000
  C   C1090     1.0  0.72112  0.68895  0.85062  1.0000
  C   C1091     1.0  0.72188  0.70745  0.86815  1.0000
  H   H1081     1.0  0.72481  0.65527  0.90601  1.0000
  H   H1082     1.0  0.72336  0.62284  0.87510  1.0000
  H   H1083     1.0  0.72019  0.69849  0.83514  1.0000
  H   H1084     1.0  0.72159  0.73094  0.86607  1.0000
  C   C1092     1.0  0.72785  0.95874  0.87081  1.0000
  C   C1093     1.0  0.73069  0.94326  0.88943  1.0000
  C   C1094     1.0  0.73020  0.91249  0.88995  1.0000
  C   C1095     1.0  0.72695  0.89701  0.87178  1.0000
  C   C1096     1.0  0.72384  0.91248  0.85328  1.0000
  C   C1097     1.0  0.72418  0.94321  0.85282  1.0000
  H   H1085     1.0  0.73353  0.95511  0.90344  1.0000
  H   H1086     1.0  0.73271  0.90078  0.90428  1.0000
  H   H1087     1.0  0.72123  0.90065  0.83919  1.0000
  H   H1088     1.0  0.72192  0.95477  0.83842  1.0000
  C   C1098     1.0  0.53322  0.60702  0.75561  1.0000
  H   H1089     1.0  0.54629  0.98199  0.50861  1.0000
  H   H1090     1.0  0.75336  0.71138  0.93525  1.0000
  H   H1091     1.0  0.61331  0.52956  0.85980  1.0000
  H   H1092     1.0  0.52118  0.76570  0.96249  1.0000
  C   C1099     1.0  0.57120  0.94994  0.85942  1.0000
  C   C1100     1.0  0.57568  0.92037  0.85852  1.0000
  C   C1101     1.0  0.57286  0.90115  0.87561  1.0000
  C   C1102     1.0  0.56538  0.91124  0.89382  1.0000
  C   C1103     1.0  0.56133  0.94103  0.89499  1.0000
  C   C1104     1.0  0.56423  0.96030  0.87792  1.0000
  H   H1093     1.0  0.58118  0.91216  0.84434  1.0000
  H   H1094     1.0  0.57609  0.87837  0.87447  1.0000
  H   H1095     1.0  0.55558  0.94912  0.90903  1.0000
  C   C1105     1.0  0.76060  0.97844  0.81763  1.0000
  C   C1106     1.0  0.55203  0.65408  0.87335  1.0000
  C   C1107     1.0  0.55325  0.66982  0.89199  1.0000
  C   C1108     1.0  0.55339  0.70054  0.89164  1.0000
  C   C1109     1.0  0.55191  0.71575  0.87271  1.0000
  C   C1110     1.0  0.55055  0.70005  0.85408  1.0000
  C   C1111     1.0  0.55078  0.66927  0.85435  1.0000
  H   H1096     1.0  0.55424  0.65816  0.90671  1.0000
  H   H1097     1.0  0.55438  0.71243  0.90602  1.0000
  H   H1098     1.0  0.54931  0.71167  0.83938  1.0000
  H   H1099     1.0  0.54969  0.65731  0.83993  1.0000
  C   C1112     1.0  0.63127  0.57068  0.81770  1.0000
  C   C1113     1.0  0.63093  0.55076  0.80125  1.0000
  C   C1114     1.0  0.64492  0.53763  0.79405  1.0000
  C   C1115     1.0  0.65924  0.54403  0.80344  1.0000
  C   C1116     1.0  0.65942  0.56315  0.82035  1.0000
  C   C1117     1.0  0.64552  0.57656  0.82733  1.0000
  H   H1100     1.0  0.62002  0.54623  0.79363  1.0000
  H   H1101     1.0  0.64470  0.52291  0.78091  1.0000
  H   H1102     1.0  0.67033  0.56819  0.82773  1.0000
  H   H1103     1.0  0.64586  0.59196  0.84007  1.0000
  H   H1104     1.0  0.66190  0.57971  0.75456  1.0000
  C   C1118     1.0  0.60610  0.49692  0.83775  1.0000
  H   H1105     1.0  0.53143  0.55924  0.55406  1.0000
  C   C1119     1.0  0.54405  0.88344  0.84530  1.0000
  H   H1106     1.0  0.53101  0.91304  0.88944  1.0000
  C   C1120     1.0  0.53422  0.75490  0.98988  1.0000
  C   C1121     1.0  0.53479  0.85902  0.87616  1.0000
  H   H1107     1.0  0.69779  0.63036  0.79615  1.0000
  H   H1108     1.0  0.55644  0.85695  0.82259  1.0000
  H   H1109     1.0  0.55220  0.70964  0.94567  1.0000
  N   N92       1.0  0.67878  0.88080  0.91266  1.0000
  C   C1122     1.0  0.68888  0.87229  0.89700  1.0000
  C   C1123     1.0  0.66360  0.87118  0.91311  1.0000
  C   C1124     1.0  0.68383  0.85410  0.88103  1.0000
  C   C1125     1.0  0.65814  0.85288  0.89741  1.0000
  C   C1126     1.0  0.66836  0.84422  0.88134  1.0000
  C   C1127     1.0  0.68456  0.89873  0.92977  1.0000
  H   H1110     1.0  0.70100  0.87920  0.89699  1.0000
  H   H1111     1.0  0.65578  0.87670  0.92606  1.0000
  H   H1112     1.0  0.53442  0.58654  0.72536  1.0000
  C   C1128     1.0  0.54840  0.83158  0.84937  1.0000
  H   H1113     1.0  0.76200  0.75353  0.95612  1.0000
  C   C1129     1.0  0.53535  0.98730  0.50128  1.0000
  C   C1130     1.0  0.51940  0.52670  0.57309  1.0000
  H   H1114     1.0  0.69404  0.91374  0.92415  1.0000
  C   C1131     1.0  0.54204  0.68984  0.97347  1.0000
  C   C1132     1.0  0.76285  0.69763  0.89616  1.0000
  H   H1115     1.0  0.75731  0.93629  0.74793  1.0000
  C   C1133     1.0  0.52970  0.53607  0.55712  1.0000
  C   C1134     1.0  0.54055  0.83241  0.86870  1.0000
  C   C1135     1.0  0.76379  0.50460  0.75898  1.0000
  H   H1116     1.0  0.53904  0.81252  0.87790  1.0000
  C   C1136     1.0  0.52062  0.75639  0.97812  1.0000
  C   C1137     1.0  0.75799  0.87232  0.98568  1.0000
  C   C1138     1.0  0.68707  0.62941  0.80634  1.0000
  N   N93       1.0  0.59404  0.70892  0.87519  1.0000
  C   C1139     1.0  0.59855  0.70029  0.89470  1.0000
  C   C1140     1.0  0.58993  0.68861  0.86070  1.0000
  C   C1141     1.0  0.59836  0.67066  0.90042  1.0000
  C   C1142     1.0  0.58979  0.65879  0.86581  1.0000
  C   C1143     1.0  0.59383  0.64985  0.88588  1.0000
  C   C1144     1.0  0.59439  0.74002  0.86946  1.0000
  H   H1117     1.0  0.60224  0.71641  0.90599  1.0000
  H   H1118     1.0  0.58639  0.69538  0.84520  1.0000
  H   H1119     1.0  0.60169  0.66394  0.91602  1.0000
  H   H1120     1.0  0.58614  0.64273  0.85448  1.0000
  H   H1121     1.0  0.59333  0.62681  0.89011  1.0000
  H   H1122     1.0  0.59163  0.75376  0.88328  1.0000
  H   H1123     1.0  0.60622  0.74624  0.86338  1.0000
  H   H1124     1.0  0.58547  0.74523  0.85760  1.0000
  C   C1145     1.0  0.64552  0.62732  0.78911  1.0000
  C   C1146     1.0  0.64657  0.60788  0.77245  1.0000
  H   H1125     1.0  0.65804  0.64890  0.81330  1.0000
  H   H1126     1.0  0.63419  0.63568  0.79419  1.0000
  H   H1127     1.0  0.63608  0.60127  0.76445  1.0000
  H   H1128     1.0  0.74706  0.87588  0.97785  1.0000
  H   H1129     1.0  0.64622  0.84457  0.89822  1.0000
  H   H1130     1.0  0.75590  0.70573  0.88280  1.0000
  C   C1147     1.0  0.66103  0.59588  0.76684  1.0000
  C   C1148     1.0  0.52620  0.62947  0.76718  1.0000
  H   H1131     1.0  0.66439  0.82942  0.86939  1.0000
  H   H1132     1.0  0.74920  0.96127  0.70067  1.0000
  C   C1149     1.0  0.55022  0.85726  0.83757  1.0000
  H   H1133     1.0  0.51722  0.91253  0.86830  1.0000
  C   C1150     1.0  0.76021  0.67948  0.53366  1.0000
  H   H1134     1.0  0.75866  0.67437  0.51684  1.0000
  C   C1151     1.0  0.52840  0.67812  0.98277  1.0000
  C   C1152     1.0  0.76254  0.95786  0.74707  1.0000
  C   C1153     1.0  0.75597  0.98071  0.75904  1.0000
  C   C1154     1.0  0.76378  0.98612  0.83825  1.0000
  H   H1135     1.0  0.54560  0.52276  0.53253  1.0000
  C   C1155     1.0  0.67429  0.60352  0.77805  1.0000
  H   H1136     1.0  0.67506  0.91227  0.93673  1.0000
  C   C1156     1.0  0.52905  0.60373  0.73453  1.0000
  C   C1157     1.0  0.52979  0.91146  0.87217  1.0000
  H   H1137     1.0  0.56075  0.98298  0.87891  1.0000
  H   H1138     1.0  0.68535  0.59304  0.77422  1.0000
  H   H1139     1.0  0.55253  0.69255  0.98252  1.0000
  H   H1140     1.0  0.52120  0.96508  0.52511  1.0000
  H   H1141     1.0  0.68922  0.88426  0.94223  1.0000
  H   H1142     1.0  0.74565  0.97677  0.76878  1.0000
  N   N94       1.0  0.67319  0.62290  0.79418  1.0000
  C   C1158     1.0  0.76624  0.84635  0.98238  1.0000
  H   H1143     1.0  0.53596  0.93079  0.86519  1.0000
  C   C1159     1.0  0.52811  0.69718  0.94144  1.0000
  C   C1160     1.0  0.52111  0.97779  0.51076  1.0000
  H   H1144     1.0  0.74843  0.68279  0.54090  1.0000
  C   C1161     1.0  0.63303  0.50796  0.84514  1.0000
  H   H1145     1.0  0.52783  0.70477  0.92530  1.0000
  C   C1162     1.0  0.76497  0.58311  0.50570  1.0000
  N   N95       1.0  0.76472  0.96511  0.85357  1.0000
  C   C1163     1.0  0.61711  0.51296  0.84879  1.0000
  N   N96       1.0  0.53659  0.88409  0.86448  1.0000
  H   H1146     1.0  0.68619  0.65089  0.81426  1.0000
  S   S382      1.0  0.71875  0.50361  0.80986  1.0000
  S   S383      1.0  0.72585  0.49607  0.87114  1.0000
  H   H1147     1.0  0.52910  0.85961  0.89150  1.0000
  H   H1148     1.0  0.69202  0.84718  0.86882  1.0000
  H   H1149     1.0  0.52928  0.63243  0.78336  1.0000
  C   C1164     1.0  0.54182  0.69962  0.95275  1.0000
  H   H1150     1.0  0.55308  0.81100  0.84367  1.0000
  C   C1165     1.0  0.51714  0.49685  0.57669  1.0000
  H   H1151     1.0  0.75523  0.68227  0.90539  1.0000
  S   S384      1.0  0.75803  0.53144  0.77766  1.0000
  H   H1152     1.0  0.52231  0.74561  0.63758  1.0000
  H   H1153     1.0  0.54564  0.90340  0.83614  1.0000
  C   C1166     1.0  0.75574  0.97817  0.69222  1.0000
  C   C1167     1.0  0.76211  0.72627  0.92863  1.0000
  H   H1154     1.0  0.59375  0.50071  0.84074  1.0000
  H   H1155     1.0  0.75742  0.90491  0.82494  1.0000
  C   C1168     1.0  0.76534  0.49796  0.86550  1.0000
  C   C1169     1.0  0.75839  0.94906  0.81275  1.0000
  H   H1156     1.0  0.76070  0.56410  0.51430  1.0000
  H   H1157     1.0  0.76367  0.95775  0.88664  1.0000
  H   H1158     1.0  0.75582  0.94280  0.79686  1.0000
  C   C1170     1.0  0.76270  0.93622  0.84889  1.0000
  H   H1159     1.0  0.76581  0.66014  0.54103  1.0000
  H   H1160     1.0  0.76322  0.91956  0.86106  1.0000
  H   H1161     1.0  0.76431  0.50769  0.82419  1.0000
  C   C1171     1.0  0.75941  0.92778  0.82846  1.0000
  H   H1162     1.0  0.76374  0.70952  0.56865  1.0000
  Fe  Fe193     1.0  0.97675  0.45602  0.04854  1.0000
  S   S385      1.0  0.99030  0.43531  0.07467  1.0000
  S   S386      1.0  0.98622  0.46564  0.01518  1.0000
  Fe  Fe194     1.0  0.94566  0.45403  0.07454  1.0000
  S   S387      1.0  0.95717  0.43327  0.10215  1.0000
  S   S388      1.0  0.92062  0.46927  0.08074  1.0000
  Fe  Fe195     1.0  0.97646  0.46572  0.09552  1.0000
  H   H1163     1.0  0.77437  0.31628  0.07467  1.0000
  Fe  Fe196     1.0  0.96977  0.40451  0.07920  1.0000
  S   S389      1.0  0.97165  0.35453  0.08116  1.0000
  H   H1164     1.0  0.80138  0.16430  0.25039  1.0000
  S   S390      1.0  0.95692  0.42313  0.05161  1.0000
  Fe  Fe197     1.0  0.80076  0.42298  0.04620  1.0000
  S   S391      1.0  0.79295  0.44058  0.07763  1.0000
  H   H1165     1.0  0.00714  0.05048  0.00222  1.0000
  Fe  Fe198     1.0  0.83510  0.42004  0.05980  1.0000
  S   S392      1.0  0.82980  0.43694  0.09193  1.0000
  S   S393      1.0  0.85939  0.40628  0.04894  1.0000
  Fe  Fe199     1.0  0.80906  0.40652  0.09080  1.0000
  S   S394      1.0  0.80313  0.37947  0.11968  1.0000
  Fe  Fe200     1.0  0.81431  0.46965  0.07612  1.0000
  H   H1166     1.0  0.00500  0.33974  0.07318  1.0000
  S   S395      1.0  0.81546  0.38704  0.05970  1.0000
  S   S396      1.0  0.82103  0.45450  0.04364  1.0000
  Fe  Fe201     1.0  0.98143  0.15722  0.15176  1.0000
  S   S397      1.0  0.97563  0.13836  0.18361  1.0000
  S   S398      1.0  0.98433  0.12998  0.12252  1.0000
  Fe  Fe202     1.0  0.97853  0.22076  0.16572  1.0000
  S   S399      1.0  0.97234  0.20614  0.19872  1.0000
  S   S400      1.0  0.97939  0.27052  0.16095  1.0000
  Fe  Fe203     1.0  0.99179  0.17311  0.19562  1.0000
  S   S401      1.0  0.00974  0.17075  0.22191  1.0000
  Fe  Fe204     1.0  0.95682  0.17277  0.18400  1.0000
  S   S402      1.0  0.93246  0.16141  0.19658  1.0000
  S   S403      1.0  0.99897  0.18985  0.16338  1.0000
  S   S404      1.0  0.96157  0.18949  0.15144  1.0000
  Fe  Fe205     1.0  0.81394  0.21518  0.14325  1.0000
  S   S405      1.0  0.82936  0.23457  0.16748  1.0000
  S   S406      1.0  0.80546  0.24106  0.11537  1.0000
  Fe  Fe206     1.0  0.81709  0.15272  0.16054  1.0000
  S   S407      1.0  0.83264  0.16800  0.18623  1.0000
  S   S408      1.0  0.81257  0.10347  0.16055  1.0000
  Fe  Fe207     1.0  0.81561  0.20548  0.19011  1.0000
  S   S409      1.0  0.80849  0.21758  0.22376  1.0000
  Fe  Fe208     1.0  0.84483  0.19556  0.16153  1.0000
  S   S410      1.0  0.87027  0.19871  0.15039  1.0000
  S   S411      1.0  0.79920  0.18826  0.16605  1.0000
  S   S412      1.0  0.83019  0.17804  0.13574  1.0000
  C   C1172     1.0  0.77058  0.34034  0.99830  1.0000
  H   H1167     1.0  0.80176  0.10840  0.47575  1.0000
  C   C1173     1.0  0.80273  0.14696  0.23840  1.0000
  C   C1174     1.0  0.77866  0.24179  0.22083  1.0000
  C   C1175     1.0  0.79098  0.23391  0.23375  1.0000
  C   C1176     1.0  0.79086  0.11250  0.48413  1.0000
  C   C1177     1.0  0.94453  0.03183  0.12251  1.0000
  H   H1168     1.0  0.80406  0.03952  0.49551  1.0000
  H   H1169     1.0  0.85094  0.03967  0.11188  1.0000
  C   C1178     1.0  0.78916  0.23791  0.25551  1.0000
  C   C1179     1.0  0.84266  0.36411  0.12881  1.0000
  H   H1170     1.0  0.84654  0.10934  0.16692  1.0000
  H   H1171     1.0  0.77404  0.25251  0.28102  1.0000
  H   H1172     1.0  0.77360  0.31774  0.00122  1.0000
  C   C1180     1.0  0.91518  0.17117  0.18345  1.0000
  C   C1181     1.0  0.90056  0.16726  0.19363  1.0000
  C   C1182     1.0  0.88663  0.17545  0.18376  1.0000
  C   C1183     1.0  0.88726  0.18760  0.16359  1.0000
  C   C1184     1.0  0.90186  0.19112  0.15332  1.0000
  C   C1185     1.0  0.91575  0.18289  0.16316  1.0000
  H   H1173     1.0  0.90002  0.15818  0.20934  1.0000
  H   H1174     1.0  0.87546  0.17270  0.19185  1.0000
  H   H1175     1.0  0.90242  0.20030  0.13765  1.0000
  H   H1176     1.0  0.92688  0.18557  0.15503  1.0000
  C   C1186     1.0  0.77858  0.36273  0.00882  1.0000
  C   C1187     1.0  0.81745  0.04214  0.10376  1.0000
  C   C1188     1.0  0.81737  0.07270  0.10084  1.0000
  C   C1189     1.0  0.81583  0.09175  0.11800  1.0000
  C   C1190     1.0  0.81409  0.08042  0.13833  1.0000
  C   C1191     1.0  0.81381  0.04986  0.14124  1.0000
  C   C1192     1.0  0.81555  0.03080  0.12408  1.0000
  H   H1177     1.0  0.81879  0.08172  0.08519  1.0000
  H   H1178     1.0  0.81596  0.11517  0.11545  1.0000
  H   H1179     1.0  0.81239  0.04082  0.15687  1.0000
  C   C1193     1.0  0.94241  0.04201  0.10212  1.0000
  C   C1194     1.0  0.80319  0.34099  0.11826  1.0000
  C   C1195     1.0  0.80283  0.32669  0.09904  1.0000
  C   C1196     1.0  0.80312  0.29598  0.09841  1.0000
  C   C1197     1.0  0.80420  0.27942  0.11693  1.0000
  C   C1198     1.0  0.80455  0.29371  0.13616  1.0000
  C   C1199     1.0  0.80386  0.32441  0.13682  1.0000
  H   H1180     1.0  0.80224  0.33921  0.08468  1.0000
  H   H1181     1.0  0.80285  0.28499  0.08350  1.0000
  H   H1182     1.0  0.80521  0.28110  0.15052  1.0000
  H   H1183     1.0  0.80400  0.33533  0.15176  1.0000
  H   H1184     1.0  0.99460  0.01136  0.02421  1.0000
  H   H1185     1.0  0.85909  0.12536  0.08566  1.0000
  S   S413      1.0  0.96429  0.48849  0.06932  1.0000
  C   C1200     1.0  0.97389  0.33158  0.10355  1.0000
  C   C1201     1.0  0.97623  0.34289  0.12350  1.0000
  C   C1202     1.0  0.97819  0.32381  0.14073  1.0000
  C   C1203     1.0  0.97771  0.29324  0.13834  1.0000
  C   C1204     1.0  0.97535  0.28192  0.11839  1.0000
  C   C1205     1.0  0.97351  0.30101  0.10112  1.0000
  H   H1186     1.0  0.97664  0.36632  0.12564  1.0000
  H   H1187     1.0  0.98011  0.33284  0.15606  1.0000
  H   H1188     1.0  0.97498  0.25849  0.11627  1.0000
  H   H1189     1.0  0.97175  0.29200  0.08575  1.0000
  C   C1206     1.0  0.98422  0.02997  0.12556  1.0000
  C   C1207     1.0  0.98593  0.04608  0.14396  1.0000
  C   C1208     1.0  0.98575  0.07683  0.14335  1.0000
  C   C1209     1.0  0.98407  0.09159  0.12426  1.0000
  C   C1210     1.0  0.98253  0.07549  0.10588  1.0000
  C   C1211     1.0  0.98252  0.04483  0.10653  1.0000
  H   H1190     1.0  0.98745  0.03474  0.15872  1.0000
  H   H1191     1.0  0.98725  0.08905  0.15756  1.0000
  H   H1192     1.0  0.98137  0.08680  0.09104  1.0000
  H   H1193     1.0  0.98158  0.03281  0.09221  1.0000
  C   C1212     1.0  0.90414  0.44847  0.07355  1.0000
  C   C1213     1.0  0.88962  0.45378  0.08354  1.0000
  C   C1214     1.0  0.87585  0.44057  0.07644  1.0000
  C   C1215     1.0  0.87652  0.42164  0.05940  1.0000
  C   C1216     1.0  0.89111  0.41547  0.04990  1.0000
  C   C1217     1.0  0.90487  0.42885  0.05692  1.0000
  H   H1194     1.0  0.87421  0.46410  0.02358  1.0000
  H   H1195     1.0  0.86473  0.44547  0.08394  1.0000
  H   H1196     1.0  0.89174  0.40077  0.03674  1.0000
  H   H1197     1.0  0.91597  0.42462  0.04907  1.0000
  H   H1198     1.0  0.78772  0.35728  0.01961  1.0000
  C   C1218     1.0  0.76639  0.32718  0.06420  1.0000
  H   H1199     1.0  0.01314  0.42710  0.00647  1.0000
  H   H1200     1.0  0.77086  0.48603  0.43049  1.0000
  C   C1219     1.0  0.85395  0.07474  0.13395  1.0000
  C   C1220     1.0  0.85861  0.12208  0.11943  1.0000
  H   H1201     1.0  0.76648  0.15488  0.37383  1.0000
  C   C1221     1.0  0.85530  0.08103  0.09643  1.0000
  H   H1202     1.0  0.85449  0.36686  0.13532  1.0000
  C   C1222     1.0  0.01121  0.36083  0.07560  1.0000
  H   H1203     1.0  0.85184  0.06059  0.14745  1.0000
  H   H1204     1.0  0.83443  0.35607  0.14132  1.0000
  C   C1223     1.0  0.85722  0.11575  0.15772  1.0000
  H   H1205     1.0  0.77663  0.09260  0.46045  1.0000
  H   H1206     1.0  0.84900  0.37744  0.08877  1.0000
  C   C1224     1.0  0.01110  0.02814  0.00075  1.0000
  H   H1207     1.0  0.85391  0.46520  0.02993  1.0000
  C   C1225     1.0  0.76673  0.15002  0.19371  1.0000
  H   H1208     1.0  0.81559  0.00737  0.12659  1.0000
  C   C1226     1.0  0.86436  0.47930  0.02702  1.0000
  C   C1227     1.0  0.84467  0.30556  0.07766  1.0000
  H   H1209     1.0  0.86774  0.10737  0.16566  1.0000
  S   S414      1.0  0.78306  0.42114  0.01982  1.0000
  H   H1210     1.0  0.85788  0.14002  0.15763  1.0000
  N   N97       1.0  0.93919  0.28392  0.15778  1.0000
  C   C1228     1.0  0.93469  0.25633  0.16387  1.0000
  C   C1229     1.0  0.94549  0.30268  0.17191  1.0000
  C   C1230     1.0  0.93689  0.24658  0.18441  1.0000
  C   C1231     1.0  0.94799  0.29354  0.19252  1.0000
  C   C1232     1.0  0.94371  0.26525  0.19874  1.0000
  C   C1233     1.0  0.93683  0.29346  0.13610  1.0000
  H   H1211     1.0  0.92954  0.24157  0.15276  1.0000
  H   H1212     1.0  0.94921  0.32445  0.16708  1.0000
  H   H1213     1.0  0.93355  0.22455  0.18915  1.0000
  H   H1214     1.0  0.95364  0.30800  0.20340  1.0000
  H   H1215     1.0  0.94587  0.25760  0.21454  1.0000
  H   H1216     1.0  0.92424  0.29771  0.13357  1.0000
  H   H1217     1.0  0.94360  0.31367  0.13214  1.0000
  H   H1218     1.0  0.94104  0.27641  0.12506  1.0000
  H   H1219     1.0  0.94125  0.02664  0.08939  1.0000
  S   S415      1.0  0.98500  0.48916  0.12401  1.0000
  H   H1220     1.0  0.86065  0.14534  0.12144  1.0000
  H   H1221     1.0  0.83813  0.38581  0.12384  1.0000
  H   H1222     1.0  0.00466  0.37298  0.08796  1.0000
  H   H1223     1.0  0.84489  0.29068  0.06454  1.0000
  C   C1234     1.0  0.85348  0.06276  0.11391  1.0000
  S   S416      1.0  0.82153  0.01958  0.08177  1.0000
  H   H1224     1.0  0.80280  0.12531  0.24639  1.0000
  H   H1225     1.0  0.79857  0.23180  0.26570  1.0000
  C   C1235     1.0  0.85789  0.11089  0.09915  1.0000
  H   H1226     1.0  0.85001  0.34393  0.05877  1.0000
  C   C1236     1.0  0.00039  0.37601  0.04193  1.0000
  H   H1227     1.0  0.83833  0.30620  0.13021  1.0000
  H   H1228     1.0  0.99068  0.36101  0.04462  1.0000
  C   C1237     1.0  0.77746  0.16560  0.22640  1.0000
  C   C1238     1.0  0.77661  0.10356  0.47538  1.0000
  H   H1229     1.0  0.77982  0.23879  0.20409  1.0000
  N   N98       1.0  0.94579  0.08138  0.13466  1.0000
  C   C1239     1.0  0.94372  0.09156  0.11471  1.0000
  C   C1240     1.0  0.94610  0.05194  0.13872  1.0000
  C   C1241     1.0  0.94200  0.07205  0.09815  1.0000
  H   H1230     1.0  0.99125  0.39222  0.01273  1.0000
  H   H1231     1.0  0.83913  0.27191  0.10064  1.0000
  C   C1242     1.0  0.94711  0.10225  0.15182  1.0000
  H   H1232     1.0  0.94368  0.11490  0.11148  1.0000
  H   H1233     1.0  0.94794  0.04381  0.15447  1.0000
  H   H1234     1.0  0.94055  0.08014  0.08230  1.0000
  H   H1235     1.0  0.88897  0.46881  0.09650  1.0000
  N   N99       1.0  0.85651  0.10403  0.13649  1.0000
  H   H1236     1.0  0.93531  0.10941  0.15734  1.0000
  H   H1237     1.0  0.95336  0.09260  0.16528  1.0000
  H   H1238     1.0  0.95395  0.12184  0.14663  1.0000
  N   N100      1.0  0.84329  0.34389  0.11116  1.0000
  C   C1243     1.0  0.84679  0.35431  0.09146  1.0000
  C   C1244     1.0  0.84101  0.31457  0.11459  1.0000
  C   C1245     1.0  0.84745  0.33537  0.07441  1.0000
  C   C1246     1.0  0.84155  0.29500  0.09790  1.0000
  H   H1239     1.0  0.80145  0.11724  0.20297  1.0000
  C   C1247     1.0  0.77450  0.39201  0.00564  1.0000
  C   C1248     1.0  0.00397  0.00599  0.01329  1.0000
  H   H1240     1.0  0.77680  0.02709  0.48573  1.0000
  H   H1241     1.0  0.94527  0.00850  0.12563  1.0000
  H   H1242     1.0  0.81424  0.15099  0.23041  1.0000
  N   N101      1.0  0.79022  0.14809  0.22310  1.0000
  H   H1243     1.0  0.85422  0.07205  0.08084  1.0000
  H   H1244     1.0  0.99753  0.16417  0.26795  1.0000
  H   H1245     1.0  0.00449  0.10709  0.22286  1.0000
  C   C1249     1.0  0.76891  0.33259  0.27168  1.0000
  H   H1246     1.0  0.01249  0.19157  0.26876  1.0000
  H   H1247     1.0  0.77651  0.17903  0.24027  1.0000
  H   H1248     1.0  0.77124  0.37002  0.07598  1.0000
  C   C1250     1.0  0.00068  0.39342  0.02380  1.0000
  H   H1249     1.0  0.77764  0.34734  0.27874  1.0000
  C   C1251     1.0  0.79134  0.13111  0.20562  1.0000
  C   C1252     1.0  0.77524  0.24965  0.26427  1.0000
  C   C1253     1.0  0.01429  0.11207  0.23267  1.0000
  C   C1254     1.0  0.00370  0.17933  0.27853  1.0000
  H   H1250     1.0  0.77468  0.32149  0.25818  1.0000
  H   H1251     1.0  0.78072  0.11856  0.17669  1.0000
  C   C1255     1.0  0.01329  0.13398  0.29475  1.0000
  C   C1256     1.0  0.77960  0.13172  0.19071  1.0000
  C   C1257     1.0  0.00283  0.48568  0.00528  1.0000
  C   C1258     1.0  0.01291  0.41325  0.02038  1.0000
  H   H1252     1.0  0.99491  0.19489  0.28490  1.0000
  H   H1253     1.0  0.00884  0.12168  0.28171  1.0000
  N   N102      1.0  0.01148  0.16369  0.29552  1.0000
  N   N103      1.0  0.01199  0.37836  0.05626  1.0000
  H   H1254     1.0  0.76685  0.43362  0.41477  1.0000
  H   H1255     1.0  0.01617  0.20279  0.31228  1.0000
  Fe  Fe209     1.0  0.97373  0.45997  0.66577  1.0000
  S   S417      1.0  0.95871  0.44251  0.69286  1.0000
  H   H1256     1.0  0.94732  0.26106  0.58028  1.0000
  Fe  Fe210     1.0  0.98157  0.39800  0.65130  1.0000
  S   S418      1.0  0.96694  0.37721  0.67668  1.0000
  S   S419      1.0  0.99431  0.37008  0.62728  1.0000
  Fe  Fe211     1.0  0.94910  0.41140  0.66931  1.0000
  S   S420      1.0  0.92469  0.39479  0.66220  1.0000
  Fe  Fe212     1.0  0.97814  0.40974  0.69791  1.0000
  S   S421      1.0  0.98506  0.39048  0.72976  1.0000
  S   S422      1.0  0.96307  0.43023  0.64217  1.0000
  S   S423      1.0  0.99383  0.42924  0.67263  1.0000
  Fe  Fe213     1.0  0.80217  0.43058  0.69015  1.0000
  S   S424      1.0  0.79815  0.41145  0.65821  1.0000
  S   S425      1.0  0.78010  0.43539  0.71091  1.0000
  Fe  Fe214     1.0  0.83762  0.43564  0.68094  1.0000
  S   S426      1.0  0.83594  0.41779  0.64860  1.0000
  S   S427      1.0  0.86072  0.45076  0.69391  1.0000
  Fe  Fe215     1.0  0.81478  0.44663  0.64666  1.0000
  H   H1257     1.0  0.77018  0.48948  0.69105  1.0000
  Fe  Fe216     1.0  0.81966  0.38414  0.66303  1.0000
  S   S428      1.0  0.82394  0.33496  0.65937  1.0000
  S   S429      1.0  0.81756  0.46715  0.67807  1.0000
  S   S430      1.0  0.82253  0.40057  0.69598  1.0000
  Fe  Fe217     1.0  0.98170  0.20794  0.59469  1.0000
  S   S431      1.0  0.97800  0.22982  0.56359  1.0000
  S   S432      1.0  0.98470  0.23233  0.62490  1.0000
  Fe  Fe218     1.0  0.97525  0.14620  0.57876  1.0000
  S   S433      1.0  0.97092  0.16395  0.54638  1.0000
  S   S434      1.0  0.97112  0.09675  0.58136  1.0000
  Fe  Fe219     1.0  0.99215  0.19254  0.55032  1.0000
  C   C1259     1.0  0.78401  0.48565  0.73480  1.0000
  Fe  Fe220     1.0  0.95723  0.19945  0.56225  1.0000
  S   S435      1.0  0.93387  0.21645  0.55135  1.0000
  S   S436      1.0  0.99739  0.17243  0.58189  1.0000
  S   S437      1.0  0.96000  0.18002  0.59415  1.0000
  Fe  Fe221     1.0  0.81664  0.15245  0.54681  1.0000
  S   S438      1.0  0.80123  0.16933  0.57303  1.0000
  S   S439      1.0  0.80963  0.13338  0.51519  1.0000
  Fe  Fe222     1.0  0.84660  0.16019  0.57262  1.0000
  S   S440      1.0  0.83322  0.17747  0.60050  1.0000
  S   S441      1.0  0.87200  0.14729  0.57669  1.0000
  Fe  Fe223     1.0  0.81597  0.14167  0.59420  1.0000
  S   S442      1.0  0.80606  0.11578  0.62189  1.0000
  Fe  Fe224     1.0  0.81989  0.20389  0.57722  1.0000
  S   S443      1.0  0.81266  0.25157  0.58155  1.0000
  S   S444      1.0  0.83013  0.12249  0.56795  1.0000
  S   S445      1.0  0.83444  0.18896  0.54932  1.0000
  N   N104      1.0  0.86502  0.99759  0.65703  1.0000
  H   H1258     1.0  0.93557  0.25840  0.60360  1.0000
  H   H1259     1.0  0.85462  0.48761  0.65365  1.0000
  C   C1260     1.0  0.91631  0.20034  0.56113  1.0000
  C   C1261     1.0  0.90189  0.20955  0.55328  1.0000
  C   C1262     1.0  0.88793  0.19467  0.55894  1.0000
  C   C1263     1.0  0.88838  0.17040  0.57241  1.0000
  C   C1264     1.0  0.90271  0.16209  0.58095  1.0000
  C   C1265     1.0  0.91659  0.17709  0.57545  1.0000
  H   H1260     1.0  0.90156  0.22763  0.54225  1.0000
  H   H1261     1.0  0.87695  0.20121  0.55223  1.0000
  H   H1262     1.0  0.90313  0.14342  0.59146  1.0000
  H   H1263     1.0  0.92755  0.17007  0.58183  1.0000
  C   C1266     1.0  0.77434  0.46219  0.72963  1.0000
  C   C1267     1.0  0.77559  0.01368  0.74453  1.0000
  H   H1264     1.0  0.98956  0.10138  0.53822  1.0000
  H   H1265     1.0  0.77243  0.48375  0.63338  1.0000
  H   H1266     1.0  0.90626  0.09446  0.55703  1.0000
  C   C1268     1.0  0.82227  0.31332  0.63653  1.0000
  C   C1269     1.0  0.81469  0.32343  0.61870  1.0000
  C   C1270     1.0  0.81235  0.30452  0.60171  1.0000
  C   C1271     1.0  0.81762  0.27539  0.60226  1.0000
  C   C1272     1.0  0.82565  0.26558  0.61982  1.0000
  C   C1273     1.0  0.82791  0.28443  0.63686  1.0000
  H   H1267     1.0  0.81030  0.34558  0.61817  1.0000
  H   H1268     1.0  0.80617  0.31237  0.58819  1.0000
  H   H1269     1.0  0.82983  0.24330  0.62045  1.0000
  H   H1270     1.0  0.83383  0.27639  0.65054  1.0000
  C   C1274     1.0  0.81256  0.01617  0.62294  1.0000
  C   C1275     1.0  0.81384  0.03190  0.60402  1.0000
  C   C1276     1.0  0.81243  0.06250  0.60368  1.0000
  C   C1277     1.0  0.80935  0.07762  0.62222  1.0000
  C   C1278     1.0  0.80823  0.06194  0.64122  1.0000
  C   C1279     1.0  0.81006  0.03132  0.64163  1.0000
  H   H1271     1.0  0.81589  0.02034  0.58952  1.0000
  H   H1272     1.0  0.81341  0.07431  0.58902  1.0000
  H   H1273     1.0  0.80598  0.07355  0.65564  1.0000
  H   H1274     1.0  0.80924  0.01948  0.65633  1.0000
  H   H1275     1.0  0.99946  0.35479  0.67252  1.0000
  S   S446      1.0  0.98628  0.00602  0.65532  1.0000
  C   C1280     1.0  0.00359  0.36305  0.75866  1.0000
  H   H1276     1.0  0.93691  0.29624  0.63016  1.0000
  H   H1277     1.0  0.99262  0.35512  0.76538  1.0000
  C   C1281     1.0  0.98155  0.03100  0.63478  1.0000
  C   C1282     1.0  0.97376  0.02220  0.61686  1.0000
  C   C1283     1.0  0.97059  0.04265  0.60080  1.0000
  C   C1284     1.0  0.97500  0.07221  0.60249  1.0000
  C   C1285     1.0  0.98275  0.08107  0.62043  1.0000
  C   C1286     1.0  0.98606  0.06055  0.63639  1.0000
  H   H1278     1.0  0.98774  0.99826  0.70042  1.0000
  H   H1279     1.0  0.96464  0.03545  0.58699  1.0000
  H   H1280     1.0  0.98623  0.10369  0.62201  1.0000
  H   H1281     1.0  0.99207  0.06766  0.65018  1.0000
  C   C1287     1.0  0.99115  0.33183  0.62649  1.0000
  C   C1288     1.0  0.98333  0.31690  0.64284  1.0000
  C   C1289     1.0  0.98140  0.28644  0.64208  1.0000
  C   C1290     1.0  0.98682  0.27068  0.62469  1.0000
  C   C1291     1.0  0.99424  0.28560  0.60800  1.0000
  C   C1292     1.0  0.99661  0.31603  0.60907  1.0000
  H   H1282     1.0  0.97890  0.32857  0.65622  1.0000
  H   H1283     1.0  0.97566  0.27499  0.65503  1.0000
  C   C1293     1.0  0.79119  0.12586  0.50390  1.0000
  C   C1294     1.0  0.00823  0.08515  0.56859  1.0000
  C   C1295     1.0  0.90758  0.41428  0.66934  1.0000
  C   C1296     1.0  0.90705  0.43259  0.68674  1.0000
  C   C1297     1.0  0.89268  0.44441  0.69373  1.0000
  C   C1298     1.0  0.87875  0.43798  0.68341  1.0000
  C   C1299     1.0  0.87939  0.42045  0.66562  1.0000
  C   C1300     1.0  0.89375  0.40876  0.65859  1.0000
  H   H1284     1.0  0.91763  0.43698  0.69517  1.0000
  H   H1285     1.0  0.89231  0.45809  0.70745  1.0000
  H   H1286     1.0  0.86883  0.41537  0.65746  1.0000
  H   H1287     1.0  0.89406  0.39472  0.64506  1.0000
  C   C1301     1.0  0.90890  0.11174  0.54574  1.0000
  H   H1288     1.0  0.79557  0.48756  0.72764  1.0000
  H   H1289     1.0  0.89013  0.15843  0.51320  1.0000
  H   H1290     1.0  0.81346  0.19233  0.63968  1.0000
  H   H1291     1.0  0.97026  0.99957  0.61531  1.0000
  H   H1292     1.0  0.78012  0.03734  0.66289  1.0000
  H   H1293     1.0  0.79822  0.09812  0.55459  1.0000
  H   H1294     1.0  0.97050  0.35440  0.58148  1.0000
  C   C1302     1.0  0.86628  0.38129  0.71666  1.0000
  N   N105      1.0  0.95011  0.29656  0.60144  1.0000
  C   C1303     1.0  0.76655  0.04602  0.51352  1.0000
  C   C1304     1.0  0.94396  0.30909  0.61916  1.0000
  C   C1305     1.0  0.96270  0.34196  0.59184  1.0000
  C   C1306     1.0  0.94679  0.33860  0.62343  1.0000
  C   C1307     1.0  0.95619  0.35508  0.60961  1.0000
  H   H1295     1.0  0.94194  0.34862  0.63748  1.0000
  H   H1296     1.0  0.95881  0.37777  0.61298  1.0000
  N   N106      1.0  0.87177  0.36510  0.69823  1.0000
  C   C1308     1.0  0.88741  0.35970  0.69546  1.0000
  C   C1309     1.0  0.86123  0.35453  0.68435  1.0000
  C   C1310     1.0  0.89290  0.34397  0.67812  1.0000
  C   C1311     1.0  0.86631  0.33889  0.66678  1.0000
  C   C1312     1.0  0.88226  0.33370  0.66364  1.0000
  H   H1297     1.0  0.91734  0.17746  0.50891  1.0000
  H   H1298     1.0  0.89582  0.36849  0.70623  1.0000
  H   H1299     1.0  0.84881  0.35843  0.68661  1.0000
  H   H1300     1.0  0.90538  0.34090  0.67555  1.0000
  H   H1301     1.0  0.85791  0.33112  0.65559  1.0000
  H   H1302     1.0  0.88637  0.32210  0.64986  1.0000
  C   C1313     1.0  0.99516  0.32209  0.70698  1.0000
  H   H1303     1.0  0.93390  0.08710  0.56086  1.0000
  H   H1304     1.0  0.84965  0.00691  0.68275  1.0000
  C   C1314     1.0  0.91493  0.15831  0.51863  1.0000
  N   N107      1.0  0.78451  0.06850  0.53695  1.0000
  H   H1305     1.0  0.77761  0.23974  0.87716  1.0000
  H   H1306     1.0  0.86109  0.03767  0.67267  1.0000
  H   H1307     1.0  0.99858  0.27358  0.59459  1.0000
  H   H1308     1.0  0.77326  0.27618  0.88570  1.0000
  C   C1315     1.0  0.01444  0.10464  0.93992  1.0000
  C   C1316     1.0  0.86124  0.01384  0.67613  1.0000
  H   H1309     1.0  0.00268  0.32737  0.59634  1.0000
  C   C1317     1.0  0.79429  0.04505  0.50583  1.0000
  C   C1318     1.0  0.94722  0.26551  0.59738  1.0000
  C   C1319     1.0  0.80071  0.19254  0.63665  1.0000
  H   H1310     1.0  0.99718  0.47762  0.97312  1.0000
  H   H1311     1.0  0.78067  0.03536  0.74340  1.0000
  H   H1312     1.0  0.78722  0.47369  0.65157  1.0000
  H   H1313     1.0  0.94768  0.10928  0.54643  1.0000
  S   S447      1.0  0.01071  0.19107  0.52384  1.0000
  H   H1314     1.0  0.00697  0.09128  0.52326  1.0000
  H   H1315     1.0  0.80377  0.23117  0.66704  1.0000
  H   H1316     1.0  0.95638  0.25199  0.60479  1.0000
  C   C1320     1.0  0.89967  0.14770  0.52109  1.0000
  C   C1321     1.0  0.01017  0.35046  0.68068  1.0000
  H   H1317     1.0  0.88467  0.11681  0.53752  1.0000
  H   H1318     1.0  0.78855  0.06921  0.56958  1.0000
  H   H1319     1.0  0.93861  0.15456  0.52860  1.0000
  C   C1322     1.0  0.00341  0.38131  0.74078  1.0000
  H   H1320     1.0  0.79907  0.18185  0.62130  1.0000
  N   N108      1.0  0.92386  0.12210  0.54309  1.0000
  C   C1323     1.0  0.89662  0.12422  0.53468  1.0000
  C   C1324     1.0  0.95960  0.31244  0.58803  1.0000
  H   H1321     1.0  0.93826  0.12342  0.56970  1.0000
  N   N109      1.0  0.01108  0.10655  0.55387  1.0000
  C   C1325     1.0  0.78738  0.08467  0.55620  1.0000
  H   H1322     1.0  0.99925  0.06877  0.56620  1.0000
  H   H1323     1.0  0.79450  0.17901  0.64877  1.0000
  H   H1324     1.0  0.78079  0.30289  0.63704  1.0000
  C   C1326     1.0  0.77335  0.02054  0.67110  1.0000
  H   H1325     1.0  0.98531  0.33729  0.70403  1.0000
  C   C1327     1.0  0.78695  0.23356  0.62006  1.0000
  H   H1326     1.0  0.85506  0.39262  0.71361  1.0000
  C   C1328     1.0  0.93649  0.10987  0.55560  1.0000
  H   H1327     1.0  0.00871  0.08576  0.94719  1.0000
  H   H1328     1.0  0.79477  0.28263  0.66750  1.0000
  C   C1329     1.0  0.79212  0.26867  0.65437  1.0000
  C   C1330     1.0  0.77701  0.13115  0.51450  1.0000
  C   C1331     1.0  0.77903  0.03805  0.50037  1.0000
  C   C1332     1.0  0.78426  0.28008  0.63726  1.0000
  C   C1333     1.0  0.92694  0.14525  0.52988  1.0000
  C   C1334     1.0  0.77504  0.48167  0.65030  1.0000
  H   H1329     1.0  0.86462  0.36619  0.73022  1.0000
  H   H1330     1.0  0.96502  0.30218  0.57447  1.0000
  H   H1331     1.0  0.84156  0.99873  0.64633  1.0000
  H   H1332     1.0  0.99278  0.30088  0.69934  1.0000
  H   H1333     1.0  0.00206  0.12923  0.52731  1.0000
  H   H1334     1.0  0.80871  0.06656  0.52813  1.0000
  S   S448      1.0  0.81036  0.47303  0.61729  1.0000
  H   H1335     1.0  0.77772  0.10019  0.55969  1.0000
  H   H1336     1.0  0.87475  0.39878  0.72066  1.0000
  N   N110      1.0  0.79479  0.22261  0.63683  1.0000
  H   H1337     1.0  0.01362  0.06828  0.59925  1.0000
  C   C1335     1.0  0.79731  0.23967  0.65392  1.0000
  C   C1336     1.0  0.01071  0.11345  0.91968  1.0000
  H   H1338     1.0  0.78541  0.22048  0.60617  1.0000
  H   H1339     1.0  0.84737  0.47898  0.61668  1.0000
  H   H1340     1.0  0.77611  0.27142  0.60622  1.0000
  C   C1337     1.0  0.00201  0.10706  0.53467  1.0000
  H   H1341     1.0  0.76699  0.46496  0.65734  1.0000
  H   H1342     1.0  0.77703  0.14172  0.52957  1.0000
  C   C1338     1.0  0.78158  0.26242  0.62001  1.0000
  H   H1343     1.0  0.88930  0.99389  0.66374  1.0000
  C   C1339     1.0  0.79685  0.06030  0.52434  1.0000
  H   H1344     1.0  0.00194  0.10158  0.91112  1.0000
  C   C1340     1.0  0.00544  0.48768  0.98345  1.0000
  H   H1345     1.0  0.99539  0.31894  0.72424  1.0000
  H   H1346     1.0  0.86983  0.00923  0.68856  1.0000
  N   N111      1.0  0.00996  0.33442  0.69887  1.0000
  H   H1347     1.0  0.01196  0.42136  0.85848  1.0000
  H   H1348     1.0  0.79219  0.99500  0.72232  1.0000
  C   C1341     1.0  0.76953  0.06110  0.53196  1.0000
  H   H1349     1.0  0.00953  0.25530  0.52658  1.0000
  C   C1342     1.0  0.76801  0.25457  0.88218  1.0000
  H   H1350     1.0  0.00546  0.48263  0.83760  1.0000
  H   H1351     1.0  0.01604  0.14387  0.89445  1.0000
  Fe  Fe225     1.0  0.98226  0.94824  0.05383  1.0000
  S   S449      1.0  0.99003  0.92840  0.08435  1.0000
  S   S450      1.0  0.00068  0.94810  0.02724  1.0000
  Fe  Fe226     1.0  0.94888  0.95803  0.07133  1.0000
  S   S451      1.0  0.95453  0.93959  0.10283  1.0000
  H   H1352     1.0  0.77812  0.57026  0.14138  1.0000
  Fe  Fe227     1.0  0.97670  0.96565  0.09907  1.0000
  C   C1343     1.0  0.77783  0.88935  0.01012  1.0000
  Fe  Fe228     1.0  0.96708  0.90400  0.08539  1.0000
  S   S452      1.0  0.96145  0.85538  0.09044  1.0000
  C   C1344     1.0  0.99800  0.74068  0.20963  1.0000
  S   S453      1.0  0.96009  0.92109  0.05367  1.0000
  Fe  Fe229     1.0  0.80498  0.92210  0.04962  1.0000
  S   S454      1.0  0.79953  0.94003  0.08182  1.0000
  S   S455      1.0  0.78361  0.91587  0.02879  1.0000
  Fe  Fe230     1.0  0.84024  0.92056  0.05866  1.0000
  S   S456      1.0  0.83704  0.93761  0.09127  1.0000
  S   S457      1.0  0.86423  0.90562  0.04713  1.0000
  Fe  Fe231     1.0  0.81665  0.90634  0.09306  1.0000
  S   S458      1.0  0.81171  0.87865  0.12212  1.0000
  Fe  Fe232     1.0  0.82033  0.96984  0.07719  1.0000
  S   S459      1.0  0.81516  0.51937  0.08000  1.0000
  S   S460      1.0  0.82091  0.88690  0.06143  1.0000
  S   S461      1.0  0.82475  0.95440  0.04402  1.0000
  Fe  Fe233     1.0  0.97933  0.65326  0.14955  1.0000
  S   S462      1.0  0.96571  0.63305  0.17633  1.0000
  S   S463      1.0  0.98807  0.62781  0.12151  1.0000
  Fe  Fe234     1.0  0.97472  0.71566  0.16543  1.0000
  S   S464      1.0  0.96057  0.69960  0.19358  1.0000
  S   S465      1.0  0.98110  0.76428  0.16198  1.0000
  Fe  Fe235     1.0  0.97894  0.66421  0.19654  1.0000
  S   S466      1.0  0.98704  0.65172  0.22953  1.0000
  Fe  Fe236     1.0  0.94866  0.66964  0.17109  1.0000
  S   S467      1.0  0.92364  0.65539  0.16525  1.0000
  S   S468      1.0  0.99384  0.68222  0.16989  1.0000
  S   S469      1.0  0.96159  0.68807  0.14292  1.0000
  Fe  Fe237     1.0  0.81544  0.71246  0.15208  1.0000
  S   S470      1.0  0.81810  0.73036  0.18443  1.0000
  S   S471      1.0  0.81431  0.73961  0.12221  1.0000
  Fe  Fe238     1.0  0.81780  0.64844  0.16637  1.0000
  S   S472      1.0  0.82079  0.66201  0.19990  1.0000
  S   S473      1.0  0.81797  0.59884  0.16181  1.0000
  Fe  Fe239     1.0  0.80143  0.69445  0.19482  1.0000
  S   S474      1.0  0.78060  0.69380  0.21826  1.0000
  Fe  Fe240     1.0  0.83714  0.69648  0.18694  1.0000
  S   S475      1.0  0.86019  0.70955  0.20123  1.0000
  S   S476      1.0  0.79739  0.67869  0.16193  1.0000
  S   S477      1.0  0.83555  0.68088  0.15393  1.0000
  C   C1345     1.0  0.77295  0.77197  0.24773  1.0000
  H   H1353     1.0  0.98932  0.89926  0.00343  1.0000
  H   H1354     1.0  0.93137  0.50153  0.12856  1.0000
  H   H1355     1.0  0.93459  0.59415  0.16190  1.0000
  C   C1346     1.0  0.77935  0.75033  0.23447  1.0000
  C   C1347     1.0  0.93819  0.55430  0.14440  1.0000
  H   H1356     1.0  0.95438  0.55023  0.09612  1.0000
  H   H1357     1.0  0.78973  0.87267  0.08528  1.0000
  H   H1358     1.0  0.97513  0.71036  0.23709  1.0000
  H   H1359     1.0  0.81649  0.50499  0.12490  1.0000
  H   H1360     1.0  0.99507  0.86237  0.07530  1.0000
  H   H1361     1.0  0.01505  0.97742  0.09487  1.0000
  H   H1362     1.0  0.95583  0.60388  0.10074  1.0000
  H   H1363     1.0  0.95224  0.50014  0.13300  1.0000
  C   C1348     1.0  0.90626  0.67045  0.17604  1.0000
  C   C1349     1.0  0.90642  0.69255  0.19102  1.0000
  C   C1350     1.0  0.89220  0.70380  0.19909  1.0000
  C   C1351     1.0  0.87777  0.69330  0.19206  1.0000
  C   C1352     1.0  0.87766  0.67125  0.17708  1.0000
  C   C1353     1.0  0.89183  0.65985  0.16917  1.0000
  H   H1364     1.0  0.91746  0.70077  0.19649  1.0000
  H   H1365     1.0  0.89239  0.72080  0.21073  1.0000
  H   H1366     1.0  0.86666  0.66287  0.17163  1.0000
  H   H1367     1.0  0.89161  0.64267  0.15766  1.0000
  H   H1368     1.0  0.80009  0.60253  0.20383  1.0000
  C   C1354     1.0  0.81560  0.54097  0.10303  1.0000
  C   C1355     1.0  0.81550  0.57166  0.10103  1.0000
  C   C1356     1.0  0.81618  0.58976  0.11877  1.0000
  C   C1357     1.0  0.81707  0.57731  0.13879  1.0000
  C   C1358     1.0  0.81708  0.54662  0.14081  1.0000
  C   C1359     1.0  0.81636  0.52853  0.12307  1.0000
  H   H1369     1.0  0.81491  0.58155  0.08561  1.0000
  H   H1370     1.0  0.81613  0.61330  0.11694  1.0000
  H   H1371     1.0  0.81780  0.53672  0.15620  1.0000
  N   N112      1.0  0.77231  0.69361  0.34637  1.0000
  C   C1360     1.0  0.81272  0.84002  0.12191  1.0000
  C   C1361     1.0  0.81586  0.82467  0.10347  1.0000
  C   C1362     1.0  0.81618  0.79391  0.10377  1.0000
  C   C1363     1.0  0.81357  0.77824  0.12254  1.0000
  C   C1364     1.0  0.81062  0.79356  0.14104  1.0000
  C   C1365     1.0  0.81013  0.82433  0.14068  1.0000
  H   H1372     1.0  0.81801  0.83642  0.08896  1.0000
  H   H1373     1.0  0.81857  0.78219  0.08943  1.0000
  H   H1374     1.0  0.80845  0.78175  0.15556  1.0000
  H   H1375     1.0  0.80764  0.83604  0.15500  1.0000
  C   C1366     1.0  0.94964  0.55977  0.11039  1.0000
  N   N113      1.0  0.98730  0.85266  0.04491  1.0000
  C   C1367     1.0  0.85809  0.52556  0.07449  1.0000
  C   C1368     1.0  0.96712  0.83056  0.11055  1.0000
  C   C1369     1.0  0.96198  0.80132  0.10976  1.0000
  C   C1370     1.0  0.96615  0.78077  0.12530  1.0000
  C   C1371     1.0  0.97554  0.78922  0.14186  1.0000
  C   C1372     1.0  0.98074  0.81846  0.14258  1.0000
  C   C1373     1.0  0.97657  0.83902  0.12704  1.0000
  H   H1376     1.0  0.95469  0.79444  0.09710  1.0000
  H   H1377     1.0  0.96207  0.75839  0.12448  1.0000
  H   H1378     1.0  0.98800  0.82528  0.15531  1.0000
  H   H1379     1.0  0.98063  0.86139  0.12792  1.0000
  C   C1374     1.0  0.98591  0.52765  0.12308  1.0000
  C   C1375     1.0  0.98810  0.54276  0.10410  1.0000
  C   C1376     1.0  0.98907  0.57347  0.10388  1.0000
  C   C1377     1.0  0.98750  0.58926  0.12254  1.0000
  C   C1378     1.0  0.98515  0.57412  0.14148  1.0000
  C   C1379     1.0  0.98452  0.54340  0.14176  1.0000
  H   H1380     1.0  0.98937  0.53078  0.08965  1.0000
  H   H1381     1.0  0.99095  0.58505  0.08918  1.0000
  H   H1382     1.0  0.98409  0.58604  0.15595  1.0000
  H   H1383     1.0  0.98293  0.53181  0.15649  1.0000
  C   C1380     1.0  0.90818  0.95811  0.06315  1.0000
  C   C1381     1.0  0.89324  0.96950  0.06760  1.0000
  C   C1382     1.0  0.87969  0.95364  0.06272  1.0000
  C   C1383     1.0  0.88098  0.92643  0.05306  1.0000
  C   C1384     1.0  0.89592  0.91506  0.04855  1.0000
  C   C1385     1.0  0.90948  0.93075  0.05367  1.0000
  S   S478      1.0  0.97033  0.98675  0.06868  1.0000
  H   H1384     1.0  0.86824  0.96267  0.06616  1.0000
  H   H1385     1.0  0.89698  0.89403  0.04105  1.0000
  H   H1386     1.0  0.92092  0.92183  0.05011  1.0000
  C   C1386     1.0  0.78205  0.58674  0.17236  1.0000
  H   H1387     1.0  0.78760  0.63077  0.21351  1.0000
  C   C1387     1.0  0.78760  0.60882  0.20613  1.0000
  H   H1388     1.0  0.97803  0.74909  0.24100  1.0000
  H   H1389     1.0  0.78979  0.56884  0.17634  1.0000
  C   C1388     1.0  0.77321  0.72193  0.23492  1.0000
  C   C1389     1.0  0.76974  0.72019  0.35546  1.0000
  H   H1390     1.0  0.01096  0.74987  0.18093  1.0000
  C   C1390     1.0  0.00570  0.74541  0.48753  1.0000
  N   N114      1.0  0.88791  0.88300  0.09652  1.0000
  C   C1391     1.0  0.89689  0.85941  0.09114  1.0000
  C   C1392     1.0  0.89478  0.90841  0.10282  1.0000
  C   C1393     1.0  0.91324  0.86101  0.09178  1.0000
  C   C1394     1.0  0.91108  0.91081  0.10354  1.0000
  C   C1395     1.0  0.92033  0.88690  0.09800  1.0000
  C   C1396     1.0  0.87080  0.88054  0.09648  1.0000
  H   H1391     1.0  0.89143  0.83930  0.08614  1.0000
  H   H1392     1.0  0.88767  0.92727  0.10675  1.0000
  H   H1393     1.0  0.92043  0.84243  0.08740  1.0000
  H   H1394     1.0  0.91651  0.93133  0.10780  1.0000
  H   H1395     1.0  0.93298  0.88845  0.09836  1.0000
  H   H1396     1.0  0.86690  0.86621  0.08361  1.0000
  H   H1397     1.0  0.86630  0.87175  0.11171  1.0000
  H   H1398     1.0  0.86535  0.90217  0.09354  1.0000
  C   C1397     1.0  0.00624  0.62864  0.25961  1.0000
  H   H1399     1.0  0.79705  0.85989  0.01462  1.0000
  H   H1400     1.0  0.98810  0.75383  0.20498  1.0000
  H   H1401     1.0  0.78873  0.82069  0.07729  1.0000
  C   C1398     1.0  0.99310  0.87373  0.03149  1.0000
  H   H1402     1.0  0.78173  0.59300  0.21701  1.0000
  H   H1403     1.0  0.94570  0.62600  0.13365  1.0000
  C   C1399     1.0  0.77545  0.58740  0.15254  1.0000
  H   H1404     1.0  0.01588  0.63249  0.20778  1.0000
  S   S479      1.0  0.98509  0.99148  0.12668  1.0000
  C   C1400     1.0  0.00455  0.63464  0.23811  1.0000
  H   H1405     1.0  0.01193  0.49734  0.03519  1.0000
  C   C1401     1.0  0.88583  0.52114  0.06755  1.0000
  H   H1406     1.0  0.99677  0.63385  0.27045  1.0000
  C   C1402     1.0  0.97306  0.83999  0.04147  1.0000
  C   C1403     1.0  0.77356  0.69142  0.32505  1.0000
  N   N115      1.0  0.86162  0.76119  0.16208  1.0000
  C   C1404     1.0  0.85184  0.75472  0.14612  1.0000
  C   C1405     1.0  0.87656  0.75056  0.16202  1.0000
  C   C1406     1.0  0.85671  0.73619  0.12997  1.0000
  C   C1407     1.0  0.88178  0.73169  0.14626  1.0000
  C   C1408     1.0  0.87172  0.72429  0.13024  1.0000
  C   C1409     1.0  0.85625  0.78040  0.17900  1.0000
  H   H1407     1.0  0.84007  0.76337  0.14604  1.0000
  H   H1408     1.0  0.88428  0.75552  0.17476  1.0000
  H   H1409     1.0  0.84868  0.73047  0.11771  1.0000
  H   H1410     1.0  0.89337  0.72207  0.14693  1.0000
  H   H1411     1.0  0.87546  0.70904  0.11825  1.0000
  H   H1412     1.0  0.85965  0.80335  0.17540  1.0000
  H   H1413     1.0  0.84333  0.77912  0.18128  1.0000
  H   H1414     1.0  0.86131  0.77349  0.19416  1.0000
  N   N116      1.0  0.77283  0.85263  0.06587  1.0000
  H   H1415     1.0  0.00868  0.84135  0.05939  1.0000
  C   C1410     1.0  0.95043  0.59012  0.11283  1.0000
  N   N117      1.0  0.86751  0.49732  0.04531  1.0000
  H   H1416     1.0  0.84835  0.53383  0.08388  1.0000
  C   C1411     1.0  0.99614  0.84473  0.06353  1.0000
  H   H1417     1.0  0.01559  0.98893  0.05668  1.0000
  C   C1412     1.0  0.98366  0.72727  0.24196  1.0000
  H   H1418     1.0  0.78710  0.66295  0.36125  1.0000
  H   H1419     1.0  0.96826  0.82380  0.05238  1.0000
  H   H1420     1.0  0.00945  0.69593  0.24832  1.0000
  H   H1421     1.0  0.99161  0.82427  0.07107  1.0000
  C   C1413     1.0  0.01369  0.49870  0.01839  1.0000
  H   H1422     1.0  0.99487  0.74865  0.47939  1.0000
  C   C1414     1.0  0.88262  0.50397  0.05015  1.0000
  H   H1423     1.0  0.76871  0.64807  0.35253  1.0000
  H   H1424     1.0  0.77298  0.71445  0.29532  1.0000
  C   C1415     1.0  0.94493  0.60253  0.13142  1.0000
  C   C1416     1.0  0.93875  0.58457  0.14733  1.0000
  C   C1417     1.0  0.98472  0.88229  0.01390  1.0000
  H   H1425     1.0  0.89787  0.52524  0.07177  1.0000
  C   C1418     1.0  0.76788  0.74532  0.34311  1.0000
  C   C1419     1.0  0.87347  0.53186  0.07984  1.0000
  H   H1426     1.0  0.78046  0.65101  0.47519  1.0000
  H   H1427     1.0  0.77779  0.79387  0.24712  1.0000
  H   H1428     1.0  0.95292  0.83847  0.02168  1.0000
  H   H1429     1.0  0.89233  0.49508  0.04104  1.0000
  H   H1430     1.0  0.93360  0.54043  0.15697  1.0000
  N   N118      1.0  0.99769  0.72595  0.22837  1.0000
  C   C1420     1.0  0.94296  0.51049  0.12356  1.0000
  H   H1431     1.0  0.00418  0.88442  0.03447  1.0000
  H   H1432     1.0  0.98651  0.72299  0.25858  1.0000
  H   H1433     1.0  0.78898  0.75568  0.22382  1.0000
  C   C1421     1.0  0.78623  0.86357  0.00655  1.0000
  H   H1434     1.0  0.77007  0.87115  0.09604  1.0000
  H   H1435     1.0  0.87576  0.54487  0.09355  1.0000
  C   C1422     1.0  0.77981  0.82575  0.06600  1.0000
  N   N119      1.0  0.94344  0.54232  0.12601  1.0000
  C   C1423     1.0  0.77194  0.71619  0.31223  1.0000
  C   C1424     1.0  0.96431  0.84823  0.02414  1.0000
  S   S480      1.0  0.92485  0.97850  0.07006  1.0000
  C   C1425     1.0  0.97021  0.86952  0.01028  1.0000
  C   C1426     1.0  0.85530  0.50829  0.05701  1.0000
  H   H1436     1.0  0.84329  0.50359  0.05300  1.0000
  C   C1427     1.0  0.00894  0.97697  0.01153  1.0000
  C   C1428     1.0  0.76999  0.63186  0.18098  1.0000
  N   N120      1.0  0.77972  0.60927  0.18599  1.0000
  C   C1429     1.0  0.77444  0.66747  0.35949  1.0000
  H   H1437     1.0  0.01337  0.54812  0.25931  1.0000
  H   H1438     1.0  0.94488  0.50401  0.10699  1.0000
  C   C1430     1.0  0.77614  0.63210  0.48383  1.0000
  C   C1431     1.0  0.01093  0.73850  0.19593  1.0000
  H   H1439     1.0  0.01393  0.52764  0.29528  1.0000
  H   H1440     1.0  0.77580  0.67041  0.31784  1.0000
  H   H1441     1.0  0.76865  0.72205  0.37236  1.0000
  H   H1442     1.0  0.76764  0.76264  0.31160  1.0000
  C   C1432     1.0  0.00995  0.70852  0.23383  1.0000
  C   C1433     1.0  0.76901  0.74327  0.32136  1.0000
  H   H1443     1.0  0.76797  0.64959  0.19186  1.0000
  C   C1434     1.0  0.77714  0.87437  0.08142  1.0000
  H   H1444     1.0  0.78147  0.78349  0.05131  1.0000
  H   H1445     1.0  0.89213  0.99069  0.07483  1.0000
  H   H1446     1.0  0.76896  0.67013  0.37531  1.0000
  H   H1447     1.0  0.77526  0.89693  0.07534  1.0000
  C   C1435     1.0  0.77568  0.80456  0.05143  1.0000
  H   H1448     1.0  0.86237  0.49344  0.01313  1.0000
  Fe  Fe241     1.0  0.97885  0.95797  0.66000  1.0000
  S   S481      1.0  0.96325  0.94546  0.68770  1.0000
  H   H1449     1.0  0.83969  0.57182  0.58758  1.0000
  Fe  Fe242     1.0  0.98277  0.89361  0.64760  1.0000
  S   S482      1.0  0.96759  0.87689  0.67416  1.0000
  S   S483      1.0  0.99279  0.86396  0.62248  1.0000
  Fe  Fe243     1.0  0.95164  0.91420  0.66583  1.0000
  S   S484      1.0  0.92626  0.90377  0.65847  1.0000
  Fe  Fe244     1.0  0.98065  0.90917  0.69376  1.0000
  S   S485      1.0  0.98785  0.90013  0.72768  1.0000
  S   S486      1.0  0.96617  0.92900  0.63785  1.0000
  S   S487      1.0  0.99697  0.92369  0.66755  1.0000
  Fe  Fe245     1.0  0.80320  0.93122  0.69426  1.0000
  S   S488      1.0  0.79839  0.91515  0.66167  1.0000
  S   S489      1.0  0.78265  0.93357  0.71791  1.0000
  Fe  Fe246     1.0  0.83866  0.93372  0.68501  1.0000
  S   S490      1.0  0.83639  0.91825  0.65209  1.0000
  S   S491      1.0  0.86189  0.94572  0.69920  1.0000
  Fe  Fe247     1.0  0.81604  0.94935  0.65131  1.0000
  C   C1436     1.0  0.78166  0.62644  0.50409  1.0000
  Fe  Fe248     1.0  0.81911  0.88525  0.66514  1.0000
  S   S492      1.0  0.82096  0.83570  0.66042  1.0000
  S   S493      1.0  0.81946  0.96736  0.68338  1.0000
  S   S494      1.0  0.82277  0.89893  0.69856  1.0000
  Fe  Fe249     1.0  0.98192  0.70297  0.59617  1.0000
  S   S495      1.0  0.96856  0.72491  0.57088  1.0000
  S   S496      1.0  0.99433  0.72611  0.62213  1.0000
  Fe  Fe250     1.0  0.97625  0.64233  0.57897  1.0000
  S   S497      1.0  0.96241  0.65998  0.55184  1.0000
  S   S498      1.0  0.98257  0.59402  0.58222  1.0000
  Fe  Fe251     1.0  0.98107  0.69497  0.54865  1.0000
  S   S499      1.0  0.98737  0.71583  0.51681  1.0000
  Fe  Fe252     1.0  0.95099  0.68877  0.57599  1.0000
  S   S500      1.0  0.92616  0.70593  0.57683  1.0000
  S   S501      1.0  0.99585  0.67514  0.57374  1.0000
  S   S502      1.0  0.96351  0.66892  0.60329  1.0000
  Fe  Fe253     1.0  0.80788  0.65363  0.54647  1.0000
  S   S503      1.0  0.79720  0.67159  0.57629  1.0000
  S   S504      1.0  0.79528  0.65135  0.51506  1.0000
  Fe  Fe254     1.0  0.84069  0.65065  0.56583  1.0000
  S   S505      1.0  0.83241  0.66855  0.59669  1.0000
  S   S506      1.0  0.86500  0.63170  0.56092  1.0000
  Fe  Fe255     1.0  0.81202  0.63806  0.59262  1.0000
  S   S507      1.0  0.80478  0.61096  0.62104  1.0000
  Fe  Fe256     1.0  0.81847  0.70083  0.57799  1.0000
  S   S508      1.0  0.81630  0.75064  0.58149  1.0000
  S   S509      1.0  0.82110  0.61804  0.56288  1.0000
  S   S510      1.0  0.82835  0.68496  0.54703  1.0000
  H   H1450     1.0  0.99807  0.88971  0.76964  1.0000
  H   H1451     1.0  0.78696  0.82227  0.99043  1.0000
  H   H1452     1.0  0.77766  0.50422  0.86830  1.0000
  C   C1437     1.0  0.90926  0.68390  0.57510  1.0000
  C   C1438     1.0  0.89451  0.69727  0.57666  1.0000
  C   C1439     1.0  0.88078  0.68118  0.57322  1.0000
  C   C1440     1.0  0.88172  0.65159  0.56813  1.0000
  C   C1441     1.0  0.89644  0.63795  0.56727  1.0000
  C   C1442     1.0  0.91019  0.65404  0.57076  1.0000
  H   H1453     1.0  0.89372  0.72034  0.58010  1.0000
  H   H1454     1.0  0.86950  0.69186  0.57397  1.0000
  H   H1455     1.0  0.89723  0.61502  0.56340  1.0000
  H   H1456     1.0  0.92149  0.64354  0.56960  1.0000
  C   C1443     1.0  0.77565  0.96276  0.73374  1.0000
  H   H1457     1.0  0.88639  0.65495  0.52072  1.0000
  H   H1458     1.0  0.85384  0.58018  0.64161  1.0000
  C   C1444     1.0  0.78217  0.99084  0.73256  1.0000
  S   S511      1.0  0.97463  0.50999  0.66211  1.0000
  C   C1445     1.0  0.81960  0.81260  0.63816  1.0000
  C   C1446     1.0  0.82144  0.78220  0.64088  1.0000
  C   C1447     1.0  0.82052  0.76292  0.62380  1.0000
  C   C1448     1.0  0.81774  0.77382  0.60369  1.0000
  C   C1449     1.0  0.81592  0.80423  0.60096  1.0000
  C   C1450     1.0  0.81685  0.82352  0.61804  1.0000
  H   H1459     1.0  0.82354  0.77344  0.65635  1.0000
  H   H1460     1.0  0.82194  0.73964  0.62621  1.0000
  H   H1461     1.0  0.81379  0.81297  0.58550  1.0000
  H   H1462     1.0  0.81541  0.84678  0.61565  1.0000
  C   C1451     1.0  0.80962  0.51150  0.61838  1.0000
  C   C1452     1.0  0.80655  0.52752  0.60011  1.0000
  C   C1453     1.0  0.80553  0.55817  0.60059  1.0000
  C   C1454     1.0  0.80743  0.57293  0.61943  1.0000
  C   C1455     1.0  0.81079  0.55699  0.63760  1.0000
  C   C1456     1.0  0.81196  0.52640  0.63706  1.0000
  H   H1463     1.0  0.80478  0.51617  0.58556  1.0000
  H   H1464     1.0  0.80278  0.57028  0.58652  1.0000
  H   H1465     1.0  0.81235  0.56833  0.65220  1.0000
  H   H1466     1.0  0.81453  0.51448  0.65116  1.0000
  C   C1457     1.0  0.77500  0.56218  0.66046  1.0000
  C   C1458     1.0  0.00470  0.88207  0.73739  1.0000
  N   N121      1.0  0.00092  0.79141  0.56051  1.0000
  C   C1459     1.0  0.91167  0.71196  0.52535  1.0000
  C   C1460     1.0  0.87213  0.96729  0.62053  1.0000
  C   C1461     1.0  0.97466  0.53100  0.63847  1.0000
  C   C1462     1.0  0.98290  0.52209  0.62049  1.0000
  C   C1463     1.0  0.98475  0.54133  0.60318  1.0000
  C   C1464     1.0  0.97834  0.56963  0.60354  1.0000
  C   C1465     1.0  0.96958  0.57816  0.62119  1.0000
  C   C1466     1.0  0.96781  0.55897  0.63856  1.0000
  H   H1467     1.0  0.98832  0.50074  0.62019  1.0000
  H   H1468     1.0  0.99146  0.53438  0.58957  1.0000
  H   H1469     1.0  0.96448  0.59976  0.62169  1.0000
  H   H1470     1.0  0.96136  0.56607  0.65234  1.0000
  C   C1467     1.0  0.99019  0.82593  0.62604  1.0000
  H   H1471     1.0  0.95042  0.70113  0.51675  1.0000
  H   H1472     1.0  0.00485  0.57238  0.64416  1.0000
  C   C1468     1.0  0.99149  0.76425  0.62467  1.0000
  C   C1469     1.0  0.98152  0.77967  0.61147  1.0000
  C   C1470     1.0  0.98096  0.81039  0.61205  1.0000
  C   C1471     1.0  0.00685  0.88055  0.75918  1.0000
  H   H1473     1.0  0.78641  0.52454  0.75342  1.0000
  H   H1474     1.0  0.97451  0.76809  0.60047  1.0000
  H   H1475     1.0  0.97376  0.82221  0.60115  1.0000
  C   C1472     1.0  0.90876  0.91830  0.66912  1.0000
  C   C1473     1.0  0.90842  0.93533  0.68718  1.0000
  C   C1474     1.0  0.89396  0.94392  0.69615  1.0000
  C   C1475     1.0  0.87981  0.93557  0.68711  1.0000
  C   C1476     1.0  0.88020  0.91918  0.66878  1.0000
  C   C1477     1.0  0.89460  0.91061  0.65985  1.0000
  H   H1476     1.0  0.91927  0.94124  0.69450  1.0000
  H   H1477     1.0  0.89375  0.95666  0.71034  1.0000
  H   H1478     1.0  0.86943  0.91269  0.66163  1.0000
  H   H1479     1.0  0.89479  0.89737  0.64590  1.0000
  H   H1480     1.0  0.84377  0.52099  0.59266  1.0000
  H   H1481     1.0  0.79875  0.76941  0.54527  1.0000
  H   H1482     1.0  0.00796  0.76803  0.64954  1.0000
  H   H1483     1.0  0.93966  0.73408  0.51231  1.0000
  H   H1484     1.0  0.77742  0.53523  0.63328  1.0000
  H   H1485     1.0  0.97749  0.63677  0.67663  1.0000
  H   H1486     1.0  0.91161  0.62913  0.51470  1.0000
  C   C1478     1.0  0.77877  0.50664  0.74941  1.0000
  C   C1479     1.0  0.79044  0.75189  0.54257  1.0000
  C   C1480     1.0  0.99904  0.64297  0.63145  1.0000
  H   H1487     1.0  0.77262  0.58322  0.69042  1.0000
  C   C1481     1.0  0.98933  0.65130  0.64824  1.0000
  N   N122      1.0  0.77352  0.50968  0.66108  1.0000
  C   C1482     1.0  0.99115  0.60238  0.66245  1.0000
  H   H1488     1.0  0.01012  0.76127  0.82199  1.0000
  C   C1483     1.0  0.85684  0.97646  0.62475  1.0000
  C   C1484     1.0  0.88013  0.98933  0.65276  1.0000
  N   N123      1.0  0.92549  0.69771  0.52165  1.0000
  H   H1489     1.0  0.77689  0.58245  0.65170  1.0000
  H   H1490     1.0  0.76850  0.94679  0.67358  1.0000
  H   H1491     1.0  0.98428  0.97802  0.73652  1.0000
  C   C1485     1.0  0.99717  0.98629  0.70770  1.0000
  C   C1486     1.0  0.00025  0.77973  0.63923  1.0000
  C   C1487     1.0  0.84655  0.57793  0.60145  1.0000
  C   C1488     1.0  0.85251  0.55798  0.63607  1.0000
  C   C1489     1.0  0.85301  0.50596  0.64297  1.0000
  N   N124      1.0  0.87334  0.84761  0.68406  1.0000
  C   C1490     1.0  0.88543  0.83696  0.67202  1.0000
  C   C1491     1.0  0.87627  0.86361  0.70155  1.0000
  C   C1492     1.0  0.90096  0.84177  0.67760  1.0000
  C   C1493     1.0  0.89166  0.86866  0.70766  1.0000
  C   C1494     1.0  0.90406  0.85764  0.69558  1.0000
  C   C1495     1.0  0.85721  0.84367  0.67728  1.0000
  H   H1492     1.0  0.88311  0.82515  0.65776  1.0000
  H   H1493     1.0  0.86672  0.87338  0.71049  1.0000
  H   H1494     1.0  0.91058  0.83423  0.66768  1.0000
  H   H1495     1.0  0.89396  0.88210  0.72115  1.0000
  H   H1496     1.0  0.91607  0.86251  0.69956  1.0000
  H   H1497     1.0  0.85549  0.82184  0.67013  1.0000
  H   H1498     1.0  0.84864  0.84512  0.69059  1.0000
  H   H1499     1.0  0.85426  0.86071  0.66553  1.0000
  H   H1500     1.0  0.00040  0.83667  0.56857  1.0000
  C   C1496     1.0  0.94023  0.71418  0.52235  1.0000
  H   H1501     1.0  0.88649  0.70805  0.52823  1.0000
  C   C1497     1.0  0.78363  0.76585  0.91166  1.0000
  H   H1502     1.0  0.93655  0.65672  0.51575  1.0000
  C   C1498     1.0  0.88390  0.97391  0.63453  1.0000
  C   C1499     1.0  0.77947  0.71542  0.52014  1.0000
  H   H1503     1.0  0.00208  0.65912  0.61949  1.0000
  C   C1500     1.0  0.92558  0.66829  0.51789  1.0000
  H   H1504     1.0  0.01255  0.98961  0.68065  1.0000
  H   H1505     1.0  0.78154  0.97452  0.87648  1.0000
  C   C1501     1.0  0.98915  0.79449  0.54431  1.0000
  H   H1506     1.0  0.85780  0.53849  0.66611  1.0000
  H   H1507     1.0  0.00259  0.74519  0.55698  1.0000
  H   H1508     1.0  0.79760  0.74591  0.51037  1.0000
  S   S512      1.0  0.81371  0.97764  0.62232  1.0000
  H   H1509     1.0  0.91166  0.73489  0.52952  1.0000
  C   C1502     1.0  0.78044  0.84223  0.99282  1.0000
  C   C1503     1.0  0.77788  0.76975  0.93203  1.0000
  C   C1504     1.0  0.76669  0.96980  0.67683  1.0000
  H   H1510     1.0  0.85814  0.58640  0.59588  1.0000
  H   H1511     1.0  0.00465  0.79369  0.79144  1.0000
  N   N125      1.0  0.77013  0.70534  0.53636  1.0000
  C   C1505     1.0  0.77530  0.53536  0.65010  1.0000
  C   C1506     1.0  0.00550  0.72994  0.50670  1.0000
  C   C1507     1.0  0.00651  0.76425  0.56540  1.0000
  H   H1512     1.0  0.84003  0.59592  0.60934  1.0000
  C   C1508     1.0  0.77594  0.60185  0.51502  1.0000
  C   C1509     1.0  0.77138  0.50987  0.68236  1.0000
  C   C1510     1.0  0.98528  0.63077  0.66375  1.0000
  H   H1513     1.0  0.00700  0.82226  0.65048  1.0000
  C   C1511     1.0  0.99962  0.81045  0.63991  1.0000
  C   C1512     1.0  0.01112  0.98138  0.69659  1.0000
  C   C1513     1.0  0.84911  0.50111  0.62220  1.0000
  H   H1514     1.0  0.78001  0.59716  0.53060  1.0000
  C   C1514     1.0  0.85475  0.53456  0.64998  1.0000
  C   C1515     1.0  0.77847  0.74195  0.90013  1.0000
  C   C1516     1.0  0.78980  0.73873  0.52302  1.0000
  C   C1517     1.0  0.91153  0.65256  0.51716  1.0000
  C   C1518     1.0  0.89741  0.69693  0.52463  1.0000
  C   C1519     1.0  0.77072  0.71811  0.55560  1.0000
  C   C1520     1.0  0.00744  0.95931  0.73694  1.0000
  C   C1521     1.0  0.89736  0.66707  0.52044  1.0000
  C   C1522     1.0  0.77275  0.56258  0.68216  1.0000
  H   H1515     1.0  0.98781  0.58595  0.67413  1.0000
  N   N126      1.0  0.84855  0.55302  0.61578  1.0000
  C   C1523     1.0  0.84701  0.52502  0.60870  1.0000
  H   H1516     1.0  0.76917  0.53625  0.71013  1.0000
  H   H1517     1.0  0.87484  0.95497  0.60650  1.0000
  C   C1524     1.0  0.00081  0.59480  0.64541  1.0000
  H   H1518     1.0  0.77942  0.70469  0.50507  1.0000
  H   H1519     1.0  0.99098  0.77805  0.53177  1.0000
  H   H1520     1.0  0.97729  0.79129  0.55143  1.0000
  H   H1521     1.0  0.96349  0.87643  0.99691  1.0000
  H   H1522     1.0  0.78174  0.75110  0.57443  1.0000
  H   H1523     1.0  0.94242  0.72090  0.53868  1.0000
  C   C1525     1.0  0.78082  0.74163  0.55897  1.0000
  H   H1524     1.0  0.78415  0.98485  0.65431  1.0000
  C   C1526     1.0  0.77086  0.53628  0.69322  1.0000
  H   H1525     1.0  0.98487  0.67351  0.64903  1.0000
  N   N127      1.0  0.00440  0.61488  0.63000  1.0000
  H   H1526     1.0  0.79183  0.78152  0.90476  1.0000
  H   H1527     1.0  0.78156  0.78847  0.94103  1.0000
  H   H1528     1.0  0.98984  0.81642  0.53670  1.0000
  C   C1527     1.0  0.99527  0.97518  0.72800  1.0000
  H   H1529     1.0  0.89582  0.96659  0.63158  1.0000
  C   C1528     1.0  0.00540  0.81532  0.57166  1.0000
  H   H1530     1.0  0.84756  0.97149  0.61400  1.0000
  H   H1531     1.0  0.00565  0.95005  0.75251  1.0000
  H   H1532     1.0  0.78280  0.73923  0.88418  1.0000
  H   H1533     1.0  0.77305  0.68512  0.89008  1.0000
  C   C1529     1.0  0.01491  0.77978  0.79132  1.0000
  H   H1534     1.0  0.01253  0.58332  0.60800  1.0000
  H   H1535     1.0  0.01199  0.61967  0.59810  1.0000
  H   H1536     1.0  0.01468  0.87094  0.70733  1.0000
  C   C1530     1.0  0.01459  0.60651  0.61232  1.0000
  C   C1531     1.0  0.76865  0.97352  0.87492  1.0000
  C   C1532     1.0  0.85349  0.99179  0.64314  1.0000
  C   C1533     1.0  0.77555  0.99113  0.66622  1.0000
  N   N128      1.0  0.76798  0.72238  0.90874  1.0000
  C   C1534     1.0  0.01604  0.81247  0.58786  1.0000
  C   C1535     1.0  0.01615  0.87004  0.72411  1.0000
  C   C1536     1.0  0.76696  0.74999  0.94056  1.0000
