data_image0
_chemical_formula_structural       FeSHFeSNFeSFeS3FeS2FeSHFeSFeS3C2H2C7H4CH2CHC2H5SC2HC5HC2HCHC2H3C2NCH2C2H9C2HC4H2SH2CHCNSHNCNCHFeHCNC2FeS2CHCH3SH2C3H2CH2CHC2HNH2CH4C2HFeHC3SC2FeSFe2S2FeSFeS3HNC2HC3HCHC2H2C2HC2H4SHCH2CH3CSC2H2CH3CNC3H2CHCHC3H2C2H2CHCH2CSFeS2FeSCFeSFeS3C4HC2HNHC6HCH3CH3CHCHCNFeCSC2H3C4SHCHCH2CH2CNC2H2FeHCHC2H3CHC2SHCHS2FeCSCH2CH2CFe2S2FeHSH2FeSH2Fe2SHSHSHCNC2H2C6H4C2HCNH2CSC2HCHCSCHNH2C2H3CSNC2HC3H4C3SC2H2C5SC2H3C2H2CFeS2HCHCSC2SH3C3HCH2SHCH4CH4C2NC2SHSH2SFeHNFeC3FeS2FeS2FeHFeS3HC2HSCHC3H4CHC3H2C4HC2HCHCH2C4H2NCHC2NHCH7CHSH2C3H3C2H3SC3FeSCFeS2FeSFeSCH2C6HC4HCHCH2CH3CHC2SH2SH4CH2NHC2NC4H2CH5CH2FeS2FeS2FeSFeHS2FeS2FeS2FeCFeS3H2CH2C3SH2NHCHC3HC7H4C2HCHC2H2CSCHSCH2NHCHCHCH2C2SHCHC2H2C2H5C2NCH2C2HCH4C3HC4SHCSFeSH2CHCH2CSHCHC2H2N2HCHCHC2HC2HC3H5CS2FeS2FeS2CFeCS2FeS2FeHSC2H2CH2CHC6H5C2HCFeCSFeS2C2HCH3CNHCHC2HCNCH3CSHC2H8C3NCH2C2H2C3SH4CFe2S2FeS2FeSFeHS2H2Fe2HSH4CHC5H2CH2C6H2CHC2H2SCNC2HCNCHC2H3CH2FeH2CHC3S
_chemical_formula_sum              "Fe64 S128 H384 N32 C384"
_cell_length_a       34.5112
_cell_length_b       35.0765
_cell_length_c       43.8734
_cell_angle_alpha    90.0006
_cell_angle_beta     90.1305
_cell_angle_gamma    89.6941

_space_group_name_H-M_alt    "P 1"
_space_group_IT_number       1

loop_
  _space_group_symop_operation_xyz
  'x, y, z'

loop_
  _atom_site_type_symbol
  _atom_site_label
  _atom_site_symmetry_multiplicity
  _atom_site_fract_x
  _atom_site_fract_y
  _atom_site_fract_z
  _atom_site_occupancy
  Fe  Fe1       1.0  0.22454  0.49728  0.23036  1.0000
  S   S1        1.0  0.18256  0.45546  0.21078  1.0000
  H   H1        1.0  0.51496  0.34680  0.32761  1.0000
  Fe  Fe2       1.0  0.21801  0.46469  0.29476  1.0000
  S   S2        1.0  0.17556  0.41988  0.27987  1.0000
  N   N1        1.0  0.50706  0.31248  0.28828  1.0000
  Fe  Fe3       1.0  0.21495  0.41247  0.23940  1.0000
  S   S3        1.0  0.22877  0.35431  0.21950  1.0000
  Fe  Fe4       1.0  0.14755  0.46689  0.25281  1.0000
  S   S4        1.0  0.08565  0.48788  0.25121  1.0000
  S   S5        1.0  0.25956  0.45382  0.25618  1.0000
  S   S6        1.0  0.18737  0.51216  0.27050  1.0000
  Fe  Fe5       1.0  0.46280  0.21169  0.11595  1.0000
  S   S7        1.0  0.40180  0.21232  0.13421  1.0000
  S   S8        1.0  0.46839  0.20584  0.06489  1.0000
  Fe  Fe6       1.0  0.49865  0.21484  0.17986  1.0000
  S   S9        1.0  0.44057  0.21553  0.20232  1.0000
  H   H2        1.0  0.48427  0.21384  0.30469  1.0000
  Fe  Fe7       1.0  0.42543  0.17040  0.16832  1.0000
  S   S10       1.0  0.39986  0.11547  0.18507  1.0000
  Fe  Fe8       1.0  0.42355  0.25753  0.16627  1.0000
  S   S11       1.0  0.40028  0.31538  0.18033  1.0000
  S   S12       1.0  0.48475  0.16671  0.14805  1.0000
  S   S13       1.0  0.48307  0.25986  0.14547  1.0000
  C   C1        1.0  0.41224  0.07715  0.16114  1.0000
  C   C2        1.0  0.41976  0.08326  0.13021  1.0000
  H   H3        1.0  0.14185  0.52521  0.09512  1.0000
  H   H4        1.0  0.41931  0.11192  0.12105  1.0000
  C   C3        1.0  0.33670  0.38736  0.14015  1.0000
  C   C4        1.0  0.27742  0.34036  0.21357  1.0000
  C   C5        1.0  0.30799  0.36461  0.22100  1.0000
  C   C6        1.0  0.34590  0.35557  0.21191  1.0000
  C   C7        1.0  0.35365  0.32195  0.19571  1.0000
  C   C8        1.0  0.32355  0.29646  0.18982  1.0000
  C   C9        1.0  0.28546  0.30573  0.19871  1.0000
  H   H5        1.0  0.30233  0.39104  0.23276  1.0000
  H   H6        1.0  0.36909  0.37535  0.21664  1.0000
  H   H7        1.0  0.32930  0.27043  0.17735  1.0000
  H   H8        1.0  0.26195  0.28666  0.19310  1.0000
  C   C10       1.0  0.28379  0.41804  0.16470  1.0000
  H   H9        1.0  0.08186  0.50948  0.31678  1.0000
  H   H10       1.0  0.48051  0.11451  0.20302  1.0000
  C   C11       1.0  0.30828  0.44673  0.17551  1.0000
  H   H11       1.0  0.49882  0.29859  0.33511  1.0000
  C   C12       1.0  0.24073  0.50224  0.11671  1.0000
  C   C13       1.0  0.23943  0.50581  0.14855  1.0000
  H   H12       1.0  0.42746  0.30670  0.24319  1.0000
  H   H13       1.0  0.23150  0.47605  0.10595  1.0000
  H   H14       1.0  0.22889  0.48259  0.16217  1.0000
  H   H15       1.0  0.13608  0.49931  0.14791  1.0000
  H   H16       1.0  0.32391  0.07705  0.17772  1.0000
  S   S14       1.0  0.25349  0.52804  0.05883  1.0000
  C   C14       1.0  0.51476  0.21399  0.26190  1.0000
  C   C15       1.0  0.51212  0.21683  0.29366  1.0000
  H   H17       1.0  0.48914  0.20822  0.24893  1.0000
  C   C16       1.0  0.53524  0.31185  0.26637  1.0000
  C   C17       1.0  0.04585  0.45852  0.25937  1.0000
  C   C18       1.0  0.50322  0.11625  0.04235  1.0000
  C   C19       1.0  0.34760  0.44545  0.16831  1.0000
  C   C20       1.0  0.41255  0.03996  0.17275  1.0000
  H   H18       1.0  0.24683  0.35538  0.15111  1.0000
  C   C21       1.0  0.09848  0.49461  0.33421  1.0000
  C   C22       1.0  0.42650  0.05210  0.11079  1.0000
  H   H19       1.0  0.43132  0.05685  0.08673  1.0000
  C   C23       1.0  0.51324  0.21523  0.04749  1.0000
  H   H20       1.0  0.09852  0.44127  0.31002  1.0000
  C   C24       1.0  0.51770  0.31655  0.32049  1.0000
  C   C25       1.0  0.52534  0.30887  0.23551  1.0000
  H   H21       1.0  0.44638  0.31176  0.29756  1.0000
  H   H22       1.0  0.25338  0.41874  0.17089  1.0000
  H   H23       1.0  0.49530  0.08563  0.04258  1.0000
  C   C26       1.0  0.48640  0.30708  0.22717  1.0000
  C   C27       1.0  0.46875  0.31095  0.28025  1.0000
  N   N2        1.0  0.29818  0.38876  0.14743  1.0000
  C   C28       1.0  0.49547  0.11660  0.22473  1.0000
  H   H24       1.0  0.44335  0.11169  0.25115  1.0000
  H   H25       1.0  0.29688  0.46974  0.18950  1.0000
  C   C29       1.0  0.45785  0.30812  0.24960  1.0000
  C   C30       1.0  0.04892  0.41874  0.25970  1.0000
  H   H26       1.0  0.47833  0.30478  0.20334  1.0000
  H   H27       1.0  0.34829  0.36386  0.12684  1.0000
  H   H28       1.0  0.33158  0.05336  0.09650  1.0000
  H   H29       1.0  0.53583  0.13865  0.32737  1.0000
  H   H30       1.0  0.36684  0.46750  0.17664  1.0000
  H   H31       1.0  0.39267  0.41374  0.14533  1.0000
  H   H32       1.0  0.26092  0.36830  0.11275  1.0000
  H   H33       1.0  0.07651  0.40513  0.25508  1.0000
  H   H34       1.0  0.47798  0.11657  0.30075  1.0000
  C   C31       1.0  0.10796  0.45626  0.33032  1.0000
  C   C32       1.0  0.47463  0.11496  0.25188  1.0000
  H   H35       1.0  0.28685  0.33158  0.13370  1.0000
  C   C33       1.0  0.49437  0.11778  0.27972  1.0000
  C   C34       1.0  0.31478  0.07407  0.15350  1.0000
  C   C35       1.0  0.36202  0.41553  0.15061  1.0000
  C   C36       1.0  0.27187  0.35962  0.13553  1.0000
  H   H36       1.0  0.28354  0.08129  0.15144  1.0000
  H   H37       1.0  0.13868  0.40809  0.34870  1.0000
  S   S15       1.0  0.23733  0.46479  0.34419  1.0000
  H   H38       1.0  0.48130  0.13273  0.02909  1.0000
  H   H39       1.0  0.33202  0.09530  0.14053  1.0000
  C   C37       1.0  0.53556  0.12110  0.22563  1.0000
  H   H40       1.0  0.50175  0.12737  0.06608  1.0000
  C   C38       1.0  0.14499  0.52855  0.14424  1.0000
  N   N3        1.0  0.53373  0.12245  0.28040  1.0000
  S   S16       1.0  0.54095  0.22662  0.35093  1.0000
  H   H41       1.0  0.40689  0.03511  0.19669  1.0000
  N   N4        1.0  0.32197  0.03529  0.14229  1.0000
  C   C39       1.0  0.25309  0.53279  0.09868  1.0000
  N   N5        1.0  0.54181  0.12122  0.02903  1.0000
  C   C40       1.0  0.38854  0.23708  0.60641  1.0000
  H   H42       1.0  0.23908  0.53105  0.44259  1.0000
  Fe  Fe9       1.0  0.50177  0.14724  0.67428  1.0000
  H   H43       1.0  0.14274  0.50920  0.40230  1.0000
  C   C41       1.0  0.49708  0.04894  0.68033  1.0000
  N   N6        1.0  0.14258  0.45653  0.37789  1.0000
  C   C42       1.0  0.51688  0.07199  0.60497  1.0000
  C   C43       1.0  0.24007  0.50296  0.39867  1.0000
  Fe  Fe10      1.0  0.49569  0.20835  0.62539  1.0000
  S   S17       1.0  0.45323  0.16553  0.64325  1.0000
  S   S18       1.0  0.49587  0.22523  0.57569  1.0000
  C   C44       1.0  0.35932  0.32978  0.64189  1.0000
  H   H44       1.0  0.49224  0.08569  0.61717  1.0000
  C   C45       1.0  0.27102  0.51592  0.66040  1.0000
  H   H45       1.0  0.33533  0.34122  0.65506  1.0000
  H   H46       1.0  0.36777  0.23396  0.58725  1.0000
  H   H47       1.0  0.25573  0.47826  0.40702  1.0000
  S   S19       1.0  0.47972  0.25384  0.65919  1.0000
  H   H48       1.0  0.37953  0.21839  0.62559  1.0000
  H   H49       1.0  0.39215  0.38171  0.64371  1.0000
  C   C46       1.0  0.11090  0.51370  0.36034  1.0000
  C   C47       1.0  0.39128  0.35253  0.63548  1.0000
  C   C48       1.0  0.35916  0.29173  0.63231  1.0000
  H   H50       1.0  0.44496  0.28779  0.59625  1.0000
  H   H51       1.0  0.14553  0.47592  0.67186  1.0000
  C   C49       1.0  0.16600  0.43609  0.40060  1.0000
  H   H52       1.0  0.44731  0.35470  0.61385  1.0000
  H   H53       1.0  0.31185  0.50154  0.62491  1.0000
  C   C50       1.0  0.42219  0.33736  0.61888  1.0000
  H   H54       1.0  0.33488  0.27377  0.63845  1.0000
  C   C51       1.0  0.42074  0.29940  0.60910  1.0000
  C   C52       1.0  0.52992  0.21366  0.51998  1.0000
  H   H55       1.0  0.41742  0.22678  0.59869  1.0000
  N   N7        1.0  0.38978  0.27694  0.61638  1.0000
  H   H56       1.0  0.51874  0.08408  0.58161  1.0000
  H   H57       1.0  0.28741  0.50181  0.67822  1.0000
  C   C53       1.0  0.22872  0.50460  0.36792  1.0000
  H   H58       1.0  0.19211  0.42356  0.38953  1.0000
  H   H59       1.0  0.17652  0.45533  0.41894  1.0000
  H   H60       1.0  0.14875  0.41299  0.41116  1.0000
  H   H61       1.0  0.07834  0.44937  0.66180  1.0000
  C   C54       1.0  0.52692  0.20087  0.55021  1.0000
  C   C55       1.0  0.13270  0.49398  0.38227  1.0000
  H   H62       1.0  0.51353  0.23842  0.51270  1.0000
  Fe  Fe11      1.0  0.44060  0.20978  0.67925  1.0000
  H   H63       1.0  0.44379  0.08022  0.67390  1.0000
  C   C56       1.0  0.28489  0.51589  0.63026  1.0000
  C   C57       1.0  0.45723  0.05231  0.67505  1.0000
  C   C58       1.0  0.23070  0.53280  0.41885  1.0000
  S   S20       1.0  0.52686  0.08909  0.68381  1.0000
  C   C59       1.0  0.07165  0.45888  0.68472  1.0000
  C   C60       1.0  0.13046  0.43763  0.35236  1.0000
  Fe  Fe12      1.0  0.23906  0.48942  0.73481  1.0000
  S   S21       1.0  0.24046  0.43139  0.71369  1.0000
  Fe  Fe13      1.0  0.52504  0.22782  0.68940  1.0000
  Fe  Fe14      1.0  0.25564  0.45871  0.79871  1.0000
  S   S22       1.0  0.25713  0.39796  0.78238  1.0000
  S   S23       1.0  0.26991  0.46564  0.84864  1.0000
  Fe  Fe15      1.0  0.29222  0.42073  0.74358  1.0000
  S   S24       1.0  0.35076  0.39744  0.72963  1.0000
  Fe  Fe16      1.0  0.20520  0.41472  0.75448  1.0000
  S   S25       1.0  0.15101  0.38090  0.74642  1.0000
  S   S26       1.0  0.29398  0.48078  0.76150  1.0000
  S   S27       1.0  0.20059  0.47349  0.77398  1.0000
  H   H64       1.0  0.37567  0.42218  0.82950  1.0000
  N   N8        1.0  0.10082  0.46763  0.70467  1.0000
  C   C61       1.0  0.35778  0.34896  0.72107  1.0000
  C   C62       1.0  0.32689  0.32337  0.71958  1.0000
  H   H65       1.0  0.49518  0.24485  0.81083  1.0000
  C   C63       1.0  0.52699  0.25264  0.76898  1.0000
  C   C64       1.0  0.09243  0.47865  0.73385  1.0000
  C   C65       1.0  0.39553  0.33596  0.71534  1.0000
  H   H66       1.0  0.53788  0.17090  0.77405  1.0000
  C   C66       1.0  0.43204  0.33341  0.79201  1.0000
  H   H67       1.0  0.16137  0.47858  0.71049  1.0000
  C   C67       1.0  0.11129  0.39482  0.76892  1.0000
  C   C68       1.0  0.11664  0.41563  0.79581  1.0000
  H   H68       1.0  0.08868  0.44352  0.83374  1.0000
  H   H69       1.0  0.14560  0.42191  0.80370  1.0000
  C   C69       1.0  0.35228  0.33862  0.79855  1.0000
  C   C70       1.0  0.04679  0.41926  0.80299  1.0000
  H   H70       1.0  0.43171  0.28806  0.70364  1.0000
  C   C71       1.0  0.25350  0.50656  0.86811  1.0000
  C   C72       1.0  0.36908  0.30408  0.78933  1.0000
  H   H71       1.0  0.29767  0.33321  0.72406  1.0000
  H   H72       1.0  0.27981  0.48950  0.91062  1.0000
  H   H73       1.0  0.50182  0.24942  0.75454  1.0000
  H   H74       1.0  0.46325  0.33180  0.78909  1.0000
  S   S28       1.0  0.37931  0.22507  0.69282  1.0000
  H   H75       1.0  0.13203  0.50348  0.85009  1.0000
  C   C73       1.0  0.07367  0.38582  0.75936  1.0000
  H   H76       1.0  0.22414  0.53125  0.82947  1.0000
  H   H77       1.0  0.49058  0.20768  0.00206  1.0000
  C   C74       1.0  0.37160  0.27224  0.70534  1.0000
  H   H78       1.0  0.32887  0.40130  0.82581  1.0000
  H   H79       1.0  0.41956  0.35559  0.71673  1.0000
  H   H80       1.0  0.35101  0.27981  0.78379  1.0000
  C   C75       1.0  0.26211  0.51071  0.89922  1.0000
  S   S29       1.0  0.48489  0.18688  0.71215  1.0000
  C   C76       1.0  0.35679  0.40584  0.81372  1.0000
  C   C77       1.0  0.40923  0.30150  0.78617  1.0000
  H   H81       1.0  0.43206  0.39244  0.80502  1.0000
  H   H82       1.0  0.35105  0.42347  0.79315  1.0000
  C   C78       1.0  0.13703  0.50768  0.87428  1.0000
  H   H83       1.0  0.42255  0.27512  0.77843  1.0000
  H   H84       1.0  0.30981  0.26544  0.70988  1.0000
  H   H85       1.0  0.32099  0.34069  0.80014  1.0000
  C   C79       1.0  0.16842  0.48896  0.92113  1.0000
  N   N9        1.0  0.37490  0.36960  0.80478  1.0000
  C   C80       1.0  0.41424  0.36753  0.80111  1.0000
  C   C81       1.0  0.08444  0.42763  0.81289  1.0000
  C   C82       1.0  0.16135  0.48277  0.89021  1.0000
  H   H86       1.0  0.11553  0.48417  0.75003  1.0000
  H   H87       1.0  0.17569  0.45942  0.87840  1.0000
  C   C83       1.0  0.40246  0.29769  0.70775  1.0000
  H   H88       1.0  0.06940  0.36961  0.73865  1.0000
  C   C84       1.0  0.33383  0.28505  0.71162  1.0000
  H   H89       1.0  0.18829  0.47047  0.93346  1.0000
  C   C85       1.0  0.15130  0.52031  0.93567  1.0000
  C   C86       1.0  0.52320  0.25044  0.80082  1.0000
  C   C87       1.0  0.51618  0.21313  0.01562  1.0000
  H   H90       1.0  0.52238  0.10806  0.98408  1.0000
  H   H91       1.0  0.15795  0.52555  0.95945  1.0000
  C   C88       1.0  0.05393  0.48208  0.74348  1.0000
  C   C89       1.0  0.14122  0.46349  0.69489  1.0000
  H   H92       1.0  0.04729  0.49016  0.76677  1.0000
  H   H93       1.0  0.14948  0.43282  0.69456  1.0000
  C   C90       1.0  0.16709  0.58887  0.16393  1.0000
  H   H94       1.0  0.44675  0.76193  0.24171  1.0000
  C   C91       1.0  0.50933  0.87774  0.24901  1.0000
  H   H95       1.0  0.32467  0.94386  0.16713  1.0000
  H   H96       1.0  0.51159  0.74939  0.05272  1.0000
  C   C92       1.0  0.49363  0.80605  0.33672  1.0000
  S   S30       1.0  0.22976  0.63760  0.05799  1.0000
  Fe  Fe17      1.0  0.46006  0.88005  0.18043  1.0000
  S   S31       1.0  0.40279  0.89729  0.16014  1.0000
  S   S32       1.0  0.46680  0.89324  0.23057  1.0000
  Fe  Fe18      1.0  0.48981  0.85048  0.11941  1.0000
  S   S33       1.0  0.43494  0.86543  0.09470  1.0000
  C   C93       1.0  0.46894  0.74756  0.08847  1.0000
  Fe  Fe19      1.0  0.43823  0.91982  0.12143  1.0000
  S   S34       1.0  0.43166  0.97605  0.09727  1.0000
  Fe  Fe20      1.0  0.40539  0.84108  0.13568  1.0000
  S   S35       1.0  0.35463  0.80076  0.13676  1.0000
  S   S36       1.0  0.49532  0.90676  0.14333  1.0000
  S   S37       1.0  0.46027  0.82199  0.15889  1.0000
  C   C94       1.0  0.43220  0.73487  0.09678  1.0000
  C   C95       1.0  0.42648  0.01485  0.12234  1.0000
  C   C96       1.0  0.42014  0.00889  0.15346  1.0000
  C   C97       1.0  0.32930  0.02940  0.11201  1.0000
  H   H97       1.0  0.42037  0.98028  0.16260  1.0000
  C   C98       1.0  0.39999  0.68662  0.02488  1.0000
  C   C99       1.0  0.50610  0.82906  0.03934  1.0000
  H   H98       1.0  0.42754  0.83245  0.28321  1.0000
  N   N10       1.0  0.47520  0.79469  0.27561  1.0000
  H   H99       1.0  0.21491  0.64178  0.12717  1.0000
  C   C100      1.0  0.33839  0.77816  0.10319  1.0000
  C   C101      1.0  0.35256  0.78850  0.07455  1.0000
  C   C102      1.0  0.34043  0.76867  0.04838  1.0000
  C   C103      1.0  0.31417  0.73836  0.05067  1.0000
  C   C104      1.0  0.29955  0.72838  0.07925  1.0000
  C   C105      1.0  0.31158  0.74832  0.10542  1.0000
  H   H100      1.0  0.37305  0.81153  0.07252  1.0000
  C   C106      1.0  0.51660  0.78230  0.31867  1.0000
  H   H101      1.0  0.27935  0.70506  0.08124  1.0000
  H   H102      1.0  0.30043  0.74027  0.12752  1.0000
  H   H103      1.0  0.35174  0.77658  0.02630  1.0000
  C   C107      1.0  0.16037  0.58059  0.11046  1.0000
  H   H104      1.0  0.17521  0.66097  0.14938  1.0000
  H   H105      1.0  0.27420  0.59586  0.15531  1.0000
  H   H106      1.0  0.50482  0.92223  0.07263  1.0000
  C   C108      1.0  0.45225  0.81775  0.29320  1.0000
  H   H107      1.0  0.27549  0.58993  0.09897  1.0000
  C   C109      1.0  0.46115  0.82386  0.32397  1.0000
  H   H108      1.0  0.47896  0.83020  0.05129  1.0000
  C   C110      1.0  0.41023  0.71394  0.07585  1.0000
  N   N11       1.0  0.16910  0.60315  0.13494  1.0000
  Fe  Fe21      1.0  0.24042  0.58250  0.03357  1.0000
  C   C111      1.0  0.50685  0.77680  0.28802  1.0000
  S   S38       1.0  0.11855  0.64922  0.05441  1.0000
  C   C112      1.0  0.31966  0.00504  0.16191  1.0000
  C   C113      1.0  0.50548  0.92713  0.02369  1.0000
  H   H109      1.0  0.49137  0.78421  0.22944  1.0000
  H   H110      1.0  0.16944  0.65479  0.10923  1.0000
  H   H111      1.0  0.34275  0.98800  0.07703  1.0000
  C   C114      1.0  0.07737  0.64506  0.03084  1.0000
  C   C115      1.0  0.33531  0.99251  0.10078  1.0000
  C   C116      1.0  0.32562  0.96777  0.15145  1.0000
  C   C117      1.0  0.51488  0.88664  0.27989  1.0000
  S   S39       1.0  0.25059  0.54461  0.20245  1.0000
  H   H112      1.0  0.47421  0.92944  0.02174  1.0000
  C   C118      1.0  0.54094  0.82567  0.05548  1.0000
  H   H113      1.0  0.44874  0.81245  0.23381  1.0000
  C   C119      1.0  0.26451  0.56981  0.14457  1.0000
  H   H114      1.0  0.33938  0.93292  0.11238  1.0000
  H   H115      1.0  0.44345  0.84288  0.33767  1.0000
  C   C120      1.0  0.46495  0.78781  0.24362  1.0000
  H   H116      1.0  0.52555  0.75913  0.27400  1.0000
  H   H117      1.0  0.17597  0.60599  0.18328  1.0000
  C   C121      1.0  0.52267  0.92306  0.05231  1.0000
  N   N12       1.0  0.42414  0.70657  0.04725  1.0000
  C   C122      1.0  0.18293  0.64209  0.12999  1.0000
  C   C123      1.0  0.14815  0.54302  0.11471  1.0000
  H   H118      1.0  0.42039  0.74179  0.11905  1.0000
  H   H119      1.0  0.38153  0.70454  0.08241  1.0000
  Fe  Fe22      1.0  0.17515  0.63973  0.03016  1.0000
  H   H120      1.0  0.49433  0.90496  0.29144  1.0000
  C   C124      1.0  0.33365  0.96157  0.12069  1.0000
  H   H121      1.0  0.16311  0.59148  0.08741  1.0000
  C   C125      1.0  0.53602  0.85423  0.23409  1.0000
  C   C126      1.0  0.26495  0.56662  0.11268  1.0000
  H   H122      1.0  0.48631  0.76393  0.10438  1.0000
  H   H123      1.0  0.31389  0.00967  0.18592  1.0000
  H   H124      1.0  0.20002  0.53840  0.33366  1.0000
  C   C127      1.0  0.48308  0.73951  0.05940  1.0000
  H   H125      1.0  0.53208  0.84750  0.21022  1.0000
  C   C128      1.0  0.25164  0.53945  0.16258  1.0000
  C   C129      1.0  0.15453  0.55156  0.16905  1.0000
  S   S40       1.0  0.54179  0.82543  0.09559  1.0000
  H   H126      1.0  0.15340  0.54028  0.19208  1.0000
  C   C130      1.0  0.45992  0.71940  0.03878  1.0000
  H   H127      1.0  0.37555  0.67133  0.03589  1.0000
  S   S41       1.0  0.19202  0.57431  0.52168  1.0000
  S   S42       1.0  0.12531  0.65090  0.56466  1.0000
  Fe  Fe23      1.0  0.21624  0.60659  0.48174  1.0000
  C   C131      1.0  0.18343  0.64561  0.65878  1.0000
  S   S43       1.0  0.20085  0.66419  0.50077  1.0000
  C   C132      1.0  0.49174  0.97996  0.67809  1.0000
  H   H128      1.0  0.44183  0.96382  0.59765  1.0000
  H   H129      1.0  0.42160  0.68386  0.57383  1.0000
  C   C133      1.0  0.35744  0.61216  0.57105  1.0000
  H   H130      1.0  0.35048  0.64888  0.51900  1.0000
  H   H131      1.0  0.19172  0.74936  0.60975  1.0000
  C   C134      1.0  0.35751  0.60120  0.60172  1.0000
  Fe  Fe24      1.0  0.18050  0.63217  0.54162  1.0000
  Fe  Fe25      1.0  0.25939  0.66333  0.52275  1.0000
  S   S44       1.0  0.27707  0.60838  0.50035  1.0000
  S   S45       1.0  0.29747  0.71545  0.52144  1.0000
  Fe  Fe26      1.0  0.25123  0.58137  0.54217  1.0000
  H   H132      1.0  0.18342  0.59106  0.36910  1.0000
  S   S46       1.0  0.23768  0.63655  0.56560  1.0000
  H   H133      1.0  0.48950  0.83278  0.55145  1.0000
  H   H134      1.0  0.50142  0.81121  0.36037  1.0000
  Fe  Fe27      1.0  0.51210  0.84544  0.61857  1.0000
  S   S47       1.0  0.44825  0.85616  0.61284  1.0000
  H   H135      1.0  0.17994  0.71074  0.58408  1.0000
  H   H136      1.0  0.40080  0.63470  0.51618  1.0000
  Fe  Fe28      1.0  0.45398  0.88616  0.65794  1.0000
  Fe  Fe29      1.0  0.44127  0.80264  0.64066  1.0000
  S   S48       1.0  0.39911  0.75356  0.63740  1.0000
  H   H137      1.0  0.38704  0.68316  0.52610  1.0000
  S   S49       1.0  0.50505  0.78937  0.64264  1.0000
  H   H138      1.0  0.33890  0.59705  0.55515  1.0000
  S   S50       1.0  0.52592  0.83635  0.44349  1.0000
  H   H139      1.0  0.22903  0.72591  0.58747  1.0000
  C   C135      1.0  0.51093  0.84186  0.53505  1.0000
  N   N13       1.0  0.38009  0.64165  0.56134  1.0000
  C   C136      1.0  0.22917  0.55301  0.61423  1.0000
  C   C137      1.0  0.21533  0.55293  0.64425  1.0000
  H   H140      1.0  0.33915  0.57804  0.60932  1.0000
  H   H141      1.0  0.21242  0.56671  0.59647  1.0000
  C   C138      1.0  0.36880  0.74657  0.60571  1.0000
  C   C139      1.0  0.37372  0.76668  0.57850  1.0000
  C   C140      1.0  0.35092  0.75761  0.55290  1.0000
  C   C141      1.0  0.32345  0.72830  0.55440  1.0000
  C   C142      1.0  0.31829  0.70865  0.58176  1.0000
  C   C143      1.0  0.34066  0.71799  0.60737  1.0000
  H   H142      1.0  0.39543  0.78875  0.57705  1.0000
  H   H143      1.0  0.35501  0.77295  0.53175  1.0000
  H   H144      1.0  0.29775  0.68572  0.58305  1.0000
  H   H145      1.0  0.33718  0.70214  0.62833  1.0000
  C   C144      1.0  0.08390  0.63081  0.54777  1.0000
  C   C145      1.0  0.08780  0.60580  0.52320  1.0000
  H   H146      1.0  0.11608  0.59801  0.51496  1.0000
  C   C146      1.0  0.40473  0.64997  0.61220  1.0000
  N   N14       1.0  0.07681  0.67067  0.46944  1.0000
  H   H147      1.0  0.47759  0.82364  0.49599  1.0000
  H   H148      1.0  0.27682  0.66677  0.67618  1.0000
  C   C147      1.0  0.19926  0.56649  0.37744  1.0000
  S   S51       1.0  0.51823  0.87867  0.66196  1.0000
  C   C148      1.0  0.47073  0.97589  0.59855  1.0000
  C   C149      1.0  0.47577  0.01534  0.60102  1.0000
  H   H149      1.0  0.09437  0.72664  0.48118  1.0000
  C   C150      1.0  0.54007  0.96761  0.60071  1.0000
  H   H150      1.0  0.11331  0.60845  0.41793  1.0000
  C   C151      1.0  0.09181  0.62439  0.43077  1.0000
  S   S52       1.0  0.19451  0.60107  0.43312  1.0000
  C   C152      1.0  0.40401  0.66011  0.58135  1.0000
  H   H151      1.0  0.13438  0.65572  0.45594  1.0000
  N   N15       1.0  0.51211  0.03049  0.60355  1.0000
  H   H152      1.0  0.05830  0.57227  0.48941  1.0000
  H   H153      1.0  0.11715  0.68900  0.50317  1.0000
  C   C153      1.0  0.05494  0.59138  0.50860  1.0000
  C   C154      1.0  0.37983  0.65250  0.52907  1.0000
  H   H154      1.0  0.06824  0.70160  0.51086  1.0000
  H   H155      1.0  0.38118  0.61244  0.64632  1.0000
  H   H156      1.0  0.18790  0.56633  0.64938  1.0000
  C   C155      1.0  0.50427  0.83662  0.50368  1.0000
  S   S53       1.0  0.42348  0.94226  0.66645  1.0000
  N   N16       1.0  0.20785  0.69441  0.62563  1.0000
  C   C156      1.0  0.17821  0.67131  0.63471  1.0000
  C   C157      1.0  0.24259  0.69362  0.64072  1.0000
  H   H157      1.0  0.40379  0.02195  0.66739  1.0000
  C   C158      1.0  0.05236  0.61791  0.42629  1.0000
  C   C159      1.0  0.04675  0.64139  0.55770  1.0000
  C   C160      1.0  0.20182  0.72154  0.60059  1.0000
  H   H158      1.0  0.15033  0.67243  0.62325  1.0000
  H   H159      1.0  0.26556  0.71295  0.63427  1.0000
  H   H160      1.0  0.49970  0.92138  0.59642  1.0000
  H   H161      1.0  0.04272  0.59651  0.41016  1.0000
  C   C161      1.0  0.50314  0.95200  0.59828  1.0000
  C   C162      1.0  0.08973  0.69854  0.49214  1.0000
  C   C163      1.0  0.38121  0.62037  0.62241  1.0000
  S   S54       1.0  0.28326  0.53761  0.57009  1.0000
  C   C164      1.0  0.45195  0.98307  0.67264  1.0000
  C   C165      1.0  0.20997  0.56452  0.40830  1.0000
  H   H162      1.0  0.42253  0.66586  0.62820  1.0000
  H   H163      1.0  0.50538  0.95242  0.67942  1.0000
  C   C166      1.0  0.43465  0.01934  0.67144  1.0000
  C   C167      1.0  0.10360  0.65120  0.45245  1.0000
  C   C168      1.0  0.51418  0.01274  0.68204  1.0000
  C   C169      1.0  0.53252  0.84707  0.48235  1.0000
  C   C170      1.0  0.21924  0.64354  0.67353  1.0000
  S   S55       1.0  0.44075  0.83391  0.68530  1.0000
  C   C171      1.0  0.24901  0.66786  0.66461  1.0000
  C   C172      1.0  0.20874  0.53672  0.35728  1.0000
  H   H164      1.0  0.16000  0.62701  0.66568  1.0000
  H   H165      1.0  0.10434  0.54370  0.36334  1.0000
  H   H166      1.0  0.04352  0.66088  0.57665  1.0000
  C   C173      1.0  0.23654  0.53510  0.66749  1.0000
  C   C174      1.0  0.26427  0.53497  0.60723  1.0000
  H   H167      1.0  0.45037  0.03367  0.60162  1.0000
  H   H168      1.0  0.48797  0.90599  0.72247  1.0000
  C   C175      1.0  0.49378  0.91975  0.79045  1.0000
  Fe  Fe30      1.0  0.21576  0.61464  0.97187  1.0000
  S   S56       1.0  0.20189  0.60634  0.92187  1.0000
  S   S57       1.0  0.18396  0.58289  0.00832  1.0000
  H   H169      1.0  0.47080  0.81427  0.80690  1.0000
  C   C176      1.0  0.49512  0.86614  0.82493  1.0000
  H   H170      1.0  0.50188  0.94892  0.78547  1.0000
  C   C177      1.0  0.21604  0.56527  0.87006  1.0000
  S   S58       1.0  0.27363  0.60899  0.99496  1.0000
  C   C178      1.0  0.50620  0.83003  0.00739  1.0000
  C   C179      1.0  0.50407  0.90408  0.81870  1.0000
  S   S59       1.0  0.30281  0.71202  0.01764  1.0000
  H   H171      1.0  0.05010  0.64379  0.95612  1.0000
  H   H172      1.0  0.25387  0.54468  0.93985  1.0000
  H   H173      1.0  0.10903  0.64803  0.98868  1.0000
  C   C180      1.0  0.47645  0.84424  0.80282  1.0000
  C   C181      1.0  0.11010  0.57778  0.93511  1.0000
  C   C182      1.0  0.46675  0.86077  0.77477  1.0000
  H   H174      1.0  0.12501  0.58448  0.95693  1.0000
  C   C183      1.0  0.52864  0.92710  0.99764  1.0000
  H   H175      1.0  0.47065  0.71431  0.01590  1.0000
  H   H176      1.0  0.46386  0.94618  0.73986  1.0000
  S   S60       1.0  0.20214  0.67225  0.99177  1.0000
  H   H177      1.0  0.50392  0.85337  0.84643  1.0000
  C   C184      1.0  0.04744  0.64276  0.98066  1.0000
  H   H178      1.0  0.19804  0.58631  0.85874  1.0000
  H   H179      1.0  0.43688  0.90436  0.73090  1.0000
  H   H180      1.0  0.11287  0.60383  0.92082  1.0000
  H   H181      1.0  0.51562  0.92891  0.97515  1.0000
  C   C185      1.0  0.46551  0.91452  0.73919  1.0000
  H   H182      1.0  0.07907  0.57223  0.93989  1.0000
  H   H183      1.0  0.41722  0.66520  0.01202  1.0000
  H   H184      1.0  0.45372  0.84310  0.75724  1.0000
  H   H185      1.0  0.47915  0.83286  0.99505  1.0000
  C   C186      1.0  0.24752  0.54194  0.91579  1.0000
  C   C187      1.0  0.22407  0.56906  0.90129  1.0000
  N   N17       1.0  0.47484  0.89825  0.76911  1.0000
  C   C188      1.0  0.08079  0.64514  0.99905  1.0000
  C   C189      1.0  0.54119  0.82818  0.99139  1.0000
  S   S61       1.0  0.22015  0.53868  0.70531  1.0000
  H   H186      1.0  0.22386  0.62304  0.69181  1.0000
  S   S62       1.0  0.53085  0.80030  0.72910  1.0000
  H   H187      1.0  0.38719  0.70751  0.00860  1.0000
  H   H188      1.0  0.52026  0.92078  0.83519  1.0000
  S   S63       1.0  0.54061  0.83224  0.95149  1.0000
  Fe  Fe31      1.0  0.25813  0.66481  0.01753  1.0000
  H   H189      1.0  0.10226  0.55855  0.87687  1.0000
  N   N18       1.0  0.12793  0.54494  0.91976  1.0000
  Fe  Fe32      1.0  0.50484  0.82390  0.68572  1.0000
  C   C190      1.0  0.12044  0.53880  0.88952  1.0000
  C   C191      1.0  0.23074  0.53413  0.85347  1.0000
  C   C192      1.0  0.57259  0.13096  0.04709  1.0000
  Fe  Fe33      1.0  0.79360  0.40454  0.28616  1.0000
  S   S64       1.0  0.77967  0.46438  0.27138  1.0000
  S   S65       1.0  0.74002  0.37048  0.29791  1.0000
  Fe  Fe34      1.0  0.87999  0.41615  0.27475  1.0000
  S   S66       1.0  0.87228  0.47667  0.25903  1.0000
  S   S67       1.0  0.93795  0.38566  0.27429  1.0000
  Fe  Fe35      1.0  0.83160  0.48102  0.29895  1.0000
  H   H190      1.0  0.01802  0.36569  0.26471  1.0000
  Fe  Fe36      1.0  0.82121  0.45450  0.23307  1.0000
  S   S68       1.0  0.80402  0.46772  0.18441  1.0000
  S   S69       1.0  0.84278  0.42186  0.31670  1.0000
  S   S70       1.0  0.83156  0.39326  0.24569  1.0000
  H   H191      1.0  0.85990  0.37604  0.17152  1.0000
  C   C193      1.0  0.97978  0.41391  0.27065  1.0000
  C   C194      1.0  0.01583  0.39648  0.26519  1.0000
  H   H192      1.0  0.97031  0.49965  0.15125  1.0000
  S   S71       1.0  0.64432  0.07631  0.34437  1.0000
  C   C195      1.0  0.70967  0.14850  0.30322  1.0000
  H   H193      1.0  0.67777  0.32354  0.31729  1.0000
  C   C196      1.0  0.82914  0.50220  0.16320  1.0000
  C   C197      1.0  0.85881  0.52383  0.17619  1.0000
  C   C198      1.0  0.58235  0.22700  0.05048  1.0000
  H   H194      1.0  0.96011  0.42731  0.21179  1.0000
  H   H195      1.0  0.54429  0.22421  0.08947  1.0000
  H   H196      1.0  0.58552  0.12754  0.25428  1.0000
  H   H197      1.0  0.56563  0.31284  0.27266  1.0000
  C   C199      1.0  0.91083  0.45381  0.14917  1.0000
  H   H198      1.0  0.60803  0.23212  0.06404  1.0000
  C   C200      1.0  0.73556  0.49759  0.34724  1.0000
  C   C201      1.0  0.58123  0.22689  0.29675  1.0000
  C   C202      1.0  0.58379  0.22425  0.26486  1.0000
  H   H199      1.0  0.56855  0.13645  0.07120  1.0000
  H   H200      1.0  0.74468  0.44064  0.33077  1.0000
  C   C203      1.0  0.96545  0.48623  0.17388  1.0000
  C   C204      1.0  0.93864  0.42678  0.19379  1.0000
  C   C205      1.0  0.73907  0.33201  0.32366  1.0000
  C   C206      1.0  0.88261  0.42533  0.14850  1.0000
  H   H201      1.0  0.79733  0.49005  0.12201  1.0000
  C   C207      1.0  0.70354  0.31407  0.32925  1.0000
  C   C208      1.0  0.74047  0.45825  0.35081  1.0000
  H   H202      1.0  0.85985  0.42599  0.13139  1.0000
  C   C209      1.0  0.00998  0.47585  0.26520  1.0000
  H   H203      1.0  0.69659  0.12047  0.30470  1.0000
  C   C210      1.0  0.88252  0.39740  0.17112  1.0000
  H   H204      1.0  0.77367  0.20432  0.33964  1.0000
  H   H205      1.0  0.00751  0.50663  0.26522  1.0000
  C   C211      1.0  0.71496  0.20925  0.27767  1.0000
  C   C212      1.0  0.97718  0.45367  0.27114  1.0000
  C   C213      1.0  0.55407  0.12449  0.30977  1.0000
  C   C214      1.0  0.74240  0.22037  0.29924  1.0000
  H   H206      1.0  0.91112  0.37639  0.21162  1.0000
  H   H207      1.0  0.54790  0.30666  0.32485  1.0000
  N   N19       1.0  0.93823  0.45437  0.17177  1.0000
  C   C215      1.0  0.82024  0.50678  0.13218  1.0000
  H   H208      1.0  0.73700  0.51038  0.32473  1.0000
  C   C216      1.0  0.91099  0.39780  0.19373  1.0000
  C   C217      1.0  0.60943  0.13582  0.03447  1.0000
  N   N20       1.0  0.73561  0.16022  0.32489  1.0000
  H   H209      1.0  0.70636  0.22879  0.25965  1.0000
  C   C218      1.0  0.75268  0.19523  0.32269  1.0000
  H   H210      1.0  0.94990  0.46743  0.27602  1.0000
  H   H211      1.0  0.61149  0.22781  0.25374  1.0000
  H   H212      1.0  0.90976  0.47620  0.13211  1.0000
  H   H213      1.0  0.95362  0.50820  0.18963  1.0000
  H   H214      1.0  0.54770  0.30710  0.21818  1.0000
  H   H215      1.0  0.67740  0.16399  0.26273  1.0000
  H   H216      1.0  0.75517  0.24860  0.29819  1.0000
  C   C219      1.0  0.69867  0.17296  0.27945  1.0000
  H   H217      1.0  0.60680  0.23324  0.30998  1.0000
  S   S72       1.0  0.55429  0.21576  0.20731  1.0000
  H   H218      1.0  0.79979  0.33335  0.33497  1.0000
  H   H219      1.0  0.77380  0.11991  0.34507  1.0000
  C   C220      1.0  0.55046  0.21802  0.24729  1.0000
  C   C221      1.0  0.54535  0.22297  0.31119  1.0000
  C   C222      1.0  0.77225  0.31974  0.33923  1.0000
  H   H220      1.0  0.56210  0.09537  0.31765  1.0000
  H   H221      1.0  0.55184  0.12342  0.20458  1.0000
  H   H222      1.0  0.63340  0.14545  0.04848  1.0000
  C   C223      1.0  0.54634  0.22250  0.06491  1.0000
  C   C224      1.0  0.55439  0.12369  0.25383  1.0000
  H   H223      1.0  0.58095  0.14165  0.30797  1.0000
  H   H224      1.0  0.99407  0.47648  0.18275  1.0000
  H   H225      1.0  0.86577  0.52054  0.20009  1.0000
  S   S73       1.0  0.64489  0.18523  0.35194  1.0000
  C   C225      1.0  0.70101  0.28418  0.35042  1.0000
  C   C226      1.0  0.74614  0.13486  0.35019  1.0000
  C   C227      1.0  0.84119  0.53245  0.11409  1.0000
  Fe  Fe37      1.0  0.63896  0.12823  0.37397  1.0000
  S   S74       1.0  0.58193  0.14135  0.39558  1.0000
  C   C228      1.0  0.81899  0.52439  0.43101  1.0000
  Fe  Fe38      1.0  0.67474  0.20295  0.39491  1.0000
  S   S75       1.0  0.62048  0.22252  0.41879  1.0000
  S   S76       1.0  0.73185  0.23381  0.39213  1.0000
  Fe  Fe39      1.0  0.61682  0.16185  0.43554  1.0000
  S   S77       1.0  0.60545  0.13751  0.48251  1.0000
  Fe  Fe40      1.0  0.59051  0.20009  0.37678  1.0000
  S   S78       1.0  0.67380  0.14405  0.41498  1.0000
  C   C229      1.0  0.78949  0.51328  0.56137  1.0000
  H   H226      1.0  0.73678  0.45192  0.42719  1.0000
  H   H227      1.0  0.00959  0.45491  0.67790  1.0000
  C   C230      1.0  0.82855  0.49443  0.38155  1.0000
  C   C231      1.0  0.73043  0.50382  0.40183  1.0000
  C   C232      1.0  0.82538  0.46557  0.63230  1.0000
  C   C233      1.0  0.73405  0.27215  0.36627  1.0000
  C   C234      1.0  0.57536  0.16259  0.50826  1.0000
  C   C235      1.0  0.73565  0.46437  0.40458  1.0000
  H   H228      1.0  0.87440  0.42778  0.63699  1.0000
  C   C236      1.0  0.85667  0.44439  0.62131  1.0000
  C   C237      1.0  0.91621  0.51224  0.64035  1.0000
  C   C238      1.0  0.82685  0.53011  0.36734  1.0000
  C   C239      1.0  0.64925  0.04712  0.47986  1.0000
  H   H229      1.0  0.56427  0.04093  0.39901  1.0000
  C   C240      1.0  0.76967  0.28994  0.36060  1.0000
  H   H230      1.0  0.68863  0.06430  0.39988  1.0000
  C   C241      1.0  0.74746  0.40105  0.38208  1.0000
  H   H231      1.0  0.72267  0.38533  0.37196  1.0000
  H   H232      1.0  0.79538  0.28058  0.37271  1.0000
  C   C242      1.0  0.57219  0.14963  0.53845  1.0000
  H   H233      1.0  0.85116  0.47010  0.54686  1.0000
  H   H234      1.0  0.74951  0.15144  0.37168  1.0000
  H   H235      1.0  0.76015  0.50084  0.55903  1.0000
  C   C243      1.0  0.80401  0.48850  0.61222  1.0000
  H   H236      1.0  0.58864  0.12492  0.54572  1.0000
  C   C244      1.0  0.84366  0.46887  0.57085  1.0000
  C   C245      1.0  0.87144  0.52486  0.68157  1.0000
  S   S79       1.0  0.81004  0.52029  0.47028  1.0000
  H   H237      1.0  0.89072  0.43025  0.58175  1.0000
  H   H238      1.0  0.82534  0.46387  0.42417  1.0000
  S   S80       1.0  0.54527  0.18679  0.65358  1.0000
  H   H239      1.0  0.63113  0.05742  0.49912  1.0000
  H   H240      1.0  0.60346  0.07603  0.43694  1.0000
  H   H241      1.0  0.83241  0.46900  0.36812  1.0000
  H   H242      1.0  0.78072  0.50610  0.62115  1.0000
  C   C246      1.0  0.90332  0.50480  0.67008  1.0000
  H   H243      1.0  0.72329  0.11322  0.35443  1.0000
  H   H244      1.0  0.94095  0.49689  0.63139  1.0000
  N   N21       1.0  0.74098  0.44222  0.37922  1.0000
  H   H245      1.0  0.75091  0.39191  0.40618  1.0000
  C   C247      1.0  0.82449  0.49156  0.41332  1.0000
  C   C248      1.0  0.68022  0.03693  0.39089  1.0000
  N   N22       1.0  0.81323  0.48985  0.58193  1.0000
  C   C249      1.0  0.65888  0.03475  0.36380  1.0000
  C   C250      1.0  0.86599  0.44605  0.59040  1.0000
  C   C251      1.0  0.73067  0.52048  0.37295  1.0000
  C   C252      1.0  0.60312  0.04513  0.43748  1.0000
  H   H246      1.0  0.80239  0.51541  0.53823  1.0000
  H   H247      1.0  0.81877  0.46541  0.65648  1.0000
  C   C253      1.0  0.54821  0.16881  0.55943  1.0000
  H   H248      1.0  0.77431  0.39271  0.36974  1.0000
  H   H249      1.0  0.72805  0.52148  0.42207  1.0000
  H   H250      1.0  0.55637  0.20488  0.47588  1.0000
  H   H251      1.0  0.54623  0.15890  0.58270  1.0000
  H   H252      1.0  0.67345  0.27063  0.35462  1.0000
  C   C254      1.0  0.55420  0.19471  0.49909  1.0000
  H   H253      1.0  0.66221  0.07247  0.46861  1.0000
  H   H254      1.0  0.54341  0.07979  0.61795  1.0000
  Fe  Fe41      1.0  0.66786  0.18002  0.89725  1.0000
  S   S81       1.0  0.60848  0.18768  0.91679  1.0000
  S   S82       1.0  0.68893  0.12405  0.87854  1.0000
  Fe  Fe42      1.0  0.68761  0.26442  0.90227  1.0000
  S   S83       1.0  0.62933  0.27926  0.92190  1.0000
  S   S84       1.0  0.73515  0.30867  0.90098  1.0000
  Fe  Fe43      1.0  0.63717  0.22669  0.95048  1.0000
  S   S85       1.0  0.63160  0.22588  0.00178  1.0000
  Fe  Fe44      1.0  0.60590  0.23926  0.88629  1.0000
  H   H255      1.0  0.74095  0.45430  0.81820  1.0000
  S   S86       1.0  0.69722  0.21442  0.93333  1.0000
  S   S87       1.0  0.66362  0.22873  0.86428  1.0000
  Fe  Fe45      1.0  0.87200  0.39976  0.78347  1.0000
  S   S88       1.0  0.84904  0.45294  0.76106  1.0000
  S   S89       1.0  0.83418  0.34725  0.78409  1.0000
  Fe  Fe46      1.0  0.94982  0.43649  0.79899  1.0000
  S   S90       1.0  0.93242  0.49233  0.77836  1.0000
  S   S91       1.0  0.00696  0.43657  0.82388  1.0000
  Fe  Fe47      1.0  0.87552  0.48247  0.80150  1.0000
  C   C255      1.0  0.86722  0.27854  0.84434  1.0000
  Fe  Fe48      1.0  0.90824  0.45732  0.74008  1.0000
  S   S92       1.0  0.56942  0.26034  0.71624  1.0000
  S   S93       1.0  0.89473  0.42909  0.82515  1.0000
  S   S94       1.0  0.92943  0.40155  0.75933  1.0000
  H   H256      1.0  0.94000  0.50131  0.95005  1.0000
  H   H257      1.0  0.58713  0.11633  0.96070  1.0000
  C   C256      1.0  0.94476  0.51217  0.87312  1.0000
  H   H258      1.0  0.85479  0.25452  0.80029  1.0000
  H   H259      1.0  0.01260  0.39140  0.76855  1.0000
  C   C257      1.0  0.72059  0.41352  0.90275  1.0000
  C   C258      1.0  0.84725  0.49154  0.88103  1.0000
  C   C259      1.0  0.81789  0.23129  0.83547  1.0000
  S   S95       1.0  0.82978  0.51744  0.96964  1.0000
  H   H260      1.0  0.85310  0.46620  0.86808  1.0000
  H   H261      1.0  0.62360  0.27039  0.76496  1.0000
  N   N23       1.0  0.80778  0.23245  0.86561  1.0000
  H   H262      1.0  0.55432  0.21561  0.97665  1.0000
  C   C260      1.0  0.59182  0.26217  0.80668  1.0000
  H   H263      1.0  0.77997  0.19967  0.90015  1.0000
  C   C261      1.0  0.77484  0.21010  0.87655  1.0000
  C   C262      1.0  0.82626  0.25668  0.88522  1.0000
  C   C263      1.0  0.93930  0.51504  0.92789  1.0000
  H   H264      1.0  0.76492  0.49645  0.83153  1.0000
  C   C264      1.0  0.59556  0.26464  0.77491  1.0000
  C   C265      1.0  0.75938  0.32166  0.86736  1.0000
  C   C266      1.0  0.75094  0.30471  0.83931  1.0000
  C   C267      1.0  0.77315  0.31386  0.81351  1.0000
  C   C268      1.0  0.80343  0.34033  0.81557  1.0000
  C   C269      1.0  0.81072  0.35838  0.84338  1.0000
  C   C270      1.0  0.78906  0.34873  0.86925  1.0000
  H   H265      1.0  0.72787  0.28407  0.83758  1.0000
  H   H266      1.0  0.76730  0.29994  0.79198  1.0000
  H   H267      1.0  0.83414  0.37849  0.84532  1.0000
  H   H268      1.0  0.79581  0.36181  0.89096  1.0000
  C   C271      1.0  0.67711  0.08403  0.90087  1.0000
  C   C272      1.0  0.65861  0.05565  0.94921  1.0000
  H   H269      1.0  0.61678  0.26661  0.82104  1.0000
  C   C273      1.0  0.74215  0.47545  0.91930  1.0000
  H   H270      1.0  0.66570  0.11617  0.94162  1.0000
  C   C274      1.0  0.56579  0.16225  0.78321  1.0000
  C   C275      1.0  0.94665  0.49413  0.90142  1.0000
  H   H271      1.0  0.66562  0.13452  0.81635  1.0000
  H   H272      1.0  0.70845  0.38572  0.90781  1.0000
  C   C276      1.0  0.54681  0.11552  0.99842  1.0000
  S   S96       1.0  0.55081  0.24847  0.85933  1.0000
  C   C277      1.0  0.76141  0.46534  0.83565  1.0000
  H   H273      1.0  0.88936  0.29758  0.83569  1.0000
  S   S97       1.0  0.92577  0.46809  0.69114  1.0000
  C   C278      1.0  0.83466  0.52141  0.92999  1.0000
  H   H274      1.0  0.74845  0.22830  0.87656  1.0000
  H   H275      1.0  0.87038  0.29969  0.89038  1.0000
  N   N24       1.0  0.59559  0.15281  0.76409  1.0000
  H   H276      1.0  0.95013  0.49606  0.85240  1.0000
  C   C279      1.0  0.85649  0.27979  0.87497  1.0000
  H   H277      1.0  0.84715  0.46168  0.92401  1.0000
  C   C280      1.0  0.84339  0.48892  0.91277  1.0000
  H   H278      1.0  0.80208  0.21345  0.81962  1.0000
  C   C281      1.0  0.66663  0.08810  0.93149  1.0000
  H   H279      1.0  0.76939  0.18466  0.86206  1.0000
  H   H280      1.0  0.61161  0.15066  0.85132  1.0000
  C   C282      1.0  0.84781  0.25422  0.82441  1.0000
  C   C283      1.0  0.56332  0.25931  0.75598  1.0000
  S   S98       1.0  0.84652  0.53083  0.82657  1.0000
  H   H281      1.0  0.81669  0.25921  0.90870  1.0000
  C   C284      1.0  0.72634  0.43994  0.92608  1.0000
  H   H282      1.0  0.86140  0.51936  0.70449  1.0000
  C   C285      1.0  0.60706  0.15122  0.82684  1.0000
  C   C286      1.0  0.73152  0.42274  0.87296  1.0000
  H   H283      1.0  0.95346  0.46393  0.90272  1.0000
  H   H284      1.0  0.76454  0.51156  0.88418  1.0000
  C   C287      1.0  0.63743  0.14222  0.80716  1.0000
  C   C288      1.0  0.57101  0.16143  0.81486  1.0000
  H   H285      1.0  0.68675  0.04424  0.86421  1.0000
  H   H286      1.0  0.65512  0.13686  0.76049  1.0000
  H   H287      1.0  0.54754  0.16958  0.83000  1.0000
  H   H288      1.0  0.60781  0.13294  0.71902  1.0000
  H   H289      1.0  0.65139  0.05874  0.97305  1.0000
  C   C289      1.0  0.63124  0.14344  0.77564  1.0000
  C   C290      1.0  0.84227  0.52661  0.86632  1.0000
  N   N25       1.0  0.74729  0.45753  0.86653  1.0000
  C   C291      1.0  0.67875  0.04755  0.88789  1.0000
  H   H290      1.0  0.71882  0.43278  0.94939  1.0000
  H   H291      1.0  0.72789  0.40161  0.85511  1.0000
  C   C292      1.0  0.55218  0.21770  0.00119  1.0000
  C   C293      1.0  0.58994  0.15466  0.73100  1.0000
  H   H292      1.0  0.79015  0.45149  0.83231  1.0000
  C   C294      1.0  0.75213  0.48395  0.88917  1.0000
  H   H293      1.0  0.59763  0.18349  0.72251  1.0000
  H   H294      1.0  0.74744  0.49604  0.93734  1.0000
  H   H295      1.0  0.99406  0.47545  0.73046  1.0000
  H   H296      1.0  0.55938  0.14868  0.72475  1.0000
  C   C295      1.0  0.03283  0.46184  0.69364  1.0000
  C   C296      1.0  0.55575  0.25459  0.81972  1.0000
  C   C297      1.0  0.02404  0.47353  0.72320  1.0000
  H   H297      1.0  0.64279  0.13578  0.99309  1.0000
  C   C298      1.0  0.58329  0.12010  0.98506  1.0000
  C   C299      1.0  0.61467  0.13053  0.00326  1.0000
  C   C300      1.0  0.04146  0.39824  0.77624  1.0000
  C   C301      1.0  0.58541  0.22430  0.01864  1.0000
  S   S99       1.0  0.60837  0.82172  0.30195  1.0000
  H   H298      1.0  0.86953  0.71428  0.10830  1.0000
  C   C302      1.0  0.79474  0.61443  0.13655  1.0000
  S   S100      1.0  0.81980  0.59409  0.03662  1.0000
  Fe  Fe49      1.0  0.87967  0.59790  0.05635  1.0000
  S   S101      1.0  0.89769  0.58651  0.10522  1.0000
  H   H299      1.0  0.97915  0.63643  0.03620  1.0000
  H   H300      1.0  0.84937  0.62976  0.15641  1.0000
  C   C303      1.0  0.56292  0.91872  0.05446  1.0000
  H   H301      1.0  0.90284  0.56609  0.16820  1.0000
  C   C304      1.0  0.80935  0.67273  0.09557  1.0000
  H   H302      1.0  0.57580  0.91377  0.07671  1.0000
  H   H303      1.0  0.79008  0.59086  0.15215  1.0000
  C   C305      1.0  0.87982  0.54947  0.15809  1.0000
  S   S102      1.0  0.89067  0.65677  0.03805  1.0000
  H   H304      1.0  0.58732  0.81937  0.23896  1.0000
  C   C306      1.0  0.77548  0.65129  0.09261  1.0000
  H   H305      1.0  0.89510  0.66935  0.10923  1.0000
  C   C307      1.0  0.57204  0.84614  0.28153  1.0000
  C   C308      1.0  0.82819  0.63663  0.13893  1.0000
  H   H306      1.0  0.54980  0.87708  0.32013  1.0000
  H   H307      1.0  0.60279  0.81854  0.05174  1.0000
  N   N26       1.0  0.83514  0.66530  0.11854  1.0000
  N   N27       1.0  0.58549  0.91964  0.02885  1.0000
  H   H308      1.0  0.75551  0.65697  0.07396  1.0000
  C   C309      1.0  0.04061  0.64188  0.04411  1.0000
  H   H309      1.0  0.87995  0.69195  0.14425  1.0000
  C   C310      1.0  0.56724  0.83835  0.25039  1.0000
  H   H310      1.0  0.81515  0.69499  0.07906  1.0000
  C   C311      1.0  0.87168  0.68636  0.12020  1.0000
  C   C312      1.0  0.76833  0.62178  0.11313  1.0000
  H   H311      1.0  0.63271  0.99708  0.33094  1.0000
  C   C313      1.0  0.62751  0.91406  0.03132  1.0000
  C   C314      1.0  0.87114  0.55372  0.12700  1.0000
  H   H312      1.0  0.74274  0.60423  0.11055  1.0000
  C   C315      1.0  0.00736  0.63889  0.02573  1.0000
  C   C316      1.0  0.54623  0.87090  0.29615  1.0000
  C   C317      1.0  0.57580  0.82214  0.03943  1.0000
  H   H313      1.0  0.03781  0.64177  0.06866  1.0000
  H   H314      1.0  0.63860  0.92361  0.05383  1.0000
  H   H315      1.0  0.63474  0.88341  0.02822  1.0000
  H   H316      1.0  0.54266  0.76928  0.32799  1.0000
  H   H317      1.0  0.83428  0.53563  0.09015  1.0000
  C   C318      1.0  0.64883  0.99899  0.35207  1.0000
  S   S103      1.0  0.82782  0.53460  0.32739  1.0000
  S   S104      1.0  0.78519  0.69576  0.02012  1.0000
  Fe  Fe50      1.0  0.65649  0.87482  0.40238  1.0000
  S   S105      1.0  0.59702  0.88055  0.38187  1.0000
  S   S106      1.0  0.69059  0.92647  0.41642  1.0000
  Fe  Fe51      1.0  0.65343  0.78807  0.40500  1.0000
  S   S107      1.0  0.59375  0.78726  0.38491  1.0000
  S   S108      1.0  0.67699  0.72967  0.41622  1.0000
  C   C319      1.0  0.89656  0.53869  0.62179  1.0000
  Fe  Fe52      1.0  0.58120  0.83603  0.41635  1.0000
  C   C320      1.0  0.57347  0.86922  0.52367  1.0000
  S   S109      1.0  0.67687  0.82891  0.37040  1.0000
  S   S110      1.0  0.63933  0.83346  0.43905  1.0000
  Fe  Fe53      1.0  0.84777  0.65275  0.50783  1.0000
  S   S111      1.0  0.80703  0.60916  0.52670  1.0000
  S   S112      1.0  0.82976  0.71236  0.49397  1.0000
  Fe  Fe54      1.0  0.83833  0.56791  0.49634  1.0000
  H   H318      1.0  0.57315  0.72279  0.47502  1.0000
  S   S113      1.0  0.87506  0.61247  0.47441  1.0000
  C   C321      1.0  0.81825  0.56014  0.41692  1.0000
  C   C322      1.0  0.01366  0.62730  0.54275  1.0000
  H   H319      1.0  0.82775  0.80335  0.41208  1.0000
  H   H320      1.0  0.76158  0.68816  0.37400  1.0000
  C   C323      1.0  0.76206  0.74930  0.37407  1.0000
  H   H321      1.0  0.98504  0.63601  0.55008  1.0000
  H   H322      1.0  0.82669  0.56632  0.67176  1.0000
  C   C324      1.0  0.65682  0.77918  0.54773  1.0000
  H   H323      1.0  0.69942  0.76411  0.51377  1.0000
  C   C325      1.0  0.71672  0.72557  0.44107  1.0000
  C   C326      1.0  0.73024  0.68915  0.44901  1.0000
  C   C327      1.0  0.76388  0.68485  0.46672  1.0000
  C   C328      1.0  0.78426  0.71701  0.47633  1.0000
  C   C329      1.0  0.76980  0.75349  0.46948  1.0000
  C   C330      1.0  0.73599  0.75781  0.45189  1.0000
  H   H324      1.0  0.71518  0.66415  0.44085  1.0000
  H   H325      1.0  0.77480  0.65664  0.47201  1.0000
  H   H326      1.0  0.78551  0.77844  0.47696  1.0000
  H   H327      1.0  0.72562  0.78601  0.44588  1.0000
  H   H328      1.0  0.70762  0.00523  0.42725  1.0000
  C   C331      1.0  0.67997  0.96772  0.39510  1.0000
  C   C332      1.0  0.65906  0.96554  0.36781  1.0000
  H   H329      1.0  0.85227  0.73910  0.42563  1.0000
  C   C333      1.0  0.86398  0.55794  0.63294  1.0000
  Fe  Fe55      1.0  0.91731  0.59946  0.51196  1.0000
  C   C334      1.0  0.82368  0.67202  0.40817  1.0000
  S   S114      1.0  0.97809  0.58735  0.49625  1.0000
  Fe  Fe56      1.0  0.85472  0.59677  0.56040  1.0000
  S   S115      1.0  0.83615  0.58808  0.60928  1.0000
  S   S116      1.0  0.89349  0.64382  0.54386  1.0000
  C   C335      1.0  0.69112  0.00345  0.40630  1.0000
  C   C336      1.0  0.66878  0.76717  0.51891  1.0000
  H   H330      1.0  0.67360  0.02952  0.48879  1.0000
  C   C337      1.0  0.62427  0.98675  0.45948  1.0000
  H   H331      1.0  0.60046  0.88158  0.53130  1.0000
  H   H332      1.0  0.64202  0.97120  0.47573  1.0000
  H   H333      1.0  0.60188  0.93521  0.43928  1.0000
  C   C338      1.0  0.78060  0.78190  0.38481  1.0000
  N   N28       1.0  0.80867  0.70995  0.40028  1.0000
  H   H334      1.0  0.82065  0.59057  0.37422  1.0000
  C   C339      1.0  0.82736  0.74178  0.41058  1.0000
  H   H335      1.0  0.81356  0.58545  0.43048  1.0000
  C   C340      1.0  0.81356  0.77821  0.40309  1.0000
  C   C341      1.0  0.56671  0.86417  0.49243  1.0000
  H   H336      1.0  0.79973  0.65112  0.41016  1.0000
  C   C342      1.0  0.01784  0.60242  0.51802  1.0000
  N   N29       1.0  0.62527  0.02573  0.45826  1.0000
  C   C343      1.0  0.82206  0.56297  0.38515  1.0000
  H   H337      1.0  0.65029  0.74984  0.47432  1.0000
  H   H338      1.0  0.76897  0.80995  0.37944  1.0000
  H   H339      1.0  0.58170  0.76854  0.45737  1.0000
  C   C344      1.0  0.57391  0.75402  0.47902  1.0000
  S   S117      1.0  0.88247  0.55162  0.53152  1.0000
  H   H340      1.0  0.67808  0.78585  0.56518  1.0000
  C   C345      1.0  0.64091  0.75911  0.49665  1.0000
  C   C346      1.0  0.59029  0.77389  0.53127  1.0000
  H   H341      1.0  0.99451  0.63293  0.44056  1.0000
  H   H342      1.0  0.65107  0.93809  0.35864  1.0000
  H   H343      1.0  0.58799  0.87360  0.47619  1.0000
  H   H344      1.0  0.54430  0.76410  0.48506  1.0000
  H   H345      1.0  0.60761  0.79210  0.57630  1.0000
  H   H346      1.0  0.01670  0.67991  0.47852  1.0000
  H   H347      1.0  0.56529  0.94894  0.60073  1.0000
  H   H348      1.0  0.84441  0.66204  0.39053  1.0000
  C   C347      1.0  0.77671  0.71332  0.38192  1.0000
  C   C348      1.0  0.61733  0.78251  0.55403  1.0000
  C   C349      1.0  0.85180  0.55136  0.66300  1.0000
  N   N30       1.0  0.60228  0.76298  0.50286  1.0000
  C   C350      1.0  0.02525  0.63860  0.44314  1.0000
  H   H349      1.0  0.55969  0.77656  0.53643  1.0000
  H   H350      1.0  0.83858  0.67239  0.43071  1.0000
  C   C351      1.0  0.57996  0.98565  0.41688  1.0000
  C   C352      1.0  0.60154  0.96615  0.43888  1.0000
  H   H351      1.0  0.56330  0.96988  0.40013  1.0000
  H   H352      1.0  0.73576  0.75180  0.36056  1.0000
  C   C353      1.0  0.58056  0.02542  0.41620  1.0000
  C   C354      1.0  0.54590  0.85758  0.54505  1.0000
  C   C355      1.0  0.03804  0.66511  0.46469  1.0000
  S   S118      1.0  0.55769  0.86028  0.58393  1.0000
  H   H353      1.0  0.72837  0.55118  0.37052  1.0000
  H   H354      1.0  0.90630  0.54377  0.59875  1.0000
  H   H355      1.0  0.57287  0.01918  0.60529  1.0000
  H   H356      1.0  0.78685  0.54276  0.57048  1.0000
  C   C356      1.0  0.54408  0.00720  0.60328  1.0000
  Fe  Fe57      1.0  0.61581  0.83133  0.35245  1.0000
  Fe  Fe58      1.0  0.64726  0.92351  0.93272  1.0000
  S   S119      1.0  0.59090  0.91199  0.90949  1.0000
  S   S120      1.0  0.65091  0.97871  0.95893  1.0000
  Fe  Fe59      1.0  0.68047  0.84545  0.91545  1.0000
  S   S121      1.0  0.62629  0.82819  0.89037  1.0000
  S   S122      1.0  0.73399  0.80780  0.91315  1.0000
  Fe  Fe60      1.0  0.62656  0.88771  0.87158  1.0000
  S   S123      1.0  0.61473  0.90833  0.82362  1.0000
  Fe  Fe61      1.0  0.59568  0.85411  0.93067  1.0000
  H   H357      1.0  0.76049  0.87142  0.87344  1.0000
  S   S124      1.0  0.68323  0.90338  0.89332  1.0000
  S   S125      1.0  0.64973  0.86719  0.95710  1.0000
  H   H358      1.0  0.67278  0.87001  0.78510  1.0000
  H   H359      1.0  0.65498  0.80152  0.78721  1.0000
  Fe  Fe62      1.0  0.91429  0.62639  0.99695  1.0000
  Fe  Fe63      1.0  0.84891  0.56984  0.99513  1.0000
  H   H360      1.0  0.79153  0.87243  0.84017  1.0000
  S   S126      1.0  0.85721  0.62629  0.97224  1.0000
  H   H361      1.0  0.72609  0.89410  0.81730  1.0000
  H   H362      1.0  0.82031  0.58114  0.92818  1.0000
  H   H363      1.0  0.79004  0.83100  0.86427  1.0000
  H   H364      1.0  0.69158  0.75770  0.82161  1.0000
  C   C357      1.0  0.71943  0.86391  0.81763  1.0000
  H   H365      1.0  0.94301  0.62892  0.90580  1.0000
  C   C358      1.0  0.59235  0.87770  0.79733  1.0000
  C   C359      1.0  0.57597  0.82368  0.00745  1.0000
  C   C360      1.0  0.77220  0.85434  0.85418  1.0000
  C   C361      1.0  0.93034  0.55388  0.92563  1.0000
  C   C362      1.0  0.56885  0.92350  0.00068  1.0000
  H   H366      1.0  0.74601  0.78242  0.85232  1.0000
  H   H367      1.0  0.82784  0.58599  0.87221  1.0000
  C   C363      1.0  0.56459  0.86785  0.74684  1.0000
  H   H368      1.0  0.91276  0.62157  0.87256  1.0000
  H   H369      1.0  0.64299  0.93082  0.01361  1.0000
  C   C364      1.0  0.74725  0.77631  0.94293  1.0000
  C   C365      1.0  0.77945  0.75212  0.93898  1.0000
  C   C366      1.0  0.79119  0.72697  0.96229  1.0000
  C   C367      1.0  0.77090  0.72606  0.98984  1.0000
  C   C368      1.0  0.73867  0.75022  0.99376  1.0000
  C   C369      1.0  0.72676  0.77515  0.97036  1.0000
  H   H370      1.0  0.79551  0.75291  0.91786  1.0000
  H   H371      1.0  0.81613  0.70864  0.95909  1.0000
  C   C370      1.0  0.91865  0.61200  0.89626  1.0000
  H   H372      1.0  0.70192  0.79360  0.97365  1.0000
  C   C371      1.0  0.66036  0.01911  0.93622  1.0000
  C   C372      1.0  0.58382  0.84000  0.80490  1.0000
  H   H373      1.0  0.92477  0.57003  0.94628  1.0000
  H   H374      1.0  0.67120  0.98725  0.89515  1.0000
  S   S127      1.0  0.96914  0.63702  0.97060  1.0000
  C   C373      1.0  0.58309  0.89146  0.76817  1.0000
  N   N31       1.0  0.92806  0.57123  0.89776  1.0000
  C   C374      1.0  0.69962  0.78748  0.81991  1.0000
  C   C375      1.0  0.68906  0.85048  0.79949  1.0000
  H   H375      1.0  0.58664  0.92324  0.98032  1.0000
  C   C376      1.0  0.67904  0.81206  0.80074  1.0000
  N   N32       1.0  0.74016  0.83944  0.83575  1.0000
  C   C377      1.0  0.73041  0.80169  0.83725  1.0000
  H   H376      1.0  0.89226  0.61819  0.90987  1.0000
  C   C378      1.0  0.01066  0.63969  0.99396  1.0000
  C   C379      1.0  0.83262  0.55891  0.88350  1.0000
  H   H377      1.0  0.58996  0.92057  0.76216  1.0000
  H   H378      1.0  0.55896  0.78711  0.78944  1.0000
  H   H379      1.0  0.60293  0.82064  0.99524  1.0000
  C   C380      1.0  0.67001  0.01521  0.90542  1.0000
  H   H380      1.0  0.59092  0.82917  0.82730  1.0000
  H   H381      1.0  0.72284  0.74966  0.01500  1.0000
  Fe  Fe64      1.0  0.83252  0.65106  0.01519  1.0000
  H   H382      1.0  0.93262  0.56439  0.84948  1.0000
  H   H383      1.0  0.54500  0.01003  0.68619  1.0000
  C   C381      1.0  0.56580  0.81624  0.78344  1.0000
  H   H384      1.0  0.55737  0.87868  0.72447  1.0000
  C   C382      1.0  0.55570  0.83024  0.75452  1.0000
  C   C383      1.0  0.82885  0.55632  0.91526  1.0000
  C   C384      1.0  0.93515  0.55094  0.87167  1.0000
  S   S128      1.0  0.90771  0.56816  0.01687  1.0000
