data_image0
_chemical_formula_structural       FeS2FeSH2FeS3CSC6HCNHC6H3NHC2H2C2SH3C2SH2SH6CH3C5HSHFeSFeS2FeSFeS3C6H5C2H2CHCH2CNHC2NC2H2CH2FeC2H2C2FeHFeC2HCSCH4C3H2S2C6H2CHC2NSHCHC3HC2H6NHFeS2Fe2S3CFeH2CHCHS2HFeSH2CFeS2HC7H6CNC3HCNH3FeS3FeSFeSHC4H3C4H6NC6H4CFeH3C3HCHC3SH3CNSHCHC2HCHSC2HCHCHC3H2C4HC2HC2NCFeHCH3SH3FeS2FeS2HFeS3HC2H2C4H2C7H6C2H3CNCH5FeCSHFeSCSC5HCFeC7H8CHSHSHCHNHCH3CFeS2C2FeSFeS3CSC2HCH2C6H4C3H2C2H4C2HSHFeNHCH3SHCHC4H3C2NH2FeC3HSHCH2CNH3CHCHCH2CSCHCH2C2HNC3H2C2NCH4C2H3CH2SCS2FeS2FeS2FeSFeS3CFeHS2FeSNSCHC2HC3H3C6H4C6H5CFeH2CHCH3NCH2CNC6H6CHC2H6CSC3HFeS2HSFeSCSHFeS2FeS2FeSFeS3HSC6H4CHC7H4C2HC2HFeH3CHSHNC2SH2C3HC2H3CHNC2H3C4FeCH9C2NHFe
_chemical_formula_sum              "Fe48 S96 H288 C288 N24"
_cell_length_a       33.0207
_cell_length_b       32.9239
_cell_length_c       43.8232
_cell_angle_alpha    90.5243
_cell_angle_beta     89.9258
_cell_angle_gamma    121.028

_space_group_name_H-M_alt    "P 1"
_space_group_IT_number       1

loop_
  _space_group_symop_operation_xyz
  'x, y, z'

loop_
  _atom_site_type_symbol
  _atom_site_label
  _atom_site_symmetry_multiplicity
  _atom_site_fract_x
  _atom_site_fract_y
  _atom_site_fract_z
  _atom_site_occupancy
  Fe  Fe1       1.0  0.18092  0.38335  0.17090  1.0000
  S   S1        1.0  0.13112  0.31825  0.14402  1.0000
  S   S2        1.0  0.23278  0.37223  0.19729  1.0000
  Fe  Fe2       1.0  0.13951  0.44031  0.14560  1.0000
  S   S3        1.0  0.08758  0.37903  0.11642  1.0000
  H   H1        1.0  0.38469  0.13719  0.01064  1.0000
  H   H2        1.0  0.54081  0.05879  0.31201  1.0000
  Fe  Fe3       1.0  0.14863  0.36908  0.10572  1.0000
  S   S4        1.0  0.16344  0.35032  0.05886  1.0000
  S   S5        1.0  0.12391  0.39590  0.18797  1.0000
  S   S6        1.0  0.20173  0.43388  0.13176  1.0000
  C   C1        1.0  0.34758  0.25238  0.22937  1.0000
  S   S7        1.0  0.28678  0.47261  0.32604  1.0000
  C   C2        1.0  0.30276  0.39387  0.06662  1.0000
  C   C3        1.0  0.21972  0.35724  0.05318  1.0000
  C   C4        1.0  0.25816  0.38839  0.07150  1.0000
  C   C5        1.0  0.30930  0.36768  0.04376  1.0000
  C   C6        1.0  0.18035  0.31289  0.29813  1.0000
  C   C7        1.0  0.22634  0.33155  0.02992  1.0000
  H   H3        1.0  0.25377  0.40868  0.08928  1.0000
  C   C8        1.0  0.36364  0.32084  0.25951  1.0000
  N   N1        1.0  0.12786  0.47689  0.04203  1.0000
  H   H4        1.0  0.49658  0.34942  0.26443  1.0000
  C   C9        1.0  0.25213  0.40400  0.23169  1.0000
  C   C10       1.0  0.24192  0.43922  0.23884  1.0000
  C   C11       1.0  0.25477  0.46187  0.26745  1.0000
  C   C12       1.0  0.27703  0.44871  0.28906  1.0000
  C   C13       1.0  0.28841  0.41441  0.28157  1.0000
  C   C14       1.0  0.27616  0.39223  0.25281  1.0000
  H   H5        1.0  0.22386  0.44876  0.22241  1.0000
  H   H6        1.0  0.24652  0.48886  0.27311  1.0000
  H   H7        1.0  0.15557  0.43453  0.29144  1.0000
  N   N2        1.0  0.15664  0.37057  0.29512  1.0000
  H   H8        1.0  0.21976  0.26852  0.09183  1.0000
  C   C15       1.0  0.29267  0.28656  0.09376  1.0000
  C   C16       1.0  0.37678  0.31131  0.09734  1.0000
  H   H9        1.0  0.40752  0.34737  0.09297  1.0000
  H   H10       1.0  0.36966  0.29129  0.07550  1.0000
  C   C17       1.0  0.09075  0.47212  0.05888  1.0000
  C   C18       1.0  0.16329  0.29722  0.26860  1.0000
  S   S8        1.0  0.36555  0.37387  0.04052  1.0000
  H   H11       1.0  0.12966  0.30672  0.22946  1.0000
  H   H12       1.0  0.40810  0.24729  0.21830  1.0000
  H   H13       1.0  0.18280  0.43022  0.32528  1.0000
  C   C19       1.0  0.30309  0.34811  0.14085  1.0000
  C   C20       1.0  0.25890  0.31998  0.12719  1.0000
  S   S9        1.0  0.13279  0.50571  0.14812  1.0000
  H   H14       1.0  0.30756  0.37287  0.15894  1.0000
  H   H15       1.0  0.29391  0.26604  0.24523  1.0000
  S   S10       1.0  0.46468  0.35746  0.01460  1.0000
  H   H16       1.0  0.12224  0.37055  0.25394  1.0000
  H   H17       1.0  0.32279  0.21875  0.21853  1.0000
  H   H18       1.0  0.28855  0.26357  0.07463  1.0000
  H   H19       1.0  0.16624  0.45488  0.06909  1.0000
  H   H20       1.0  0.27052  0.19354  0.30512  1.0000
  H   H21       1.0  0.35139  0.34103  0.27207  1.0000
  C   C21       1.0  0.36291  0.10217  0.02039  1.0000
  H   H22       1.0  0.38638  0.29358  0.11491  1.0000
  H   H23       1.0  0.44106  0.30096  0.32652  1.0000
  H   H24       1.0  0.48185  0.29319  0.24850  1.0000
  C   C22       1.0  0.14206  0.31792  0.25270  1.0000
  C   C23       1.0  0.27092  0.33636  0.02538  1.0000
  C   C24       1.0  0.41165  0.33548  0.25957  1.0000
  C   C25       1.0  0.14555  0.44486  0.04751  1.0000
  C   C26       1.0  0.07405  0.50308  0.05476  1.0000
  H   H25       1.0  0.48908  0.32412  0.13536  1.0000
  S   S11       1.0  0.45207  0.23058  0.04024  1.0000
  H   H26       1.0  0.30623  0.40469  0.29802  1.0000
  Fe  Fe4       1.0  0.38305  0.08647  0.19498  1.0000
  S   S12       1.0  0.46249  0.12953  0.19816  1.0000
  Fe  Fe5       1.0  0.37246  0.14068  0.24961  1.0000
  S   S13       1.0  0.45073  0.18595  0.25668  1.0000
  S   S14       1.0  0.32045  0.15378  0.27559  1.0000
  Fe  Fe6       1.0  0.45312  0.19176  0.20564  1.0000
  S   S15       1.0  0.48784  0.26260  0.18260  1.0000
  Fe  Fe7       1.0  0.45205  0.11893  0.24869  1.0000
  S   S16       1.0  0.48776  0.09048  0.27888  1.0000
  S   S17       1.0  0.37494  0.14986  0.19881  1.0000
  S   S18       1.0  0.37261  0.07226  0.24534  1.0000
  C   C27       1.0  0.46149  0.24065  0.07974  1.0000
  C   C28       1.0  0.45921  0.20472  0.09786  1.0000
  C   C29       1.0  0.46633  0.21120  0.12945  1.0000
  C   C30       1.0  0.47747  0.25431  0.14304  1.0000
  C   C31       1.0  0.48019  0.29060  0.12495  1.0000
  C   C32       1.0  0.47157  0.28355  0.09332  1.0000
  H   H27       1.0  0.45220  0.17179  0.08745  1.0000
  H   H28       1.0  0.46430  0.18312  0.14316  1.0000
  H   H29       1.0  0.47397  0.31162  0.07935  1.0000
  H   H30       1.0  0.28424  0.36513  0.24720  1.0000
  H   H31       1.0  0.49371  0.34089  0.22332  1.0000
  C   C33       1.0  0.34048  0.20534  0.29855  1.0000
  C   C34       1.0  0.38850  0.23573  0.30496  1.0000
  H   H32       1.0  0.37591  0.36732  0.14092  1.0000
  H   H33       1.0  0.41394  0.22691  0.29697  1.0000
  C   C35       1.0  0.33143  0.27883  0.24446  1.0000
  H   H34       1.0  0.32238  0.05019  0.08939  1.0000
  C   C36       1.0  0.30778  0.21703  0.30977  1.0000
  H   H35       1.0  0.22918  0.32316  0.13447  1.0000
  H   H36       1.0  0.33229  0.41821  0.08088  1.0000
  C   C37       1.0  0.47733  0.32415  0.24543  1.0000
  N   N3        1.0  0.42704  0.30885  0.24514  1.0000
  H   H37       1.0  0.43616  0.36736  0.27216  1.0000
  C   C38       1.0  0.25356  0.28907  0.10342  1.0000
  C   C39       1.0  0.39584  0.26827  0.22972  1.0000
  N   N4        1.0  0.33595  0.31435  0.10728  1.0000
  C   C40       1.0  0.34147  0.34482  0.13055  1.0000
  C   C41       1.0  0.32309  0.25929  0.32658  1.0000
  H   H38       1.0  0.18033  0.51763  0.00877  1.0000
  H   H39       1.0  0.16853  0.44550  0.02872  1.0000
  C   C42       1.0  0.17669  0.34984  0.31114  1.0000
  H   H40       1.0  0.07444  0.44488  0.07610  1.0000
  H   H41       1.0  0.19117  0.36273  0.33379  1.0000
  Fe  Fe8       1.0  0.43751  0.27928  0.01290  1.0000
  C   C43       1.0  0.40377  0.27768  0.32187  1.0000
  C   C44       1.0  0.50930  0.05480  0.16210  1.0000
  H   H42       1.0  0.16714  0.26962  0.25783  1.0000
  H   H43       1.0  0.11580  0.40753  0.04923  1.0000
  C   C45       1.0  0.13850  0.35441  0.26653  1.0000
  C   C46       1.0  0.15306  0.40925  0.30906  1.0000
  Fe  Fe9       1.0  0.07538  0.33430  0.15789  1.0000
  H   H44       1.0  0.11896  0.39469  0.32127  1.0000
  Fe  Fe10      1.0  0.38799  0.33503  0.00799  1.0000
  C   C47       1.0  0.35576  0.09833  0.05197  1.0000
  C   C48       1.0  0.14990  0.51278  0.02140  1.0000
  H   H45       1.0  0.37189  0.12996  0.06629  1.0000
  C   C49       1.0  0.32781  0.05363  0.06484  1.0000
  S   S19       1.0  0.36113  0.25701  0.00997  1.0000
  C   C50       1.0  0.37129  0.28993  0.33248  1.0000
  H   H46       1.0  0.19724  0.29729  0.31065  1.0000
  H   H47       1.0  0.19681  0.30754  0.01554  1.0000
  H   H48       1.0  0.29772  0.26824  0.33478  1.0000
  H   H49       1.0  0.51503  0.06786  0.13890  1.0000
  C   C51       1.0  0.54739  0.06237  0.18020  1.0000
  C   C52       1.0  0.54771  0.10660  0.27633  1.0000
  C   C53       1.0  0.53936  0.04552  0.21000  1.0000
  H   H50       1.0  0.27560  0.31604  0.00767  1.0000
  H   H51       1.0  0.12236  0.35837  0.40885  1.0000
  S   S20       1.0  0.19004  0.31237  0.42527  1.0000
  S   S21       1.0  0.11374  0.34739  0.54996  1.0000
  C   C54       1.0  0.17011  0.32078  0.46086  1.0000
  C   C55       1.0  0.20103  0.35472  0.48199  1.0000
  C   C56       1.0  0.18342  0.36200  0.50947  1.0000
  C   C57       1.0  0.13475  0.33631  0.51565  1.0000
  C   C58       1.0  0.10389  0.30224  0.49457  1.0000
  C   C59       1.0  0.12161  0.29409  0.46748  1.0000
  H   H52       1.0  0.23848  0.37537  0.47716  1.0000
  H   H53       1.0  0.20754  0.38820  0.52578  1.0000
  C   C60       1.0  0.50337  0.48495  0.49059  1.0000
  H   H54       1.0  0.09756  0.26760  0.45129  1.0000
  C   C61       1.0  0.16296  0.41399  0.44124  1.0000
  C   C62       1.0  0.45708  0.41062  0.41975  1.0000
  N   N5        1.0  0.49980  0.46912  0.45879  1.0000
  S   S22       1.0  0.29300  0.44076  0.40861  1.0000
  H   H55       1.0  0.42646  0.37721  0.41264  1.0000
  C   C63       1.0  0.12075  0.37688  0.42898  1.0000
  H   H56       1.0  0.11727  0.43857  0.50336  1.0000
  C   C64       1.0  0.46115  0.42707  0.44978  1.0000
  C   C65       1.0  0.53516  0.49561  0.43851  1.0000
  C   C66       1.0  0.16181  0.43637  0.46813  1.0000
  H   H57       1.0  0.19445  0.46393  0.47852  1.0000
  C   C67       1.0  0.11857  0.42211  0.48210  1.0000
  C   C68       1.0  0.53172  0.48062  0.40812  1.0000
  H   H58       1.0  0.19652  0.42384  0.43068  1.0000
  H   H59       1.0  0.05718  0.26269  0.65190  1.0000
  H   H60       1.0  0.43278  0.40644  0.46571  1.0000
  H   H61       1.0  0.50986  0.46215  0.50583  1.0000
  H   H62       1.0  0.47000  0.48312  0.49750  1.0000
  H   H63       1.0  0.06645  0.28191  0.49918  1.0000
  N   N6        1.0  0.07856  0.36261  0.44313  1.0000
  H   H64       1.0  0.46596  0.53146  0.39644  1.0000
  Fe  Fe11      1.0  0.36411  0.44952  0.41765  1.0000
  S   S23       1.0  0.33445  0.37101  0.42241  1.0000
  S   S24       1.0  0.41357  0.50136  0.45368  1.0000
  Fe  Fe12      1.0  0.34834  0.37241  0.37190  1.0000
  Fe  Fe13      1.0  0.26471  0.36272  0.40890  1.0000
  S   S25       1.0  0.38209  0.45157  0.36820  1.0000
  S   S26       1.0  0.39325  0.34509  0.35143  1.0000
  S   S27       1.0  0.27613  0.35719  0.35868  1.0000
  C   C69       1.0  0.07701  0.38531  0.46899  1.0000
  Fe  Fe14      1.0  0.30857  0.43598  0.35942  1.0000
  H   H65       1.0  0.48866  0.42574  0.37521  1.0000
  H   H66       1.0  0.53228  0.52242  0.49383  1.0000
  C   C70       1.0  0.06880  0.25751  0.60419  1.0000
  H   H67       1.0  0.10308  0.29009  0.60394  1.0000
  C   C71       1.0  0.49232  0.43783  0.39875  1.0000
  H   H68       1.0  0.06939  0.24422  0.55601  1.0000
  S   S28       1.0  0.40128  0.08650  0.85923  1.0000
  S   S29       1.0  0.52050  0.40259  0.92777  1.0000
  H   H69       1.0  0.46168  0.19410  0.84696  1.0000
  Fe  Fe15      1.0  0.46686  0.35526  0.96329  1.0000
  S   S30       1.0  0.39165  0.33698  0.95665  1.0000
  H   H70       1.0  0.37660  0.28543  0.84199  1.0000
  H   H71       1.0  0.38770  0.09495  0.96386  1.0000
  C   C72       1.0  0.49757  0.25841  0.87399  1.0000
  Fe  Fe16      1.0  0.37257  0.26067  0.95931  1.0000
  S   S31       1.0  0.32194  0.20129  0.92729  1.0000
  S   S32       1.0  0.44765  0.27923  0.96241  1.0000
  H   H72       1.0  0.34121  0.22811  0.85996  1.0000
  C   C73       1.0  0.45996  0.22364  0.85672  1.0000
  C   C74       1.0  0.37378  0.11088  0.88091  1.0000
  C   C75       1.0  0.39903  0.14102  0.90541  1.0000
  C   C76       1.0  0.38203  0.16680  0.92075  1.0000
  C   C77       1.0  0.34014  0.16369  0.91131  1.0000
  C   C78       1.0  0.31366  0.13192  0.88761  1.0000
  C   C79       1.0  0.33032  0.10536  0.87249  1.0000
  H   H73       1.0  0.43264  0.14543  0.91209  1.0000
  H   H74       1.0  0.40189  0.18953  0.93958  1.0000
  H   H75       1.0  0.28088  0.12885  0.88035  1.0000
  H   H76       1.0  0.31065  0.08228  0.85352  1.0000
  H   H77       1.0  0.36645  0.28045  0.88279  1.0000
  H   H78       1.0  0.38967  0.19825  0.84027  1.0000
  C   C80       1.0  0.37299  0.26419  0.86242  1.0000
  N   N7        1.0  0.41576  0.26184  0.86663  1.0000
  C   C81       1.0  0.45293  0.29669  0.88294  1.0000
  C   C82       1.0  0.41914  0.22605  0.85313  1.0000
  C   C83       1.0  0.35045  0.06762  0.96906  1.0000
  H   H79       1.0  0.45050  0.32540  0.89332  1.0000
  C   C84       1.0  0.49427  0.29542  0.88701  1.0000
  N   N8        1.0  0.34301  0.06250  0.00213  1.0000
  H   H80       1.0  0.32679  0.07848  0.95867  1.0000
  H   H81       1.0  0.52324  0.32277  0.90054  1.0000
  H   H82       1.0  0.52906  0.25650  0.87749  1.0000
  Fe  Fe17      1.0  0.17265  0.72189  0.05104  1.0000
  S   S33       1.0  0.11672  0.71684  0.08250  1.0000
  S   S34       1.0  0.19771  0.66903  0.05021  1.0000
  S   S35       1.0  0.13546  0.81653  0.05393  1.0000
  Fe  Fe18      1.0  0.16668  0.79483  0.09120  1.0000
  S   S36       1.0  0.18301  0.82686  0.13885  1.0000
  Fe  Fe19      1.0  0.09145  0.73924  0.04168  1.0000
  S   S37       1.0  0.22457  0.79849  0.06255  1.0000
  H   H83       1.0  0.08449  0.56477  0.03086  1.0000
  C   C85       1.0  0.23153  0.88556  0.14303  1.0000
  C   C86       1.0  0.24056  0.90918  0.17135  1.0000
  C   C87       1.0  0.27899  0.95600  0.17503  1.0000
  C   C88       1.0  0.26165  0.90883  0.11854  1.0000
  H   H84       1.0  0.21740  0.89142  0.19042  1.0000
  H   H85       1.0  0.28515  0.97415  0.19676  1.0000
  H   H86       1.0  0.25525  0.89108  0.09666  1.0000
  C   C89       1.0  0.12645  0.57453  0.11781  1.0000
  C   C90       1.0  0.14081  0.61144  0.09674  1.0000
  C   C91       1.0  0.17842  0.62287  0.07701  1.0000
  C   C92       1.0  0.20115  0.59669  0.07833  1.0000
  H   H87       1.0  0.26814  0.74716  0.09226  1.0000
  H   H88       1.0  0.12279  0.63104  0.09585  1.0000
  H   H89       1.0  0.23027  0.60530  0.06310  1.0000
  H   H90       1.0  0.09766  0.56630  0.13326  1.0000
  H   H91       1.0  0.27713  0.69951  0.09974  1.0000
  H   H92       1.0  0.24201  0.64983  0.14386  1.0000
  N   N9        1.0  0.23579  0.70953  0.13310  1.0000
  C   C93       1.0  0.21290  0.73349  0.13905  1.0000
  C   C94       1.0  0.22407  0.66903  0.14862  1.0000
  C   C95       1.0  0.17594  0.71598  0.16012  1.0000
  C   C96       1.0  0.18740  0.65059  0.16995  1.0000
  C   C97       1.0  0.16297  0.67410  0.17551  1.0000
  C   C98       1.0  0.27451  0.72850  0.11098  1.0000
  H   H93       1.0  0.22283  0.76622  0.12735  1.0000
  H   H94       1.0  0.15739  0.73481  0.16428  1.0000
  H   H95       1.0  0.17705  0.61743  0.18130  1.0000
  H   H96       1.0  0.13389  0.65977  0.19156  1.0000
  C   C99       1.0  0.13421  0.54448  0.01678  1.0000
  Fe  Fe20      1.0  0.19060  0.81555  0.02449  1.0000
  H   H97       1.0  0.38509  0.00092  0.20414  1.0000
  H   H98       1.0  0.30845  0.75352  0.12247  1.0000
  H   H99       1.0  0.28458  0.97843  0.05556  1.0000
  C   C100      1.0  0.30686  0.01344  0.04595  1.0000
  C   C101      1.0  0.30885  0.97923  0.15039  1.0000
  C   C102      1.0  0.30032  0.95522  0.12233  1.0000
  H   H100      1.0  0.32382  0.97256  0.10338  1.0000
  C   C103      1.0  0.31478  0.01855  0.01446  1.0000
  H   H101      1.0  0.39290  0.95281  0.21531  1.0000
  C   C104      1.0  0.14938  0.54860  0.11931  1.0000
  C   C105      1.0  0.40855  0.99176  0.21666  1.0000
  C   C106      1.0  0.18661  0.55956  0.09931  1.0000
  S   S38       1.0  0.35728  0.03812  0.15310  1.0000
  H   H102      1.0  0.20488  0.54018  0.10051  1.0000
  H   H103      1.0  0.48761  0.01068  0.24512  1.0000
  H   H104      1.0  0.40929  0.00261  0.24090  1.0000
  C   C107      1.0  0.49336  0.02237  0.22159  1.0000
  N   N10       1.0  0.45638  0.01609  0.20394  1.0000
  S   S39       1.0  0.14446  0.73951  0.00945  1.0000
  H   H105      1.0  0.07962  0.86203  0.02232  1.0000
  C   C108      1.0  0.46367  0.03089  0.17429  1.0000
  H   H106      1.0  0.43430  0.02525  0.16008  1.0000
  C   C109      1.0  0.09595  0.53942  0.03353  1.0000
  C   C110      1.0  0.48791  0.55510  0.41450  1.0000
  H   H107      1.0  0.48551  0.57658  0.49026  1.0000
  C   C111      1.0  0.53332  0.71805  0.43910  1.0000
  H   H108      1.0  0.23580  0.84407  0.64367  1.0000
  S   S40       1.0  0.12034  0.78080  0.66074  1.0000
  C   C112      1.0  0.49912  0.58057  0.46730  1.0000
  C   C113      1.0  0.47012  0.54931  0.44413  1.0000
  H   H109      1.0  0.50400  0.68247  0.44344  1.0000
  C   C114      1.0  0.53977  0.75628  0.45695  1.0000
  H   H110      1.0  0.54853  0.59447  0.38545  1.0000
  C   C115      1.0  0.54604  0.61621  0.46117  1.0000
  H   H111      1.0  0.22427  0.90921  0.66021  1.0000
  C   C116      1.0  0.53482  0.59074  0.40835  1.0000
  C   C117      1.0  0.25451  0.90815  0.66883  1.0000
  C   C118      1.0  0.26095  0.87118  0.65930  1.0000
  H   H112      1.0  0.51538  0.75070  0.47531  1.0000
  H   H113      1.0  0.30367  0.83946  0.66430  1.0000
  C   C119      1.0  0.29865  0.86834  0.67111  1.0000
  C   C120      1.0  0.14389  0.87885  0.72591  1.0000
  C   C121      1.0  0.14039  0.81627  0.69408  1.0000
  C   C122      1.0  0.17957  0.82108  0.70991  1.0000
  H   H114      1.0  0.13029  0.90161  0.73173  1.0000
  C   C123      1.0  0.16617  0.87117  0.87321  1.0000
  C   C124      1.0  0.32964  0.90263  0.69195  1.0000
  H   H115      1.0  0.15890  0.89546  0.88549  1.0000
  C   C125      1.0  0.18191  0.80731  0.87293  1.0000
  C   C126      1.0  0.17153  0.83767  0.88908  1.0000
  N   N11       1.0  0.18807  0.81111  0.84198  1.0000
  C   C127      1.0  0.18169  0.84302  0.82617  1.0000
  Fe  Fe21      1.0  0.36249  0.01830  0.83162  1.0000
  H   H116      1.0  0.18584  0.84553  0.80160  1.0000
  C   C128      1.0  0.17072  0.87357  0.84151  1.0000
  H   H117      1.0  0.19394  0.79924  0.70342  1.0000
  H   H118      1.0  0.29056  0.99179  0.72294  1.0000
  H   H119      1.0  0.29600  0.01000  0.68356  1.0000
  S   S41       1.0  0.23149  0.88108  0.99602  1.0000
  H   H120      1.0  0.16874  0.83582  0.91379  1.0000
  H   H121      1.0  0.21788  0.76689  0.84062  1.0000
  H   H122      1.0  0.35925  0.90098  0.70128  1.0000
  Fe  Fe22      1.0  0.32308  0.91283  0.83720  1.0000
  S   S42       1.0  0.28953  0.95707  0.84051  1.0000
  S   S43       1.0  0.30193  0.85133  0.86849  1.0000
  Fe  Fe23      1.0  0.38191  0.96490  0.78173  1.0000
  S   S44       1.0  0.35282  0.01353  0.78065  1.0000
  S   S45       1.0  0.43096  0.97090  0.74342  1.0000
  H   H123      1.0  0.50310  0.97361  0.70505  1.0000
  Fe  Fe24      1.0  0.28249  0.94777  0.78959  1.0000
  S   S46       1.0  0.21397  0.93215  0.76736  1.0000
  S   S47       1.0  0.39697  0.97442  0.83200  1.0000
  S   S48       1.0  0.31059  0.89890  0.78684  1.0000
  H   H124      1.0  0.18669  0.78182  0.88546  1.0000
  C   C129      1.0  0.18437  0.88512  0.74078  1.0000
  C   C130      1.0  0.20152  0.85538  0.73319  1.0000
  H   H125      1.0  0.16742  0.74895  0.81572  1.0000
  H   H126      1.0  0.23256  0.85968  0.74443  1.0000
  C   C131      1.0  0.47727  0.96034  0.75128  1.0000
  C   C132      1.0  0.48403  0.94832  0.78056  1.0000
  C   C133      1.0  0.19993  0.77974  0.82541  1.0000
  C   C134      1.0  0.50815  0.96440  0.72778  1.0000
  H   H127      1.0  0.46043  0.94488  0.79881  1.0000
  H   H128      1.0  0.22530  0.79922  0.80675  1.0000
  C   C135      1.0  0.54552  0.95650  0.73352  1.0000
  C   C136      1.0  0.28670  0.86090  0.90515  1.0000
  C   C137      1.0  0.29283  0.90488  0.91325  1.0000
  C   C138      1.0  0.27612  0.91082  0.94135  1.0000
  C   C139      1.0  0.25364  0.87293  0.96161  1.0000
  C   C140      1.0  0.24854  0.82920  0.95392  1.0000
  C   C141      1.0  0.26527  0.82326  0.92575  1.0000
  H   H129      1.0  0.31055  0.93443  0.89793  1.0000
  H   H130      1.0  0.28027  0.94472  0.94721  1.0000
  H   H131      1.0  0.23171  0.79997  0.96964  1.0000
  H   H132      1.0  0.26090  0.78929  0.91970  1.0000
  H   H133      1.0  0.16698  0.89966  0.82883  1.0000
  H   H134      1.0  0.52625  0.93119  0.80905  1.0000
  C   C142      1.0  0.52134  0.94048  0.78629  1.0000
  C   C143      1.0  0.12189  0.84448  0.70267  1.0000
  H   H135      1.0  0.23904  0.96762  0.69973  1.0000
  H   H136      1.0  0.09193  0.84132  0.69043  1.0000
  H   H137      1.0  0.34655  0.96564  0.71710  1.0000
  C   C144      1.0  0.32216  0.93912  0.70093  1.0000
  N   N12       1.0  0.28449  0.94104  0.68977  1.0000
  C   C145      1.0  0.27732  0.97966  0.69931  1.0000
  H   H138      1.0  0.06159  0.76717  0.98014  1.0000
  H   H139      1.0  0.15260  0.57389  0.00116  1.0000
  H   H140      1.0  0.29825  0.98701  0.00004  1.0000
  H   H141      1.0  0.34345  0.03407  0.95797  1.0000
  H   H142      1.0  0.58310  0.08150  0.17126  1.0000
  Fe  Fe25      1.0  0.84526  0.15485  0.31385  1.0000
  C   C146      1.0  0.70081  0.20374  0.33710  1.0000
  S   S49       1.0  0.92348  0.20097  0.30303  1.0000
  H   H143      1.0  0.93989  0.14468  0.22034  1.0000
  Fe  Fe26      1.0  0.74149  0.12192  0.30119  1.0000
  S   S50       1.0  0.70091  0.14070  0.26789  1.0000
  C   C147      1.0  0.56440  0.08429  0.29549  1.0000
  S   S51       1.0  0.78943  0.09609  0.28491  1.0000
  C   C148      1.0  0.73396  0.24074  0.31895  1.0000
  C   C149      1.0  0.64177  0.12678  0.27169  1.0000
  C   C150      1.0  0.62513  0.14920  0.25260  1.0000
  C   C151      1.0  0.57834  0.13930  0.25494  1.0000
  C   C152      1.0  0.61122  0.09432  0.29322  1.0000
  H   H144      1.0  0.64857  0.17442  0.23589  1.0000
  C   C153      1.0  0.91367  0.11418  0.23305  1.0000
  Fe  Fe27      1.0  0.76781  0.05290  0.32804  1.0000
  C   C154      1.0  0.97925  0.25936  0.20739  1.0000
  C   C155      1.0  0.01033  0.27149  0.23207  1.0000
  C   C156      1.0  0.99272  0.25400  0.26137  1.0000
  C   C157      1.0  0.94386  0.22483  0.26632  1.0000
  C   C158      1.0  0.91271  0.21340  0.24175  1.0000
  C   C159      1.0  0.93042  0.23031  0.21238  1.0000
  C   C160      1.0  0.77671  0.27549  0.33188  1.0000
  H   H145      1.0  0.01703  0.26291  0.28026  1.0000
  H   H146      1.0  0.87504  0.19096  0.24525  1.0000
  H   H147      1.0  0.90615  0.22087  0.19339  1.0000
  H   H148      1.0  0.56586  0.15658  0.24000  1.0000
  H   H149      1.0  0.66803  0.17656  0.32678  1.0000
  H   H150      1.0  0.86622  0.08278  0.19483  1.0000
  H   H151      1.0  0.80315  0.30377  0.31786  1.0000
  H   H152      1.0  0.72693  0.24144  0.29480  1.0000
  C   C161      1.0  0.92043  0.11020  0.26414  1.0000
  H   H153      1.0  0.04784  0.29375  0.22836  1.0000
  S   S52       1.0  0.99998  0.27770  0.16981  1.0000
  H   H154      1.0  0.95223  0.13795  0.27524  1.0000
  S   S53       1.0  0.79935  0.18369  0.32744  1.0000
  H   H155      1.0  0.04531  0.49981  0.06865  1.0000
  C   C162      1.0  0.87228  0.07947  0.21877  1.0000
  H   H156      1.0  0.62354  0.07665  0.30794  1.0000
  N   N13       1.0  0.88677  0.07285  0.28058  1.0000
  H   H157      1.0  0.56874  0.05154  0.22441  1.0000
  C   C163      1.0  0.89469  0.06978  0.31316  1.0000
  H   H158      1.0  0.91031  0.10530  0.32430  1.0000
  H   H159      1.0  0.86100  0.04586  0.32521  1.0000
  H   H160      1.0  0.91890  0.05613  0.31623  1.0000
  C   C164      1.0  0.83866  0.04081  0.23552  1.0000
  Fe  Fe28      1.0  0.93408  0.25373  0.56872  1.0000
  S   S54       1.0  0.90833  0.30334  0.55781  1.0000
  S   S55       1.0  0.88534  0.17519  0.57753  1.0000
  C   C165      1.0  0.94404  0.49728  0.57508  1.0000
  C   C166      1.0  0.75800  0.05295  0.55612  1.0000
  Fe  Fe29      1.0  0.97320  0.35808  0.58339  1.0000
  S   S56       1.0  0.97705  0.40997  0.61925  1.0000
  Fe  Fe30      1.0  0.95739  0.32383  0.51770  1.0000
  S   S57       1.0  0.94452  0.33256  0.46860  1.0000
  S   S58       1.0  0.99560  0.30669  0.59731  1.0000
  S   S59       1.0  0.97805  0.27011  0.52630  1.0000
  C   C167      1.0  0.75185  0.23509  0.38009  1.0000
  S   S60       1.0  0.76675  0.14828  0.41515  1.0000
  C   C168      1.0  0.97502  0.46015  0.60773  1.0000
  C   C169      1.0  0.99424  0.50012  0.62703  1.0000
  H   H161      1.0  0.94536  0.14410  0.60481  1.0000
  C   C170      1.0  0.95065  0.45920  0.58138  1.0000
  H   H162      1.0  0.92421  0.49582  0.55505  1.0000
  H   H163      1.0  0.68202  0.16740  0.41006  1.0000
  C   C171      1.0  0.89568  0.28074  0.45391  1.0000
  C   C172      1.0  0.89127  0.27237  0.42236  1.0000
  C   C173      1.0  0.85239  0.23094  0.41039  1.0000
  C   C174      1.0  0.81716  0.19858  0.42990  1.0000
  C   C175      1.0  0.82136  0.20713  0.46142  1.0000
  C   C176      1.0  0.86101  0.24778  0.47347  1.0000
  H   H164      1.0  0.91811  0.29772  0.40719  1.0000
  H   H165      1.0  0.84948  0.22443  0.38606  1.0000
  H   H166      1.0  0.79395  0.18240  0.47655  1.0000
  H   H167      1.0  0.86417  0.25420  0.49783  1.0000
  C   C177      1.0  0.86303  0.15420  0.61437  1.0000
  C   C178      1.0  0.83711  0.10513  0.61914  1.0000
  C   C179      1.0  0.81904  0.08678  0.64811  1.0000
  H   H168      1.0  0.83120  0.08106  0.60041  1.0000
  H   H169      1.0  0.85583  0.43830  0.62426  1.0000
  C   C180      1.0  0.85417  0.16660  0.66818  1.0000
  C   C181      1.0  0.98025  0.17580  0.60494  1.0000
  H   H170      1.0  0.89231  0.40194  0.65458  1.0000
  H   H171      1.0  0.01343  0.50121  0.64731  1.0000
  H   H172      1.0  0.79875  0.12122  0.53532  1.0000
  H   H173      1.0  0.79364  0.10009  0.46546  1.0000
  C   C182      1.0  0.98774  0.53816  0.62069  1.0000
  C   C183      1.0  0.78468  0.08343  0.53250  1.0000
  H   H174      1.0  0.84468  0.13439  0.48972  1.0000
  S   S61       1.0  0.82717  0.10970  0.35566  1.0000
  H   H175      1.0  0.75965  0.23262  0.40381  1.0000
  Fe  Fe31      1.0  0.77616  0.13304  0.36643  1.0000
  N   N14       1.0  0.99898  0.20141  0.63128  1.0000
  H   H176      1.0  0.63902  0.15164  0.38014  1.0000
  C   C184      1.0  0.89563  0.43507  0.66208  1.0000
  H   H177      1.0  0.98949  0.17116  0.55649  1.0000
  H   H178      1.0  0.89153  0.22294  0.63554  1.0000
  H   H179      1.0  0.75152  0.06697  0.57688  1.0000
  S   S62       1.0  0.01981  0.38293  0.54222  1.0000
  H   H180      1.0  0.93561  0.42849  0.56640  1.0000
  C   C185      1.0  0.87153  0.18501  0.63897  1.0000
  H   H181      1.0  0.01226  0.29910  0.44905  1.0000
  C   C186      1.0  0.00516  0.19078  0.57748  1.0000
  C   C187      1.0  0.81897  0.09802  0.48118  1.0000
  C   C188      1.0  0.04264  0.24186  0.63117  1.0000
  C   C189      1.0  0.67569  0.16047  0.38512  1.0000
  H   H182      1.0  0.83930  0.08553  0.46795  1.0000
  H   H183      1.0  0.67894  0.12929  0.37947  1.0000
  H   H184      1.0  0.04352  0.37429  0.47991  1.0000
  C   C190      1.0  0.87521  0.45553  0.64502  1.0000
  C   C191      1.0  0.96186  0.53652  0.59499  1.0000
  N   N15       1.0  0.70996  0.20128  0.36723  1.0000
  H   H185      1.0  0.04085  0.30180  0.41373  1.0000
  H   H186      1.0  0.86685  0.51598  0.64058  1.0000
  Fe  Fe32      1.0  0.03726  0.32752  0.55363  1.0000
  C   C192      1.0  0.97207  0.18649  0.65980  1.0000
  C   C193      1.0  0.88154  0.49917  0.65412  1.0000
  C   C194      1.0  0.82770  0.11739  0.67283  1.0000
  H   H187      1.0  0.01388  0.33731  0.41938  1.0000
  S   S63       1.0  0.71472  0.07315  0.34151  1.0000
  H   H188      1.0  0.79883  0.04888  0.65136  1.0000
  C   C195      1.0  0.03439  0.32332  0.43051  1.0000
  H   H189      1.0  0.93824  0.15203  0.65720  1.0000
  H   H190      1.0  0.96312  0.21332  0.66719  1.0000
  C   C196      1.0  0.78579  0.27277  0.36268  1.0000
  N   N16       1.0  0.79323  0.06594  0.50640  1.0000
  H   H191      1.0  0.56553  0.52936  0.44545  1.0000
  H   H192      1.0  0.55906  0.50251  0.39190  1.0000
  H   H193      1.0  0.81934  0.29888  0.37288  1.0000
  C   C197      1.0  0.04979  0.23181  0.57719  1.0000
  H   H194      1.0  0.94005  0.44362  0.70017  1.0000
  C   C198      1.0  0.57166  0.45852  0.93510  1.0000
  H   H195      1.0  0.64288  0.09621  0.71622  1.0000
  C   C199      1.0  0.60140  0.48372  0.91062  1.0000
  H   H196      1.0  0.99298  0.18234  0.67802  1.0000
  H   H197      1.0  0.86099  0.19053  0.68719  1.0000
  C   C200      1.0  0.58322  0.47840  0.96444  1.0000
  S   S64       1.0  0.80688  0.09492  0.70973  1.0000
  C   C201      1.0  0.65441  0.08571  0.73624  1.0000
  H   H198      1.0  0.59271  0.46856  0.88787  1.0000
  C   C202      1.0  0.90868  0.52198  0.68010  1.0000
  H   H199      1.0  0.72345  0.10725  0.71812  1.0000
  H   H200      1.0  0.58802  0.05830  0.75984  1.0000
  C   C203      1.0  0.62438  0.52301  0.96921  1.0000
  C   C204      1.0  0.71304  0.07632  0.76276  1.0000
  H   H201      1.0  0.74764  0.07999  0.76292  1.0000
  N   N17       1.0  0.92957  0.50225  0.69625  1.0000
  C   C205      1.0  0.92304  0.45914  0.68773  1.0000
  C   C206      1.0  0.69949  0.09187  0.73728  1.0000
  C   C207      1.0  0.62376  0.06478  0.76076  1.0000
  H   H202      1.0  0.93606  0.52866  0.74143  1.0000
  H   H203      1.0  0.56058  0.45934  0.98345  1.0000
  C   C208      1.0  0.63860  0.04993  0.78596  1.0000
  C   C209      1.0  0.95870  0.52775  0.72293  1.0000
  N   N18       1.0  0.68276  0.05585  0.78674  1.0000
  C   C210      1.0  0.64254  0.52828  0.91539  1.0000
  H   H204      1.0  0.73530  0.05414  0.81440  1.0000
  H   H205      1.0  0.97829  0.51125  0.73185  1.0000
  H   H206      1.0  0.63313  0.53812  0.99198  1.0000
  H   H207      1.0  0.68333  0.04382  0.83438  1.0000
  C   C211      1.0  0.01108  0.80610  0.03682  1.0000
  C   C212      1.0  0.96278  0.78017  0.02989  1.0000
  H   H208      1.0  0.93942  0.75073  0.04438  1.0000
  H   H209      1.0  0.82022  0.00787  0.27948  1.0000
  H   H210      1.0  0.02469  0.79646  0.05625  1.0000
  C   C213      1.0  0.04191  0.84266  0.01764  1.0000
  H   H211      1.0  0.80623  0.01365  0.22472  1.0000
  H   H212      1.0  0.87711  0.78019  0.00809  1.0000
  S   S65       1.0  0.75770  0.97951  0.33093  1.0000
  C   C214      1.0  0.84673  0.03782  0.26655  1.0000
  S   S66       1.0  0.01321  0.70188  0.03016  1.0000
  S   S67       1.0  0.66699  0.92284  0.62292  1.0000
  Fe  Fe33      1.0  0.67677  0.74794  0.52599  1.0000
  S   S68       1.0  0.74838  0.81253  0.51992  1.0000
  S   S69       1.0  0.64298  0.73222  0.57204  1.0000
  Fe  Fe34      1.0  0.66907  0.71580  0.46043  1.0000
  S   S70       1.0  0.74116  0.77755  0.44876  1.0000
  S   S71       1.0  0.62337  0.66399  0.42332  1.0000
  Fe  Fe35      1.0  0.76391  0.76306  0.49405  1.0000
  S   S72       1.0  0.83168  0.76251  0.50142  1.0000
  Fe  Fe36      1.0  0.71929  0.82155  0.47564  1.0000
  S   S73       1.0  0.72690  0.89266  0.46429  1.0000
  S   S74       1.0  0.69377  0.69750  0.50303  1.0000
  S   S75       1.0  0.64580  0.76061  0.48441  1.0000
  C   C215      1.0  0.61028  0.80781  0.42836  1.0000
  Fe  Fe37      1.0  0.94156  0.71079  0.64272  1.0000
  H   H213      1.0  0.00215  0.56834  0.63598  1.0000
  S   S76       1.0  0.88863  0.73416  0.63471  1.0000
  S   S77       1.0  0.90894  0.63312  0.65193  1.0000
  Fe  Fe38      1.0  0.96853  0.63832  0.62422  1.0000
  S   S78       1.0  0.94890  0.58148  0.58811  1.0000
  N   N19       1.0  0.60374  0.77010  0.41102  1.0000
  S   S79       1.0  0.99817  0.71487  0.61201  1.0000
  C   C216      1.0  0.56422  0.62094  0.43173  1.0000
  H   H214      1.0  0.71935  0.98049  0.57117  1.0000
  C   C217      1.0  0.73601  0.91602  0.42694  1.0000
  C   C218      1.0  0.73419  0.95719  0.42216  1.0000
  H   H215      1.0  0.72100  0.72403  0.61413  1.0000
  C   C219      1.0  0.74938  0.95540  0.36800  1.0000
  C   C220      1.0  0.75045  0.91375  0.37262  1.0000
  C   C221      1.0  0.74409  0.89426  0.40202  1.0000
  H   H216      1.0  0.72671  0.97364  0.44103  1.0000
  H   H217      1.0  0.62416  0.74942  0.37015  1.0000
  H   H218      1.0  0.74584  0.86270  0.40542  1.0000
  C   C222      1.0  0.84893  0.75853  0.53896  1.0000
  C   C223      1.0  0.81978  0.75172  0.56399  1.0000
  C   C224      1.0  0.83297  0.74535  0.59330  1.0000
  C   C225      1.0  0.87492  0.74499  0.59777  1.0000
  C   C226      1.0  0.90433  0.75235  0.57283  1.0000
  C   C227      1.0  0.89155  0.75951  0.54360  1.0000
  H   H219      1.0  0.78684  0.75074  0.56064  1.0000
  H   H220      1.0  0.81019  0.73983  0.61253  1.0000
  H   H221      1.0  0.93696  0.75267  0.57605  1.0000
  H   H222      1.0  0.91439  0.76507  0.52438  1.0000
  C   C228      1.0  0.65554  0.86796  0.60888  1.0000
  C   C229      1.0  0.64289  0.82994  0.62845  1.0000
  C   C230      1.0  0.63667  0.78720  0.61683  1.0000
  C   C231      1.0  0.64451  0.78307  0.58585  1.0000
  C   C232      1.0  0.65663  0.82094  0.56629  1.0000
  C   C233      1.0  0.66146  0.86306  0.57771  1.0000
  H   H223      1.0  0.63781  0.83340  0.65249  1.0000
  H   H224      1.0  0.62708  0.75785  0.63198  1.0000
  H   H225      1.0  0.66237  0.81788  0.54232  1.0000
  H   H226      1.0  0.67069  0.89213  0.56245  1.0000
  H   H227      1.0  0.92747  0.60981  0.52652  1.0000
  C   C234      1.0  0.74129  0.97705  0.39294  1.0000
  Fe  Fe39      1.0  0.04139  0.73102  0.65530  1.0000
  H   H228      1.0  0.77479  0.63960  0.56094  1.0000
  H   H229      1.0  0.87699  0.65971  0.49315  1.0000
  C   C235      1.0  0.87441  0.63407  0.56744  1.0000
  H   H230      1.0  0.73992  0.00886  0.38965  1.0000
  C   C236      1.0  0.74515  0.79865  0.61453  1.0000
  H   H231      1.0  0.82140  0.62596  0.59979  1.0000
  H   H232      1.0  0.80297  0.65649  0.50739  1.0000
  H   H233      1.0  0.94964  0.66676  0.50844  1.0000
  N   N20       1.0  0.74955  0.83614  0.63111  1.0000
  C   C237      1.0  0.74888  0.98683  0.52622  1.0000
  H   H234      1.0  0.78213  0.00418  0.48235  1.0000
  H   H235      1.0  0.75435  0.80251  0.59053  1.0000
  C   C238      1.0  0.76856  0.88245  0.61666  1.0000
  N   N21       1.0  0.89022  0.64437  0.53805  1.0000
  C   C239      1.0  0.86445  0.65120  0.51643  1.0000
  C   C240      1.0  0.82218  0.64883  0.52424  1.0000
  C   C241      1.0  0.83254  0.63186  0.57612  1.0000
  C   C242      1.0  0.80639  0.63943  0.55434  1.0000
  C   C243      1.0  0.72645  0.75407  0.62783  1.0000
  C   C244      1.0  0.56578  0.72571  0.41604  1.0000
  H   H236      1.0  0.96122  0.66400  0.54799  1.0000
  H   H237      1.0  0.89469  0.62835  0.58445  1.0000
  H   H238      1.0  0.64089  0.84281  0.42486  1.0000
  H   H239      1.0  0.56829  0.63963  0.47931  1.0000
  H   H240      1.0  0.75335  0.90257  0.62715  1.0000
  H   H241      1.0  0.75900  0.87825  0.59203  1.0000
  C   C245      1.0  0.93420  0.64634  0.52966  1.0000
  H   H242      1.0  0.65563  0.81207  0.37773  1.0000
  C   C246      1.0  0.73757  0.83100  0.66132  1.0000
  C   C247      1.0  0.63958  0.77670  0.38860  1.0000
  H   H243      1.0  0.66782  0.77355  0.40011  1.0000
  H   H244      1.0  0.80758  0.90333  0.61920  1.0000
  H   H245      1.0  0.75679  0.89683  0.35346  1.0000
  H   H246      1.0  0.73494  0.94906  0.52331  1.0000
  H   H247      1.0  0.69794  0.71372  0.66895  1.0000
  H   H248      1.0  0.58441  0.83143  0.46563  1.0000
  C   C248      1.0  0.57834  0.80155  0.45148  1.0000
  S   S80       1.0  0.01612  0.65461  0.66459  1.0000
  C   C249      1.0  0.74007  0.00439  0.55294  1.0000
  C   C250      1.0  0.77560  0.01829  0.50303  1.0000
  C   C251      1.0  0.71317  0.74825  0.65846  1.0000
  H   H249      1.0  0.56096  0.69570  0.40259  1.0000
  Fe  Fe40      1.0  0.72690  0.91474  0.72815  1.0000
  S   S81       1.0  0.65171  0.88371  0.71238  1.0000
  S   S82       1.0  0.75282  0.86468  0.73993  1.0000
  H   H250      1.0  0.98521  0.56498  0.71684  1.0000
  S   S83       1.0  0.67918  0.99291  0.69657  1.0000
  Fe  Fe41      1.0  0.65500  0.94544  0.73728  1.0000
  S   S84       1.0  0.60020  0.93714  0.77185  1.0000
  C   C252      1.0  0.89419  0.74374  0.72241  1.0000
  S   S85       1.0  0.72878  0.97379  0.75552  1.0000
  H   H251      1.0  0.65934  0.73077  0.85783  1.0000
  Fe  Fe42      1.0  0.75397  0.64851  0.91344  1.0000
  S   S86       1.0  0.80427  0.72536  0.92541  1.0000
  S   S87       1.0  0.70445  0.60478  0.95155  1.0000
  Fe  Fe43      1.0  0.78925  0.66208  0.84831  1.0000
  S   S88       1.0  0.84219  0.73912  0.85552  1.0000
  S   S89       1.0  0.77627  0.63466  0.80002  1.0000
  Fe  Fe44      1.0  0.85819  0.71623  0.89993  1.0000
  S   S90       1.0  0.93600  0.75292  0.91316  1.0000
  Fe  Fe45      1.0  0.78393  0.74112  0.87999  1.0000
  S   S91       1.0  0.76680  0.79899  0.87392  1.0000
  S   S92       1.0  0.80945  0.63822  0.89068  1.0000
  S   S93       1.0  0.72959  0.66529  0.87025  1.0000
  H   H252      1.0  0.03020  0.78636  0.93448  1.0000
  S   S94       1.0  0.94217  0.62299  0.73759  1.0000
  C   C253      1.0  0.82124  0.62902  0.78315  1.0000
  C   C254      1.0  0.82358  0.62765  0.75127  1.0000
  C   C255      1.0  0.86047  0.62534  0.73715  1.0000
  C   C256      1.0  0.89457  0.62346  0.75493  1.0000
  C   C257      1.0  0.89160  0.62363  0.78682  1.0000
  C   C258      1.0  0.85511  0.62676  0.80095  1.0000
  H   H253      1.0  0.79724  0.62920  0.73750  1.0000
  H   H254      1.0  0.86246  0.62508  0.71255  1.0000
  H   H255      1.0  0.91790  0.62207  0.80063  1.0000
  H   H256      1.0  0.85307  0.62726  0.82559  1.0000
  C   C259      1.0  0.60529  0.61713  0.88297  1.0000
  H   H257      1.0  0.96303  0.74986  0.79886  1.0000
  C   C260      1.0  0.66172  0.70957  0.90394  1.0000
  C   C261      1.0  0.76159  0.81606  0.83656  1.0000
  C   C262      1.0  0.75232  0.85286  0.83267  1.0000
  C   C263      1.0  0.74862  0.86763  0.80323  1.0000
  C   C264      1.0  0.75420  0.84567  0.77744  1.0000
  C   C265      1.0  0.76250  0.80823  0.78136  1.0000
  C   C266      1.0  0.76626  0.79349  0.81075  1.0000
  H   H258      1.0  0.74847  0.87038  0.85250  1.0000
  H   H259      1.0  0.74210  0.89641  0.80053  1.0000
  H   H260      1.0  0.76571  0.79037  0.76153  1.0000
  H   H261      1.0  0.77271  0.76465  0.81343  1.0000
  C   C267      1.0  0.95752  0.73296  0.94292  1.0000
  C   C268      1.0  0.02412  0.85314  0.99196  1.0000
  H   H262      1.0  0.94462  0.78505  0.81933  1.0000
  C   C269      1.0  0.92694  0.69578  0.96195  1.0000
  C   C270      1.0  0.88415  0.77966  0.77745  1.0000
  H   H263      1.0  0.88938  0.67610  0.95719  1.0000
  Fe  Fe46      1.0  0.95923  0.65616  0.69130  1.0000
  H   H264      1.0  0.60831  0.64769  0.83905  1.0000
  H   H265      1.0  0.68481  0.74584  0.91173  1.0000
  H   H266      1.0  0.56915  0.95979  0.71532  1.0000
  C   C271      1.0  0.65427  0.54798  0.94476  1.0000
  H   H267      1.0  0.58411  0.58070  0.87499  1.0000
  S   S95       1.0  0.75775  0.96014  0.68649  1.0000
  H   H268      1.0  0.61375  0.03159  0.80427  1.0000
  N   N22       1.0  0.64822  0.67263  0.92349  1.0000
  C   C272      1.0  0.97560  0.82646  0.98569  1.0000
  C   C273      1.0  0.66563  0.68262  0.95503  1.0000
  S   S96       1.0  0.98742  0.73358  0.68499  1.0000
  H   H269      1.0  0.74144  0.86075  0.67460  1.0000
  H   H270      1.0  0.89750  0.72872  0.70110  1.0000
  C   C274      1.0  0.02416  0.74693  0.97504  1.0000
  C   C275      1.0  0.86758  0.76555  0.72350  1.0000
  C   C276      1.0  0.71900  0.78699  0.67541  1.0000
  H   H271      1.0  0.87936  0.79325  0.79893  1.0000
  C   C277      1.0  0.99329  0.71134  0.99493  1.0000
  C   C278      1.0  0.93220  0.75372  0.80399  1.0000
  H   H272      1.0  0.84184  0.80076  0.75236  1.0000
  H   H273      1.0  0.64794  0.65028  0.96935  1.0000
  H   H274      1.0  0.70876  0.78304  0.69926  1.0000
  C   C279      1.0  0.64724  0.70122  0.87338  1.0000
  H   H275      1.0  0.70410  0.69564  0.95532  1.0000
  N   N23       1.0  0.91087  0.75885  0.77606  1.0000
  C   C280      1.0  0.86254  0.78378  0.75117  1.0000
  C   C281      1.0  0.91591  0.74083  0.74903  1.0000
  H   H276      1.0  0.92070  0.65744  0.00313  1.0000
  H   H277      1.0  0.90570  0.72170  0.81643  1.0000
  H   H278      1.0  0.85078  0.76804  0.70290  1.0000
  C   C282      1.0  0.89497  0.76285  0.99750  1.0000
  C   C283      1.0  0.62040  0.62684  0.91339  1.0000
  C   C284      1.0  0.94477  0.68527  0.98797  1.0000
  C   C285      1.0  0.00628  0.75773  0.94918  1.0000
  Fe  Fe47      1.0  0.75262  0.01632  0.71222  1.0000
  C   C286      1.0  0.61885  0.65465  0.86287  1.0000
  H   H279      1.0  0.65945  0.70973  0.96558  1.0000
  H   H280      1.0  0.93624  0.72342  0.74799  1.0000
  H   H281      1.0  0.61036  0.59746  0.92870  1.0000
  H   H282      1.0  0.96218  0.83377  0.96514  1.0000
  H   H283      1.0  0.04786  0.88086  0.97656  1.0000
  H   H284      1.0  0.66522  0.54724  0.89638  1.0000
  H   H285      1.0  0.88866  0.75991  0.97241  1.0000
  H   H286      1.0  0.68058  0.99841  0.80958  1.0000
  H   H287      1.0  0.91374  0.55601  0.68702  1.0000
  C   C287      1.0  0.55220  0.94451  0.76286  1.0000
  C   C288      1.0  0.69631  0.03730  0.81257  1.0000
  N   N24       1.0  0.94573  0.79015  0.00438  1.0000
  H   H288      1.0  0.87853  0.72592  0.00596  1.0000
  Fe  Fe48      1.0  0.68282  0.93405  0.67317  1.0000
