data_image0
_chemical_formula_structural       FeSC2HS4HCSH2FeH4C7H3CSHNHCHCFe2HCH3C2NHCHC2HCHSFeSCFeCSH4FeCHCHC4SCH5CH2NC2SH2SCHC2HC2HSHC3HC4NH3C2FeH4CH3C2HNCSFeSC2H2CHCH2C6HNHC2SH3CH2C2H2CH2CSFeHFeH2CH3C3SFeS2CS2HC7H4NH3C4H2CH2C3HCSCHCH2CN2CH4C2HSHCS2FeSFeH2CSC4HSH2CHC2FeCSCHCH2C2H2C2NH3C3SFeSC2NHCHC2SH7C2H2CHCHC2HCSHC5H2SFeSHS3FeSFeHC6H6CSHNC3H3FeCHC2HCSHCHCHSCHSFeHC2SH2C2HC2H2NH3SC2H2SFeSCS2FeSHC6H4SFeHCH3C2H4SC7HFeCHNCSCSHC2HNH3Fe3SHSFeSCHC2HC6H7CNCHSCH2SCSFeSCFeCSHFeH
_chemical_formula_sum              "Fe32 S64 C192 H192 N16"
_cell_length_a       26.673
_cell_length_b       26.3046
_cell_length_c       41
_cell_angle_alpha    89.9152
_cell_angle_beta     90.6009
_cell_angle_gamma    89.8102

_space_group_name_H-M_alt    "P 1"
_space_group_IT_number       1

loop_
  _space_group_symop_operation_xyz
  'x, y, z'

loop_
  _atom_site_type_symbol
  _atom_site_label
  _atom_site_symmetry_multiplicity
  _atom_site_fract_x
  _atom_site_fract_y
  _atom_site_fract_z
  _atom_site_occupancy
  Fe  Fe1       1.0  0.24949  0.06574  0.12238  1.0000
  S   S1        1.0  0.17521  0.10665  0.13371  1.0000
  C   C1        1.0  0.08367  0.25342  0.11160  1.0000
  C   C2        1.0  0.12056  0.36349  0.16441  1.0000
  H   H1        1.0  0.09830  0.37885  0.18497  1.0000
  S   S2        1.0  0.32897  0.09015  0.11201  1.0000
  S   S3        1.0  0.43009  0.01992  0.16439  1.0000
  S   S4        1.0  0.09906  0.28394  0.22840  1.0000
  S   S5        1.0  0.35733  0.07141  0.01951  1.0000
  H   H2        1.0  0.37400  0.00668  0.22522  1.0000
  C   C3        1.0  0.11209  0.28687  0.13073  1.0000
  S   S6        1.0  0.99974  0.39447  0.22598  1.0000
  H   H3        1.0  0.13414  0.39532  0.14911  1.0000
  H   H4        1.0  0.48586  0.15732  0.06588  1.0000
  Fe  Fe2       1.0  0.32526  0.04067  0.06718  1.0000
  H   H5        1.0  0.22916  0.17819  0.17698  1.0000
  H   H6        1.0  0.10091  0.21946  0.10160  1.0000
  H   H7        1.0  0.15138  0.27826  0.13521  1.0000
  H   H8        1.0  0.13209  0.02190  0.09916  1.0000
  C   C4        1.0  0.03272  0.26317  0.10653  1.0000
  C   C5        1.0  0.15550  0.15375  0.16217  1.0000
  C   C6        1.0  0.10376  0.16236  0.16604  1.0000
  C   C7        1.0  0.08589  0.20113  0.18673  1.0000
  C   C8        1.0  0.11961  0.23212  0.20382  1.0000
  C   C9        1.0  0.17138  0.22315  0.20029  1.0000
  C   C10       1.0  0.18928  0.18421  0.17964  1.0000
  H   H9        1.0  0.07717  0.13908  0.15277  1.0000
  H   H10       1.0  0.04600  0.20726  0.18922  1.0000
  H   H11       1.0  0.19789  0.24668  0.21346  1.0000
  C   C11       1.0  0.01105  0.30647  0.12012  1.0000
  S   S7        1.0  0.24361  0.02273  0.07482  1.0000
  H   H12       1.0  0.00999  0.23711  0.09226  1.0000
  N   N1        1.0  0.09023  0.32858  0.14463  1.0000
  H   H13       1.0  0.02339  0.37266  0.14956  1.0000
  C   C12       1.0  0.04061  0.33913  0.13906  1.0000
  H   H14       1.0  0.15310  0.34343  0.17584  1.0000
  C   C13       1.0  0.46256  0.12793  0.05372  1.0000
  Fe  Fe3       1.0  0.35358  0.01836  0.13813  1.0000
  Fe  Fe4       1.0  0.01795  0.31110  0.23412  1.0000
  H   H15       1.0  0.42426  0.12865  0.06425  1.0000
  C   C14       1.0  0.47207  0.04703  0.08300  1.0000
  H   H16       1.0  0.45773  0.13744  0.02744  1.0000
  H   H17       1.0  0.43496  0.16168  0.29385  1.0000
  H   H18       1.0  0.44021  0.11044  0.26492  1.0000
  C   C15       1.0  0.44851  0.01095  0.20589  1.0000
  C   C16       1.0  0.45410  0.12506  0.28879  1.0000
  N   N2        1.0  0.48592  0.07775  0.05773  1.0000
  H   H19       1.0  0.44310  0.05903  0.09971  1.0000
  C   C17       1.0  0.40704  0.04411  0.99677  1.0000
  H   H20       1.0  0.44339  0.09665  0.30760  1.0000
  C   C18       1.0  0.41369  0.00629  0.23096  1.0000
  C   C19       1.0  0.40974  0.03287  0.50915  1.0000
  H   H21       1.0  0.01818  0.38730  0.40461  1.0000
  C   C20       1.0  0.42317  0.05018  0.47796  1.0000
  H   H22       1.0  0.39743  0.07410  0.46426  1.0000
  S   S8        1.0  0.23593  0.01935  0.57684  1.0000
  Fe  Fe5       1.0  0.23183  0.07085  0.62072  1.0000
  S   S9        1.0  0.16195  0.12155  0.62392  1.0000
  C   C21       1.0  0.14505  0.16704  0.65381  1.0000
  Fe  Fe6       1.0  0.32977  0.02735  0.64981  1.0000
  C   C22       1.0  0.03135  0.35414  0.62708  1.0000
  S   S10       1.0  0.31265  0.09342  0.61606  1.0000
  H   H23       1.0  0.48064  0.05297  0.44106  1.0000
  H   H24       1.0  0.02195  0.41425  0.66170  1.0000
  H   H25       1.0  0.05151  0.29189  0.59564  1.0000
  H   H26       1.0  0.48793  0.06524  0.64350  1.0000
  Fe  Fe7       1.0  0.31857  0.03604  0.57563  1.0000
  C   C23       1.0  0.04771  0.38605  0.65226  1.0000
  H   H27       1.0  0.41414  0.12498  0.57741  1.0000
  C   C24       1.0  0.45855  0.07001  0.62428  1.0000
  H   H28       1.0  0.07043  0.17571  0.63383  1.0000
  C   C25       1.0  0.12707  0.34490  0.65346  1.0000
  C   C26       1.0  0.47031  0.03818  0.46468  1.0000
  C   C27       1.0  0.09634  0.18770  0.65277  1.0000
  C   C28       1.0  0.06392  0.31736  0.61486  1.0000
  S   S11       1.0  0.35257  0.05464  0.52618  1.0000
  C   C29       1.0  0.11220  0.31277  0.62799  1.0000
  H   H29       1.0  0.02436  0.45450  0.33036  1.0000
  H   H30       1.0  0.43806  0.03355  0.62158  1.0000
  H   H31       1.0  0.43194  0.09924  0.63342  1.0000
  H   H32       1.0  0.13736  0.28328  0.61934  1.0000
  H   H33       1.0  0.07408  0.06577  0.65318  1.0000
  C   C30       1.0  0.45215  0.11365  0.57152  1.0000
  H   H34       1.0  0.05972  0.50435  0.37664  1.0000
  H   H35       1.0  0.44844  0.14811  0.52372  1.0000
  N   N3        1.0  0.48006  0.08513  0.59299  1.0000
  C   C31       1.0  0.47144  0.12706  0.54110  1.0000
  C   C32       1.0  0.00124  0.48210  0.34275  1.0000
  S   S12       1.0  0.24799  0.00795  0.65651  1.0000
  H   H36       1.0  0.01686  0.45277  0.44803  1.0000
  H   H37       1.0  0.07165  0.01938  0.68590  1.0000
  S   S13       1.0  0.09633  0.28591  0.72989  1.0000
  C   C33       1.0  0.07926  0.12037  0.72459  1.0000
  H   H38       1.0  0.11909  0.11468  0.72886  1.0000
  C   C34       1.0  0.00255  0.16408  0.73810  1.0000
  C   C35       1.0  0.42986  0.01999  0.71491  1.0000
  H   H39       1.0  0.41343  0.10938  0.96521  1.0000
  C   C36       1.0  0.42845  0.07220  0.97119  1.0000
  C   C37       1.0  0.08069  0.22346  0.67613  1.0000
  H   H40       1.0  0.07311  0.17659  0.76281  1.0000
  S   S14       1.0  0.38387  0.05182  0.69061  1.0000
  H   H41       1.0  0.43044  0.07557  0.86906  1.0000
  C   C38       1.0  0.00502  0.10347  0.69404  1.0000
  C   C39       1.0  0.17815  0.18282  0.67844  1.0000
  C   C40       1.0  0.45957  0.04886  0.73654  1.0000
  H   H42       1.0  0.15065  0.42747  0.68797  1.0000
  C   C41       1.0  0.40611  0.03887  0.82460  1.0000
  C   C42       1.0  0.11397  0.23985  0.70048  1.0000
  C   C43       1.0  0.16276  0.21936  0.70148  1.0000
  C   C44       1.0  0.46986  0.05315  0.95377  1.0000
  N   N4        1.0  0.05508  0.09538  0.69977  1.0000
  H   H43       1.0  0.18884  0.23169  0.72025  1.0000
  H   H44       1.0  0.21577  0.16728  0.67953  1.0000
  H   H45       1.0  0.45461  0.08968  0.73748  1.0000
  C   C45       1.0  0.49544  0.02545  0.75722  1.0000
  C   C46       1.0  0.05343  0.15526  0.74401  1.0000
  Fe  Fe8       1.0  0.01680  0.31672  0.73549  1.0000
  H   H46       1.0  0.11025  0.39278  0.71518  1.0000
  H   H47       1.0  0.08747  0.44859  0.69401  1.0000
  H   H48       1.0  0.04309  0.23876  0.67498  1.0000
  H   H49       1.0  0.38899  0.07281  0.81426  1.0000
  C   C47       1.0  0.11164  0.41426  0.69183  1.0000
  H   H50       1.0  0.00646  0.49258  0.81326  1.0000
  H   H51       1.0  0.12369  0.06269  0.68241  1.0000
  H   H52       1.0  0.48674  0.07578  0.93479  1.0000
  C   C48       1.0  0.42950  0.04048  0.85519  1.0000
  C   C49       1.0  0.08233  0.05888  0.67948  1.0000
  H   H53       1.0  0.16387  0.33966  0.66453  1.0000
  N   N5        1.0  0.09520  0.38146  0.66491  1.0000
  C   C50       1.0  0.05782  0.93115  0.06554  1.0000
  S   S15       1.0  0.35240  0.97013  0.09256  1.0000
  Fe  Fe9       1.0  0.27090  0.95544  0.10337  1.0000
  S   S16       1.0  0.23123  0.87845  0.10173  1.0000
  C   C51       1.0  0.08365  0.97698  0.06868  1.0000
  C   C52       1.0  0.43023  0.00160  0.26364  1.0000
  H   H54       1.0  0.17740  0.93487  0.15161  1.0000
  H   H55       1.0  0.41060  0.97391  0.02366  1.0000
  C   C53       1.0  0.11189  0.98631  0.09700  1.0000
  H   H56       1.0  0.20885  0.69128  0.03896  1.0000
  C   C54       1.0  0.49458  0.99941  0.08752  1.0000
  H   H57       1.0  0.04208  0.85882  0.08781  1.0000
  H   H58       1.0  0.16700  0.79122  0.09898  1.0000
  C   C55       1.0  0.18610  0.85899  0.07223  1.0000
  C   C56       1.0  0.17626  0.88737  0.04402  1.0000
  C   C57       1.0  0.14046  0.87027  0.02103  1.0000
  C   C58       1.0  0.11378  0.82492  0.02609  1.0000
  C   C59       1.0  0.12333  0.79667  0.05442  1.0000
  C   C60       1.0  0.15956  0.81351  0.07725  1.0000
  H   H59       1.0  0.19646  0.92233  0.03979  1.0000
  N   N6        1.0  0.11434  0.95091  0.12146  1.0000
  H   H60       1.0  0.10322  0.76162  0.05857  1.0000
  C   C61       1.0  0.14423  0.96057  0.15100  1.0000
  C   C62       1.0  0.42669  0.99608  0.00417  1.0000
  S   S17       1.0  0.27438  0.99707  0.15150  1.0000
  H   H61       1.0  0.15787  0.00046  0.15207  1.0000
  H   H62       1.0  0.12148  0.95399  0.17311  1.0000
  H   H63       1.0  0.03665  0.92278  0.04342  1.0000
  C   C63       1.0  0.08977  0.90557  0.11836  1.0000
  H   H64       1.0  0.09328  0.87681  0.13723  1.0000
  H   H65       1.0  0.13342  0.89234  0.99915  1.0000
  C   C64       1.0  0.06081  0.89518  0.09051  1.0000
  C   C65       1.0  0.48168  0.00157  0.27176  1.0000
  H   H66       1.0  0.25110  0.77473  0.03226  1.0000
  H   H67       1.0  0.40288  0.99854  0.28285  1.0000
  C   C66       1.0  0.20272  0.71347  0.01694  1.0000
  H   H68       1.0  0.01843  0.55161  0.13727  1.0000
  H   H69       1.0  0.48291  0.97510  0.10748  1.0000
  C   C67       1.0  0.22658  0.76019  0.01313  1.0000
  S   S18       1.0  0.03900  0.65440  0.99754  1.0000
  Fe  Fe10      1.0  0.01697  0.73684  0.99680  1.0000
  H   H70       1.0  0.08242  0.00483  0.04916  1.0000
  Fe  Fe11      1.0  0.02227  0.73330  0.49284  1.0000
  H   H71       1.0  0.32774  0.94643  0.53739  1.0000
  H   H72       1.0  0.20992  0.84085  0.47318  1.0000
  C   C68       1.0  0.24627  0.91346  0.47697  1.0000
  H   H73       1.0  0.24942  0.78824  0.55195  1.0000
  H   H74       1.0  0.21014  0.77983  0.51689  1.0000
  H   H75       1.0  0.30720  0.85908  0.55538  1.0000
  C   C69       1.0  0.30188  0.92341  0.52323  1.0000
  C   C70       1.0  0.29049  0.87384  0.53303  1.0000
  C   C71       1.0  0.24820  0.79213  0.52492  1.0000
  S   S19       1.0  0.34050  0.97137  0.60870  1.0000
  Fe  Fe12      1.0  0.25678  0.95786  0.61211  1.0000
  S   S20       1.0  0.22203  0.87875  0.60826  1.0000
  S   S21       1.0  0.01705  0.57547  0.42144  1.0000
  C   C72       1.0  0.23620  0.86375  0.48721  1.0000
  S   S22       1.0  0.07671  0.80059  0.49460  1.0000
  S   S23       1.0  0.03933  0.65029  0.49999  1.0000
  H   H76       1.0  0.43356  0.98817  0.55053  1.0000
  C   C73       1.0  0.27946  0.94335  0.49512  1.0000
  C   C74       1.0  0.17570  0.86058  0.57896  1.0000
  C   C75       1.0  0.16325  0.89153  0.55228  1.0000
  C   C76       1.0  0.13121  0.87325  0.52737  1.0000
  C   C77       1.0  0.11057  0.82417  0.52896  1.0000
  C   C78       1.0  0.12118  0.79402  0.55636  1.0000
  C   C79       1.0  0.15378  0.81208  0.58110  1.0000
  H   H77       1.0  0.17961  0.92890  0.55020  1.0000
  H   H78       1.0  0.12311  0.89698  0.50638  1.0000
  H   H79       1.0  0.10576  0.75610  0.55791  1.0000
  H   H80       1.0  0.16303  0.78778  0.60163  1.0000
  N   N7        1.0  0.25794  0.84476  0.51508  1.0000
  H   H81       1.0  0.27654  0.76638  0.51411  1.0000
  H   H82       1.0  0.22829  0.92872  0.45520  1.0000
  H   H83       1.0  0.28779  0.98202  0.48759  1.0000
  C   C80       1.0  0.44332  0.00183  0.52654  1.0000
  C   C81       1.0  0.49063  0.99011  0.51334  1.0000
  C   C82       1.0  0.02122  0.51052  0.36898  1.0000
  C   C83       1.0  0.46764  0.97678  0.98652  1.0000
  H   H84       1.0  0.41418  0.94451  0.69752  1.0000
  H   H85       1.0  0.44981  0.87686  0.86757  1.0000
  C   C84       1.0  0.42962  0.95054  0.82006  1.0000
  H   H86       1.0  0.48280  0.93975  0.99272  1.0000
  H   H87       1.0  0.23391  0.82646  0.98270  1.0000
  C   C85       1.0  0.40567  0.99352  0.80702  1.0000
  C   C86       1.0  0.18331  0.77117  0.96159  1.0000
  C   C87       1.0  0.43675  0.96727  0.71396  1.0000
  H   H88       1.0  0.08790  0.72768  0.94407  1.0000
  C   C88       1.0  0.12427  0.70776  0.94056  1.0000
  S   S24       1.0  0.01109  0.60860  0.90742  1.0000
  C   C89       1.0  0.00794  0.54312  0.85500  1.0000
  H   H89       1.0  0.11751  0.66610  0.94204  1.0000
  C   C90       1.0  0.47252  0.94382  0.73474  1.0000
  H   H90       1.0  0.47719  0.90295  0.73407  1.0000
  H   H91       1.0  0.47120  0.99833  0.89121  1.0000
  C   C91       1.0  0.47784  0.90694  0.86278  1.0000
  N   N8        1.0  0.45292  0.95259  0.84990  1.0000
  N   N9        1.0  0.16061  0.72496  0.96528  1.0000
  C   C92       1.0  0.45263  0.99662  0.86762  1.0000
  H   H92       1.0  0.13781  0.71595  0.91559  1.0000
  H   H93       1.0  0.17423  0.79499  0.94073  1.0000
  H   H94       1.0  0.03865  0.56552  0.84578  1.0000
  H   H95       1.0  0.43117  0.91606  0.80559  1.0000
  C   C93       1.0  0.21699  0.78923  0.98525  1.0000
  C   C94       1.0  0.16958  0.69636  0.99266  1.0000
  H   H96       1.0  0.38866  0.99213  0.78285  1.0000
  S   S25       1.0  0.07056  0.80457  0.99567  1.0000
  H   H97       1.0  0.15056  0.66042  0.99612  1.0000
  C   C95       1.0  0.48997  0.00540  0.96158  1.0000
  S   S26       1.0  0.95684  0.28311  0.20108  1.0000
  S   S27       1.0  0.88194  0.36211  0.23698  1.0000
  Fe  Fe13      1.0  0.90844  0.28211  0.24609  1.0000
  S   S28       1.0  0.85861  0.21186  0.25280  1.0000
  Fe  Fe14      1.0  0.93600  0.36562  0.19535  1.0000
  H   H98       1.0  0.53361  0.08684  0.01664  1.0000
  H   H99       1.0  0.81480  0.03012  0.31881  1.0000
  C   C96       1.0  0.93769  0.45275  0.12612  1.0000
  S   S29       1.0  0.92216  0.45084  0.30253  1.0000
  C   C97       1.0  0.75805  0.12872  0.30499  1.0000
  C   C98       1.0  0.53578  0.12526  0.26133  1.0000
  C   C99       1.0  0.79229  0.14537  0.28122  1.0000
  C   C100      1.0  0.81622  0.19291  0.28389  1.0000
  H   H100      1.0  0.65230  0.15155  0.29135  1.0000
  S   S30       1.0  0.97129  0.30579  0.27996  1.0000
  H   H101      1.0  0.80022  0.12137  0.26048  1.0000
  H   H102      1.0  0.82334  0.26028  0.31317  1.0000
  C   C101      1.0  0.85667  0.49420  0.19008  1.0000
  H   H103      1.0  0.88850  0.44508  0.08434  1.0000
  C   C102      1.0  0.58386  0.15379  0.31865  1.0000
  C   C103      1.0  0.61193  0.14633  0.29057  1.0000
  Fe  Fe15      1.0  0.94744  0.38661  0.26857  1.0000
  C   C104      1.0  0.80544  0.22362  0.31079  1.0000
  S   S31       1.0  0.91410  0.39720  0.14528  1.0000
  C   C105      1.0  0.97473  0.48284  0.14077  1.0000
  H   H104      1.0  0.99071  0.47178  0.16406  1.0000
  C   C106      1.0  0.91717  0.46808  0.09590  1.0000
  H   H105      1.0  0.97145  0.31459  0.11634  1.0000
  H   H106      1.0  0.60942  0.12549  0.23977  1.0000
  C   C107      1.0  0.52295  0.06280  0.03692  1.0000
  C   C108      1.0  0.58786  0.13186  0.26168  1.0000
  H   H107      1.0  0.51736  0.11391  0.23878  1.0000
  H   H108      1.0  0.73982  0.09227  0.30236  1.0000
  C   C109      1.0  0.53201  0.14588  0.31760  1.0000
  C   C110      1.0  0.54629  0.01539  0.04069  1.0000
  N   N10       1.0  0.50864  0.13192  0.28916  1.0000
  H   H109      1.0  0.83395  0.46011  0.18828  1.0000
  H   H110      1.0  0.88209  0.47816  0.23889  1.0000
  H   H111      1.0  0.52733  0.01340  0.19474  1.0000
  C   C111      1.0  0.50001  0.01014  0.21394  1.0000
  C   C112      1.0  0.88454  0.50420  0.21843  1.0000
  C   C113      1.0  0.80182  0.04021  0.38184  1.0000
  S   S32       1.0  0.57822  0.06525  0.37957  1.0000
  Fe  Fe16      1.0  0.66072  0.06599  0.36770  1.0000
  S   S33       1.0  0.70383  0.14077  0.36234  1.0000
  C   C114      1.0  0.54695  0.08033  0.55422  1.0000
  C   C115      1.0  0.74715  0.15956  0.33178  1.0000
  N   N11       1.0  0.94142  0.39818  0.39118  1.0000
  H   H112      1.0  0.86483  0.41779  0.38203  1.0000
  C   C116      1.0  0.52664  0.06791  0.58456  1.0000
  H   H113      1.0  0.54798  0.04365  0.60105  1.0000
  C   C117      1.0  0.91932  0.47412  0.60027  1.0000
  C   C118      1.0  0.93103  0.46639  0.63349  1.0000
  S   S34       1.0  0.67931  0.01203  0.40879  1.0000
  H   H114      1.0  0.94606  0.32147  0.37524  1.0000
  H   H115      1.0  0.99340  0.35776  0.61744  1.0000
  H   H116      1.0  0.89923  0.44497  0.58696  1.0000
  H   H117      1.0  0.60237  0.16476  0.34127  1.0000
  H   H118      1.0  0.76290  0.23125  0.35510  1.0000
  H   H119      1.0  0.79127  0.07777  0.42801  1.0000
  H   H120      1.0  0.58311  0.06523  0.54700  1.0000
  C   C119      1.0  0.80355  0.04332  0.41589  1.0000
  C   C120      1.0  0.77108  0.20702  0.33452  1.0000
  H   H121      1.0  0.86194  0.48249  0.42575  1.0000
  H   H122      1.0  0.53359  0.11814  0.50830  1.0000
  C   C121      1.0  0.89786  0.42406  0.39714  1.0000
  H   H123      1.0  0.97654  0.36759  0.34923  1.0000
  C   C122      1.0  0.98343  0.40712  0.40971  1.0000
  H   H124      1.0  0.78825  0.07264  0.36796  1.0000
  C   C123      1.0  0.95118  0.48877  0.33321  1.0000
  C   C124      1.0  0.94353  0.36044  0.36491  1.0000
  H   H125      1.0  0.91001  0.36259  0.34856  1.0000
  C   C125      1.0  0.51912  0.11019  0.53244  1.0000
  S   S35       1.0  0.91210  0.40886  0.65262  1.0000
  H   H126      1.0  0.51061  0.15034  0.33977  1.0000
  C   C126      1.0  0.98285  0.44362  0.43452  1.0000
  C   C127      1.0  0.50476  0.00892  0.48259  1.0000
  C   C128      1.0  0.89590  0.46063  0.42188  1.0000
  C   C129      1.0  0.95692  0.50442  0.65042  1.0000
  C   C130      1.0  0.93882  0.47060  0.44051  1.0000
  H   H127      1.0  0.93871  0.50066  0.45866  1.0000
  H   H128      1.0  0.89850  0.46229  0.88764  1.0000
  S   S36       1.0  0.57153  0.04601  0.85264  1.0000
  Fe  Fe17      1.0  0.65458  0.06466  0.85063  1.0000
  S   S37       1.0  0.68192  0.14552  0.84016  1.0000
  H   H129      1.0  0.98215  0.19144  0.75269  1.0000
  S   S38       1.0  0.92562  0.41930  0.82608  1.0000
  S   S39       1.0  0.95527  0.29364  0.70147  1.0000
  S   S40       1.0  0.87884  0.36248  0.74473  1.0000
  Fe  Fe18      1.0  0.90822  0.28229  0.74619  1.0000
  S   S41       1.0  0.87169  0.20483  0.75431  1.0000
  Fe  Fe19      1.0  0.93211  0.37616  0.70297  1.0000
  H   H130      1.0  0.87057  0.13069  0.85011  1.0000
  C   C131      1.0  0.73134  0.16090  0.81300  1.0000
  C   C132      1.0  0.76346  0.12369  0.80054  1.0000
  C   C133      1.0  0.80532  0.13784  0.78186  1.0000
  C   C134      1.0  0.81581  0.18928  0.77548  1.0000
  C   C135      1.0  0.78295  0.22647  0.78715  1.0000
  C   C136      1.0  0.74098  0.21229  0.80576  1.0000
  H   H131      1.0  0.75666  0.08402  0.80587  1.0000
  H   H132      1.0  0.83021  0.10866  0.77280  1.0000
  H   H133      1.0  0.78995  0.26613  0.78200  1.0000
  H   H134      1.0  0.71620  0.24137  0.81507  1.0000
  H   H135      1.0  0.74834  0.21008  0.89455  1.0000
  H   H136      1.0  0.84981  0.33896  0.85244  1.0000
  C   C137      1.0  0.85264  0.16607  0.85705  1.0000
  S   S42       1.0  0.67214  0.02426  0.89811  1.0000
  H   H137      1.0  0.79167  0.12923  0.88184  1.0000
  N   N12       1.0  0.84781  0.25721  0.85379  1.0000
  C   C138      1.0  0.87178  0.21268  0.84645  1.0000
  C   C139      1.0  0.80432  0.25674  0.87122  1.0000
  C   C140      1.0  0.97803  0.13797  0.71308  1.0000
  H   H138      1.0  0.78419  0.29178  0.87596  1.0000
  H   H139      1.0  0.90481  0.21293  0.83122  1.0000
  H   H140      1.0  0.90852  0.30810  0.84589  1.0000
  Fe  Fe20      1.0  0.94514  0.38176  0.77733  1.0000
  C   C141      1.0  0.86755  0.30516  0.84103  1.0000
  H   H141      1.0  0.86088  0.30744  0.81427  1.0000
  C   C142      1.0  0.78406  0.21078  0.88210  1.0000
  C   C143      1.0  0.80844  0.16523  0.87494  1.0000
  H   H142      1.0  0.93835  0.14480  0.70846  1.0000
  C   C144      1.0  0.95020  0.47223  0.84807  1.0000
  S   S43       1.0  0.97184  0.30049  0.78034  1.0000
  H   H143      1.0  0.51764  0.04816  0.77391  1.0000
  C   C145      1.0  0.92904  0.48486  0.87836  1.0000
  H   H144      1.0  0.96580  0.49934  0.67603  1.0000
  C   C146      1.0  0.98976  0.50174  0.83646  1.0000
  H   H145      1.0  0.98581  0.08350  0.67447  1.0000
  S   S44       1.0  0.99653  0.40036  0.73535  1.0000
  C   C147      1.0  0.99026  0.52820  0.12555  1.0000
  H   H146      1.0  0.96578  0.59067  0.24933  1.0000
  S   S45       1.0  0.95293  0.72658  0.03121  1.0000
  Fe  Fe21      1.0  0.97190  0.64271  0.02985  1.0000
  H   H147      1.0  0.94350  0.61089  0.19528  1.0000
  C   C148      1.0  0.96910  0.54405  0.09558  1.0000
  C   C149      1.0  0.89086  0.56982  0.16565  1.0000
  S   S46       1.0  0.49957  0.00099  0.31373  1.0000
  H   H148      1.0  0.57429  0.00291  0.02335  1.0000
  H   H149      1.0  0.55622  0.00496  0.25245  1.0000
  C   C150      1.0  0.91862  0.57840  0.19426  1.0000
  C   C151      1.0  0.94436  0.55456  0.25015  1.0000
  H   H150      1.0  0.97135  0.52276  0.25408  1.0000
  C   C152      1.0  0.53177  0.98347  0.06610  1.0000
  C   C153      1.0  0.51657  0.00524  0.24664  1.0000
  H   H151      1.0  0.91915  0.55623  0.27158  1.0000
  H   H152      1.0  0.89483  0.59485  0.14471  1.0000
  N   N13       1.0  0.91498  0.54587  0.22025  1.0000
  H   H153      1.0  0.91600  0.52518  0.05770  1.0000
  H   H154      1.0  0.54901  0.94630  0.06903  1.0000
  H   H155      1.0  0.83951  0.51920  0.14113  1.0000
  S   S47       1.0  0.98766  0.60353  0.07901  1.0000
  C   C154      1.0  0.93269  0.51349  0.08070  1.0000
  C   C155      1.0  0.85976  0.52738  0.16361  1.0000
  H   H156      1.0  0.77198  0.97763  0.32487  1.0000
  H   H157      1.0  0.83822  0.96617  0.32045  1.0000
  S   S48       1.0  0.65446  0.00521  0.32955  1.0000
  Fe  Fe22      1.0  0.66923  0.95052  0.37156  1.0000
  S   S49       1.0  0.73045  0.88991  0.36569  1.0000
  C   C156      1.0  0.83162  0.95514  0.38393  1.0000
  S   S50       1.0  0.58699  0.94021  0.38199  1.0000
  S   S51       1.0  0.91836  0.62786  0.48825  1.0000
  Fe  Fe23      1.0  0.91007  0.71305  0.48061  1.0000
  S   S52       1.0  0.83451  0.75502  0.47815  1.0000
  H   H158      1.0  0.92382  0.52475  0.55861  1.0000
  C   C157      1.0  0.75914  0.85315  0.39746  1.0000
  C   C158      1.0  0.80074  0.82219  0.39016  1.0000
  C   C159      1.0  0.82518  0.79308  0.41462  1.0000
  C   C160      1.0  0.80765  0.79375  0.44668  1.0000
  C   C161      1.0  0.76616  0.82486  0.45398  1.0000
  C   C162      1.0  0.74237  0.85476  0.42966  1.0000
  H   H159      1.0  0.81402  0.82042  0.36534  1.0000
  H   H160      1.0  0.85680  0.76920  0.40850  1.0000
  H   H161      1.0  0.75205  0.82563  0.47861  1.0000
  H   H162      1.0  0.71047  0.87831  0.43574  1.0000
  S   S53       1.0  0.95577  0.73125  0.52557  1.0000
  Fe  Fe24      1.0  0.96979  0.64701  0.53045  1.0000
  H   H163      1.0  0.87885  0.63269  0.62146  1.0000
  C   C163      1.0  0.95876  0.55748  0.60112  1.0000
  H   H164      1.0  0.89156  0.76606  0.59126  1.0000
  H   H165      1.0  0.88356  0.73172  0.62885  1.0000
  H   H166      1.0  0.91873  0.58088  0.38841  1.0000
  C   C164      1.0  0.94198  0.55377  0.37567  1.0000
  C   C165      1.0  0.80907  0.66631  0.54141  1.0000
  H   H167      1.0  0.82835  0.56716  0.59341  1.0000
  H   H168      1.0  0.84405  0.92296  0.43182  1.0000
  H   H169      1.0  0.79057  0.67608  0.51850  1.0000
  H   H170      1.0  0.93415  0.71546  0.60169  1.0000
  S   S54       1.0  0.97450  0.61665  0.58288  1.0000
  C   C166      1.0  0.92198  0.52533  0.34945  1.0000
  C   C167      1.0  0.80997  0.99255  0.33082  1.0000
  C   C168      1.0  0.83794  0.70262  0.55788  1.0000
  C   C169      1.0  0.89429  0.72793  0.60288  1.0000
  C   C170      1.0  0.93324  0.51928  0.58410  1.0000
  C   C171      1.0  0.83330  0.95665  0.41802  1.0000
  C   C172      1.0  0.80529  0.61735  0.55426  1.0000
  H   H171      1.0  0.78370  0.58866  0.54142  1.0000
  Fe  Fe25      1.0  0.98737  0.63576  0.45698  1.0000
  C   C173      1.0  0.83002  0.60537  0.58345  1.0000
  H   H172      1.0  0.84137  0.74028  0.54730  1.0000
  N   N14       1.0  0.86228  0.69049  0.58641  1.0000
  C   C174      1.0  0.85833  0.64272  0.59935  1.0000
  S   S55       1.0  0.56759  0.00040  0.46956  1.0000
  C   C175      1.0  0.97044  0.54973  0.63434  1.0000
  S   S56       1.0  0.97599  0.71966  0.44706  1.0000
  H   H173      1.0  0.51702  0.96739  0.52736  1.0000
  C   C176      1.0  0.81904  0.00106  0.43406  1.0000
  C   C177      1.0  0.99156  0.54591  0.38596  1.0000
  H   H174      1.0  0.81909  0.00232  0.46051  1.0000
  N   N15       1.0  0.81580  0.99649  0.36632  1.0000
  H   H175      1.0  0.88323  0.53099  0.34221  1.0000
  H   H176      1.0  0.84099  0.91989  0.37169  1.0000
  H   H177      1.0  0.98993  0.57916  0.64778  1.0000
  Fe  Fe26      1.0  0.57289  0.00061  0.34355  1.0000
  Fe  Fe27      1.0  0.59597  0.00542  0.41703  1.0000
  Fe  Fe28      1.0  0.68763  0.95599  0.86673  1.0000
  S   S57       1.0  0.76005  0.90923  0.87225  1.0000
  H   H178      1.0  0.73336  0.79635  0.96722  1.0000
  S   S58       1.0  0.54335  0.94072  0.78409  1.0000
  Fe  Fe29      1.0  0.59270  0.97678  0.82376  1.0000
  S   S59       1.0  0.60817  0.92866  0.86832  1.0000
  C   C178      1.0  0.92831  0.68427  0.85920  1.0000
  H   H179      1.0  0.81918  0.63195  0.93863  1.0000
  C   C179      1.0  0.50189  0.97267  0.75659  1.0000
  C   C180      1.0  0.79838  0.72448  0.88220  1.0000
  H   H180      1.0  0.92825  0.70636  0.83610  1.0000
  C   C181      1.0  0.77842  0.86647  0.90393  1.0000
  C   C182      1.0  0.82847  0.84931  0.90534  1.0000
  C   C183      1.0  0.84439  0.81361  0.92904  1.0000
  C   C184      1.0  0.81018  0.79397  0.95140  1.0000
  C   C185      1.0  0.76019  0.81128  0.95010  1.0000
  C   C186      1.0  0.74441  0.84749  0.92664  1.0000
  H   H181      1.0  0.85509  0.86375  0.88792  1.0000
  H   H182      1.0  0.88289  0.80073  0.92965  1.0000
  H   H183      1.0  0.89946  0.62731  0.90890  1.0000
  H   H184      1.0  0.70578  0.86016  0.92582  1.0000
  H   H185      1.0  0.77108  0.75356  0.87556  1.0000
  H   H186      1.0  0.93086  0.53486  0.92028  1.0000
  H   H187      1.0  0.75450  0.69500  0.92176  1.0000
  C   C187      1.0  0.78898  0.69151  0.90809  1.0000
  N   N16       1.0  0.87972  0.68647  0.87552  1.0000
  C   C188      1.0  0.84444  0.72175  0.86628  1.0000
  H   H188      1.0  0.85195  0.74872  0.84693  1.0000
  S   S60       1.0  0.82715  0.74521  0.97967  1.0000
  C   C189      1.0  0.82544  0.65623  0.91766  1.0000
  H   H189      1.0  0.93807  0.64423  0.85315  1.0000
  H   H190      1.0  0.95804  0.69948  0.87566  1.0000
  S   S61       1.0  0.91910  0.62646  0.98752  1.0000
  C   C190      1.0  0.87089  0.65422  0.90100  1.0000
  S   S62       1.0  0.96824  0.72738  0.95199  1.0000
  Fe  Fe30      1.0  0.98506  0.64370  0.95540  1.0000
  S   S63       1.0  0.54427  0.98050  0.94240  1.0000
  C   C191      1.0  0.94723  0.52618  0.89691  1.0000
  Fe  Fe31      1.0  0.90567  0.71163  0.98635  1.0000
  C   C192      1.0  0.98693  0.55554  0.88536  1.0000
  S   S64       1.0  0.67419  0.99793  0.81916  1.0000
  H   H191      1.0  0.50551  0.89258  0.84483  1.0000
  Fe  Fe32      1.0  0.59103  0.99936  0.89721  1.0000
  H   H192      1.0  0.49863  0.91471  0.88593  1.0000
