data_image0
_chemical_formula_structural       SCHSFeSFeS2FeS2FeSFeHS2HSCFeCSFeSC3S3FeSFeSHCH2SC6H3C7H4C6H4C6H4CHCH2C2HCHFeSHC2H6CH3CNC2H3C2SFeC4NC2HC2FeNCHNC2HC2H5CS2HCSH4CHSC2HCH2NH4CHCH3C2HNH3CHCHCHNHCH2SCHCFeSFeS2FeS2FeSFeCS2CSHFeCSFeSHC2SNSC2FeSHCHCHC6H3C7H4C6H4C6H4CSC4H3CHCH3CHCHC2NCH2CSCH2SC2HC2SNCHNHC2HC5HCH5C4SHCHC2H4CH2C2H3NFe2CH2SHC2FeHSNFeCH6CNH3SHCH3CSH2SC2H2FeS2FeS2FeSFeS3HS2FeCSC2FeS2H2SFeS2HNSHCSCH3FeHFeCHSHC6H3C3H3C6H4C2NH2C6H4C6H4NC6H8C3SCHFeH4CHC2SHCH2CH2FeC2HCNHCHCHSC2HCH2CHCHC2HSC2HFeHCHFeS2FeS2FeSFeS3HSCFeCSNHFeS2C3FeS2HFeSHCSHSH3NSHCHC8H5CHC7H5CHC8H4C6H4CFeCH3C2NHFeHCH2FeSNCHCHCHC2SCHCH2C4HC2HC5H2C2HSH2NH4CSH2C3H2NH5C3H2FeNH2SCH2CSFeSHS2HC2FeSCSCHFeS3FeSHSC2H5CH3CHC2H2C2H3SC5FeCHCSCH4CNC2HCH2C2NHCSHC2HC3SCH2Fe2CHCH6CH2C2H2FeNCHC2H4C2H4C2H2SCH2CHCFeSCS2C2SHSFeSHSFeSCSFeSHSC2HCHC2H2FeHCHC2H2C4HCHC3H2CHCH2CH3CHC2H2CS2FeCHCH3NSH2CFeCHC2HC3HC2HC2HCFeSC2SNFeSCHFeSFeS3FeSC2S2FeSC3SCH2CHCHCH2C2H3C3H3CSHFeHCH3C3H2CNCHCHCFeH2C2HSH2SFeH2C5SCH4CH2CSCHCH2C2HCHCNCH3CHSHFeSHSCHFeS2HFeSHCSHCSCSNSCH4CH2SC2HCH2C2H2CH3FeSNC2FeSFeC2H2CHCFeCHFeH3CSC2SHC2NHCHCHCNSH2C2H4CSCH3C3HC6H4C2H3FeS2FeS2FeHFeS3CSFe2HSFeSCHCS2HS2HCFeSCHCSC2H2CSCNCHC7H4C6H6C7H4C6H4CNH2SH2SCHNHFeHCHSC2HCHCHC3HC2H3CSH4CH3NSHNH2C3SC2Fe2HC2HC2H2CH2SCH4CNC2HCHCH3FeH2CHC2FeS2FeS2FeSFeS3CSHFeHSFeSHFeHS2CFeSHCFeSHS3H2CHNCHCSNHC6H4C6H4CNHC6H4C6H4CSH2C2H2CHNCH3SCH2CH2NCNFeH2FeNC3H3SHFeCHSC2H2C11H4SH4C7HSHCHCH7C2HCH3CH2C2HCHCHSHFeS3CFeS2HFeS2FeS2FeSFeS3HSFeS3CSFeSH2CHC2HSHCHC6H4C6H3NC6H4C6H4NHNH2C2NH4CHCH2CH2C4HCHCHCNCHC2NC6H4CH6CNC2H2CHFeCHCSH2CH2SNCHCFeCH2C3HFeC2H5C2HCSHC4HCH2FeH2C2H4C2HCHCNC2HC2HCHSHFeCSCSFeS2HFeSHFeS2FeSFeS3HSFeSHS3HSHFeCH3SH2CHC6H4C6H4C6H4C6H4CH4CSC4NC5H6SHCNC2H2CHCHFeH2CNH4NH3CH2NCFeC3HC4HSCHCHC2H2C2FeH2C2H3CSH2C3HC3NH2C2H2CFeCH
_chemical_formula_sum              "S256 C768 H768 Fe128 N64"
_cell_length_a       54.3956
_cell_length_b       54.4366
_cell_length_c       41.8438
_cell_angle_alpha    90.3308
_cell_angle_beta     90.2208
_cell_angle_gamma    89.7387

_space_group_name_H-M_alt    "P 1"
_space_group_IT_number       1

loop_
  _space_group_symop_operation_xyz
  'x, y, z'

loop_
  _atom_site_type_symbol
  _atom_site_label
  _atom_site_symmetry_multiplicity
  _atom_site_fract_x
  _atom_site_fract_y
  _atom_site_fract_z
  _atom_site_occupancy
  S   S1        1.0  0.05163  0.01075  0.34422  1.0000
  C   C1        1.0  0.30760  0.08196  0.19005  1.0000
  H   H1        1.0  0.31071  0.04561  0.20992  1.0000
  S   S2        1.0  0.20916  0.37233  0.01931  1.0000
  Fe  Fe1       1.0  0.09227  0.00297  0.35049  1.0000
  S   S3        1.0  0.12748  0.02297  0.33457  1.0000
  Fe  Fe2       1.0  0.22946  0.16981  0.20054  1.0000
  S   S4        1.0  0.26685  0.16504  0.22380  1.0000
  S   S5        1.0  0.21681  0.19502  0.15937  1.0000
  Fe  Fe3       1.0  0.20469  0.13277  0.24668  1.0000
  S   S6        1.0  0.24029  0.12602  0.27240  1.0000
  S   S7        1.0  0.16650  0.11784  0.26017  1.0000
  Fe  Fe4       1.0  0.24608  0.16703  0.27070  1.0000
  S   S8        1.0  0.26061  0.18532  0.31677  1.0000
  Fe  Fe5       1.0  0.25819  0.12435  0.22366  1.0000
  H   H2        1.0  0.00828  0.43784  0.23652  1.0000
  S   S9        1.0  0.20944  0.17399  0.24762  1.0000
  S   S10       1.0  0.22188  0.12897  0.19791  1.0000
  H   H3        1.0  0.29028  0.33275  0.40508  1.0000
  S   S11       1.0  0.26342  0.33120  0.01942  1.0000
  C   C2        1.0  0.20969  0.26866  0.16143  1.0000
  Fe  Fe6       1.0  0.23479  0.29515  0.44690  1.0000
  C   C3        1.0  0.10808  0.99313  0.25755  1.0000
  S   S12       1.0  0.22153  0.27636  0.40056  1.0000
  Fe  Fe7       1.0  0.25547  0.29079  0.01788  1.0000
  S   S13       1.0  0.26874  0.26598  0.05867  1.0000
  C   C4        1.0  0.23519  0.31099  0.09953  1.0000
  C   C5        1.0  0.00940  0.47124  0.20917  1.0000
  C   C6        1.0  0.28716  0.27587  0.34991  1.0000
  S   S14       1.0  0.23958  0.33632  0.44445  1.0000
  S   S15       1.0  0.09642  0.46379  0.13839  1.0000
  S   S16       1.0  0.04918  0.45362  0.09154  1.0000
  Fe  Fe8       1.0  0.05547  0.47189  0.13955  1.0000
  S   S17       1.0  0.03149  0.45893  0.18164  1.0000
  Fe  Fe9       1.0  0.09045  0.44862  0.08873  1.0000
  S   S18       1.0  0.10405  0.41202  0.06687  1.0000
  H   H4        1.0  0.23596  0.24393  0.01011  1.0000
  C   C7        1.0  0.23359  0.29353  0.12384  1.0000
  H   H5        1.0  0.27780  0.23169  0.00608  1.0000
  H   H6        1.0  0.28639  0.38034  0.41547  1.0000
  S   S19       1.0  0.08761  0.99218  0.40206  1.0000
  C   C8        1.0  0.17980  0.38237  0.03342  1.0000
  C   C9        1.0  0.15845  0.36839  0.02962  1.0000
  C   C10       1.0  0.13558  0.37761  0.04046  1.0000
  C   C11       1.0  0.13370  0.40082  0.05543  1.0000
  C   C12       1.0  0.15514  0.41460  0.05966  1.0000
  C   C13       1.0  0.17794  0.40549  0.04856  1.0000
  H   H7        1.0  0.15946  0.35063  0.01795  1.0000
  H   H8        1.0  0.11917  0.36672  0.03706  1.0000
  H   H9        1.0  0.15416  0.43235  0.07138  1.0000
  C   C14       1.0  0.21375  0.32170  0.08750  1.0000
  C   C15       1.0  0.23207  0.21296  0.13002  1.0000
  C   C16       1.0  0.25736  0.21744  0.13111  1.0000
  C   C17       1.0  0.26824  0.23330  0.10866  1.0000
  C   C18       1.0  0.25406  0.24496  0.08490  1.0000
  C   C19       1.0  0.22879  0.24034  0.08360  1.0000
  C   C20       1.0  0.21794  0.22438  0.10595  1.0000
  H   H10       1.0  0.26849  0.20893  0.14950  1.0000
  H   H11       1.0  0.28780  0.23675  0.10999  1.0000
  H   H12       1.0  0.21751  0.24931  0.06578  1.0000
  H   H13       1.0  0.19834  0.22110  0.10492  1.0000
  C   C21       1.0  0.23254  0.25066  0.37808  1.0000
  C   C22       1.0  0.22140  0.24518  0.34843  1.0000
  C   C23       1.0  0.22984  0.22548  0.32921  1.0000
  C   C24       1.0  0.24956  0.21090  0.33944  1.0000
  C   C25       1.0  0.26074  0.21639  0.36906  1.0000
  C   C26       1.0  0.25229  0.23609  0.38830  1.0000
  H   H14       1.0  0.20614  0.25633  0.34022  1.0000
  H   H15       1.0  0.22100  0.22151  0.30656  1.0000
  H   H16       1.0  0.27599  0.20524  0.37727  1.0000
  H   H17       1.0  0.26109  0.24005  0.41097  1.0000
  C   C27       1.0  0.13779  0.05065  0.31628  1.0000
  C   C28       1.0  0.16325  0.05412  0.31206  1.0000
  C   C29       1.0  0.17241  0.07459  0.29531  1.0000
  C   C30       1.0  0.15619  0.09202  0.28254  1.0000
  C   C31       1.0  0.13076  0.08882  0.28728  1.0000
  C   C32       1.0  0.12160  0.06834  0.30408  1.0000
  H   H18       1.0  0.17600  0.04058  0.32135  1.0000
  H   H19       1.0  0.19200  0.07666  0.29188  1.0000
  H   H20       1.0  0.11801  0.10223  0.27772  1.0000
  H   H21       1.0  0.10201  0.06609  0.30722  1.0000
  C   C33       1.0  0.12637  0.44946  0.00162  1.0000
  H   H22       1.0  0.27983  0.99804  0.16066  1.0000
  C   C34       1.0  0.17427  0.16037  0.32564  1.0000
  H   H23       1.0  0.19430  0.41647  0.05183  1.0000
  H   H24       1.0  0.24862  0.13855  0.34531  1.0000
  C   C35       1.0  0.17372  0.18244  0.34273  1.0000
  C   C36       1.0  0.26817  0.29318  0.34929  1.0000
  H   H25       1.0  0.22775  0.11300  0.34758  1.0000
  C   C37       1.0  0.05704  0.46052  0.46942  1.0000
  H   H26       1.0  0.23866  0.39701  0.46421  1.0000
  Fe  Fe10      1.0  0.27435  0.33070  0.47220  1.0000
  S   S20       1.0  0.09580  0.48512  0.06515  1.0000
  H   H27       1.0  0.01000  0.45897  0.02606  1.0000
  C   C38       1.0  0.30530  0.38620  0.41743  1.0000
  C   C39       1.0  0.31394  0.40564  0.39828  1.0000
  H   H28       1.0  0.29273  0.06484  0.10966  1.0000
  H   H29       1.0  0.17234  0.29183  0.13341  1.0000
  H   H30       1.0  0.19561  0.25448  0.15584  1.0000
  H   H31       1.0  0.00184  0.43890  0.12690  1.0000
  H   H32       1.0  0.25040  0.28511  0.13267  1.0000
  H   H33       1.0  0.04689  0.00542  0.25262  1.0000
  C   C40       1.0  0.32118  0.37451  0.43899  1.0000
  H   H34       1.0  0.15915  0.19571  0.33849  1.0000
  H   H35       1.0  0.17427  0.32315  0.09056  1.0000
  H   H36       1.0  0.21473  0.33531  0.06866  1.0000
  C   C41       1.0  0.28963  0.31685  0.38940  1.0000
  N   N1        1.0  0.21150  0.14874  0.35285  1.0000
  C   C42       1.0  0.19341  0.14363  0.33103  1.0000
  C   C43       1.0  0.23197  0.13150  0.35752  1.0000
  H   H37       1.0  0.19375  0.12661  0.31743  1.0000
  H   H38       1.0  0.16013  0.15627  0.30801  1.0000
  H   H39       1.0  0.23611  0.12932  0.38336  1.0000
  C   C44       1.0  0.26929  0.31372  0.36927  1.0000
  C   C45       1.0  0.06660  0.00838  0.25176  1.0000
  S   S21       1.0  0.27105  0.28932  0.47191  1.0000
  Fe  Fe11      1.0  0.04675  0.99621  0.39471  1.0000
  C   C46       1.0  0.07596  0.03149  0.24448  1.0000
  C   C47       1.0  0.30999  0.39524  0.01391  1.0000
  C   C48       1.0  0.19007  0.29714  0.12397  1.0000
  C   C49       1.0  0.19102  0.31481  0.09978  1.0000
  N   N2        1.0  0.11713  0.01580  0.25021  1.0000
  C   C50       1.0  0.21119  0.17041  0.36957  1.0000
  C   C51       1.0  0.19222  0.18749  0.36498  1.0000
  H   H40       1.0  0.05497  0.47708  0.45531  1.0000
  C   C52       1.0  0.28925  0.00801  0.14201  1.0000
  C   C53       1.0  0.00232  0.47023  0.00725  1.0000
  Fe  Fe12      1.0  0.22600  0.33722  0.99759  1.0000
  N   N3        1.0  0.21121  0.28666  0.13555  1.0000
  C   C54       1.0  0.00073  0.45614  0.23393  1.0000
  H   H41       1.0  0.14883  0.03893  0.24723  1.0000
  N   N4        1.0  0.30829  0.29992  0.38970  1.0000
  C   C55       1.0  0.99461  0.99267  0.26577  1.0000
  C   C56       1.0  0.03936  0.44208  0.46766  1.0000
  H   H42       1.0  0.22599  0.17485  0.38604  1.0000
  C   C57       1.0  0.00247  0.00142  0.46145  1.0000
  C   C58       1.0  0.26931  0.39866  0.98877  1.0000
  H   H43       1.0  0.25298  0.31585  0.08980  1.0000
  H   H44       1.0  0.15284  0.01153  0.27005  1.0000
  H   H45       1.0  0.30946  0.11635  0.16520  1.0000
  H   H46       1.0  0.28598  0.25942  0.33518  1.0000
  H   H47       1.0  0.19227  0.20481  0.37800  1.0000
  C   C59       1.0  0.31905  0.00937  0.09950  1.0000
  S   S22       1.0  0.02446  0.01454  0.43503  1.0000
  S   S23       1.0  0.28292  0.09022  0.21594  1.0000
  H   H48       1.0  0.22181  0.21443  0.00363  1.0000
  C   C60       1.0  0.14380  0.01917  0.24833  1.0000
  S   S24       1.0  0.21709  0.29672  0.99944  1.0000
  H   H49       1.0  0.12696  0.45211  0.02793  1.0000
  H   H50       1.0  0.10860  0.05286  0.23774  1.0000
  H   H51       1.0  0.99937  0.00248  0.28748  1.0000
  H   H52       1.0  0.22735  0.25858  0.16486  1.0000
  C   C61       1.0  0.00375  0.00210  0.99759  1.0000
  H   H53       1.0  0.30442  0.37620  0.02005  1.0000
  S   S25       1.0  0.31141  0.34991  0.46401  1.0000
  C   C62       1.0  0.28396  0.03279  0.13686  1.0000
  C   C63       1.0  0.24310  0.41273  0.48030  1.0000
  H   H54       1.0  0.20487  0.27796  0.18424  1.0000
  C   C64       1.0  0.29659  0.04545  0.11304  1.0000
  H   H55       1.0  0.25414  0.32675  0.36980  1.0000
  H   H56       1.0  0.30152  0.41444  0.38160  1.0000
  N   N5        1.0  0.29340  0.40579  0.98991  1.0000
  H   H57       1.0  0.25213  0.29019  0.33428  1.0000
  H   H58       1.0  0.27065  0.04236  0.15177  1.0000
  H   H59       1.0  0.31002  0.40680  0.03582  1.0000
  H   H60       1.0  0.01172  0.01977  0.00330  1.0000
  C   C65       1.0  0.31796  0.05825  0.19249  1.0000
  H   H61       1.0  0.02351  0.44419  0.45201  1.0000
  C   C66       1.0  0.10145  0.03485  0.24349  1.0000
  H   H62       1.0  0.06355  0.04669  0.23966  1.0000
  H   H63       1.0  0.31725  0.48738  0.37289  1.0000
  H   H64       1.0  0.25385  0.42654  0.46688  1.0000
  C   C67       1.0  0.30683  0.99617  0.12315  1.0000
  C   C68       1.0  0.31714  0.09805  0.16734  1.0000
  H   H65       1.0  0.09898  0.40904  0.99703  1.0000
  N   N6        1.0  0.31414  0.03380  0.09507  1.0000
  H   H66       1.0  0.15114  0.00973  0.22680  1.0000
  H   H67       1.0  0.07055  0.00257  0.47163  1.0000
  H   H68       1.0  0.29028  0.40021  0.48156  1.0000
  C   C69       1.0  0.22986  0.23060  0.99155  1.0000
  H   H69       1.0  0.13603  0.46499  0.99013  1.0000
  C   C70       1.0  0.08927  0.42558  0.98976  1.0000
  H   H70       1.0  0.31640  0.04619  0.04722  1.0000
  C   C71       1.0  0.30711  0.27944  0.37061  1.0000
  H   H71       1.0  0.26242  0.38505  0.00525  1.0000
  N   N7        1.0  0.10074  0.44789  0.99089  1.0000
  H   H72       1.0  0.13670  0.43235  0.99577  1.0000
  C   C72       1.0  0.08273  0.98903  0.25809  1.0000
  H   H73       1.0  0.02752  0.40749  0.48625  1.0000
  H   H74       1.0  0.32148  0.26559  0.37148  1.0000
  S   S26       1.0  0.04965  0.01439  0.85397  1.0000
  C   C73       1.0  0.18853  0.07014  0.86145  1.0000
  H   H75       1.0  0.07931  0.99786  0.51291  1.0000
  C   C74       1.0  0.22732  0.25946  0.67946  1.0000
  Fe  Fe13      1.0  0.09087  0.01913  0.85312  1.0000
  S   S27       1.0  0.10821  0.05683  0.84412  1.0000
  Fe  Fe14      1.0  0.23211  0.16653  0.69591  1.0000
  S   S28       1.0  0.26869  0.17388  0.71837  1.0000
  S   S29       1.0  0.21775  0.18636  0.65118  1.0000
  Fe  Fe15      1.0  0.22043  0.12535  0.74459  1.0000
  S   S30       1.0  0.25684  0.13074  0.76996  1.0000
  S   S31       1.0  0.19708  0.09099  0.75485  1.0000
  Fe  Fe16      1.0  0.24900  0.17145  0.76571  1.0000
  S   S32       1.0  0.26163  0.20074  0.80220  1.0000
  Fe  Fe17      1.0  0.27339  0.13267  0.72071  1.0000
  C   C75       1.0  0.30766  0.38149  0.91231  1.0000
  S   S33       1.0  0.21160  0.16610  0.74299  1.0000
  S   S34       1.0  0.23774  0.12544  0.69542  1.0000
  C   C76       1.0  0.19959  0.05093  0.84454  1.0000
  S   S35       1.0  0.25544  0.33438  0.51965  1.0000
  H   H76       1.0  0.05895  0.40284  0.55322  1.0000
  Fe  Fe18      1.0  0.23484  0.29423  0.95034  1.0000
  C   C77       1.0  0.25324  0.40852  0.96602  1.0000
  S   S36       1.0  0.21652  0.26800  0.91428  1.0000
  Fe  Fe19      1.0  0.24922  0.29337  0.51771  1.0000
  S   S37       1.0  0.26096  0.27212  0.56294  1.0000
  H   H77       1.0  0.26104  0.19829  0.89805  1.0000
  C   C78       1.0  0.27403  0.22434  0.98238  1.0000
  C   C79       1.0  0.26134  0.11239  0.60697  1.0000
  S   S38       1.0  0.24048  0.33549  0.94697  1.0000
  N   N8        1.0  0.06142  0.41897  0.50738  1.0000
  S   S39       1.0  0.04853  0.45342  0.59568  1.0000
  C   C80       1.0  0.28130  0.39780  0.50439  1.0000
  C   C81       1.0  0.99453  0.01509  0.48824  1.0000
  Fe  Fe20      1.0  0.08997  0.45002  0.59446  1.0000
  S   S40       1.0  0.10739  0.41214  0.58459  1.0000
  H   H78       1.0  0.00157  0.03346  0.49197  1.0000
  C   C82       1.0  0.22690  0.23368  0.73643  1.0000
  H   H79       1.0  0.17514  0.42112  0.50666  1.0000
  C   C83       1.0  0.30372  0.11852  0.62211  1.0000
  H   H80       1.0  0.09411  0.43532  0.52580  1.0000
  C   C84       1.0  0.17251  0.38379  0.52330  1.0000
  C   C85       1.0  0.15975  0.36806  0.54363  1.0000
  C   C86       1.0  0.14007  0.37714  0.56232  1.0000
  C   C87       1.0  0.13305  0.40208  0.56134  1.0000
  C   C88       1.0  0.14603  0.41789  0.54130  1.0000
  C   C89       1.0  0.16550  0.40874  0.52232  1.0000
  H   H81       1.0  0.16480  0.34884  0.54466  1.0000
  H   H82       1.0  0.13018  0.36471  0.57767  1.0000
  H   H83       1.0  0.14100  0.43711  0.54029  1.0000
  C   C90       1.0  0.26187  0.42605  0.94464  1.0000
  C   C91       1.0  0.23058  0.20963  0.62636  1.0000
  C   C92       1.0  0.25369  0.21997  0.63233  1.0000
  C   C93       1.0  0.26264  0.23888  0.61254  1.0000
  C   C94       1.0  0.24875  0.24775  0.58647  1.0000
  C   C95       1.0  0.22569  0.23734  0.58049  1.0000
  C   C96       1.0  0.21672  0.21845  0.60030  1.0000
  H   H84       1.0  0.26450  0.21375  0.65246  1.0000
  H   H85       1.0  0.28047  0.24681  0.61748  1.0000
  H   H86       1.0  0.21471  0.24392  0.56066  1.0000
  H   H87       1.0  0.19880  0.21070  0.59541  1.0000
  C   C97       1.0  0.22923  0.25034  0.88217  1.0000
  C   C98       1.0  0.21407  0.23358  0.86562  1.0000
  C   C99       1.0  0.22350  0.21836  0.84101  1.0000
  C   C100      1.0  0.24832  0.21970  0.83258  1.0000
  C   C101      1.0  0.26343  0.23662  0.84891  1.0000
  C   C102      1.0  0.25401  0.25181  0.87354  1.0000
  H   H88       1.0  0.19486  0.23225  0.87202  1.0000
  H   H89       1.0  0.21158  0.20550  0.82877  1.0000
  H   H90       1.0  0.28267  0.23790  0.84264  1.0000
  H   H91       1.0  0.26597  0.26455  0.88597  1.0000
  C   C103      1.0  0.13248  0.06599  0.81837  1.0000
  C   C104      1.0  0.14505  0.04929  0.79877  1.0000
  C   C105      1.0  0.16445  0.05742  0.77919  1.0000
  C   C106      1.0  0.17177  0.08224  0.77917  1.0000
  C   C107      1.0  0.15903  0.09896  0.79857  1.0000
  C   C108      1.0  0.13945  0.09087  0.81789  1.0000
  H   H92       1.0  0.13990  0.03012  0.79875  1.0000
  H   H93       1.0  0.17413  0.04434  0.76422  1.0000
  H   H94       1.0  0.16430  0.11810  0.79874  1.0000
  H   H95       1.0  0.12980  0.10399  0.83286  1.0000
  C   C109      1.0  0.01166  0.98939  0.96999  1.0000
  S   S41       1.0  0.31113  0.11688  0.70682  1.0000
  C   C110      1.0  0.06476  0.42378  0.97976  1.0000
  C   C111      1.0  0.16073  0.04107  0.88515  1.0000
  C   C112      1.0  0.06356  0.39751  0.52824  1.0000
  C   C113      1.0  0.24564  0.21322  0.94159  1.0000
  H   H96       1.0  0.30418  0.20216  0.91714  1.0000
  H   H97       1.0  0.31385  0.38255  0.52638  1.0000
  H   H98       1.0  0.28957  0.37373  0.90881  1.0000
  C   C114      1.0  0.30234  0.07234  0.67516  1.0000
  H   H99       1.0  0.29639  0.03882  0.64838  1.0000
  C   C115      1.0  0.16234  0.99727  0.87149  1.0000
  H   H100      1.0  0.28296  0.07586  0.67889  1.0000
  H   H101      1.0  0.19381  0.24031  0.66790  1.0000
  H   H102      1.0  0.11207  0.07454  0.74669  1.0000
  C   C116      1.0  0.99592  0.46951  0.51110  1.0000
  H   H103      1.0  0.25844  0.25357  0.77808  1.0000
  C   C117      1.0  0.06098  0.05329  0.78367  1.0000
  H   H104      1.0  0.19327  0.21728  0.71888  1.0000
  C   C118      1.0  0.07879  0.43701  0.50929  1.0000
  C   C119      1.0  0.05998  0.03009  0.76923  1.0000
  N   N9        1.0  0.25702  0.40378  0.50798  1.0000
  C   C120      1.0  0.28327  0.38427  0.55913  1.0000
  H   H105      1.0  0.15949  0.08013  0.89408  1.0000
  H   H106      1.0  0.22800  0.26906  0.65679  1.0000
  C   C121      1.0  0.06367  0.99784  0.49584  1.0000
  S   S42       1.0  0.03316  0.00386  0.94403  1.0000
  C   C122      1.0  0.31003  0.05135  0.65778  1.0000
  H   H107      1.0  0.08723  0.99686  0.71094  1.0000
  H   H108      1.0  0.27701  0.26873  0.74902  1.0000
  S   S43       1.0  0.09474  0.46921  0.64183  1.0000
  C   C123      1.0  0.00474  0.46514  0.74166  1.0000
  C   C124      1.0  0.20784  0.23034  0.71430  1.0000
  H   H109      1.0  0.27794  0.23561  0.75216  1.0000
  C   C125      1.0  0.26488  0.20541  0.92185  1.0000
  C   C126      1.0  0.01014  0.47696  0.71265  1.0000
  S   S44       1.0  0.03313  0.46401  0.68723  1.0000
  N   N10       1.0  0.24566  0.24959  0.73020  1.0000
  C   C127      1.0  0.24621  0.26219  0.70198  1.0000
  H   H110      1.0  0.31249  0.21892  0.97170  1.0000
  N   N11       1.0  0.07702  0.02325  0.74690  1.0000
  H   H111      1.0  0.08108  0.08722  0.78706  1.0000
  C   C128      1.0  0.24553  0.40014  0.53661  1.0000
  C   C129      1.0  0.05198  0.44501  0.97106  1.0000
  H   H112      1.0  0.23428  0.40235  0.96495  1.0000
  C   C130      1.0  0.09561  0.03889  0.73882  1.0000
  C   C131      1.0  0.31757  0.15742  0.64612  1.0000
  C   C132      1.0  0.07685  0.45805  0.49041  1.0000
  C   C133      1.0  0.09704  0.06232  0.75260  1.0000
  C   C134      1.0  0.30186  0.42341  0.96956  1.0000
  H   H113      1.0  0.32102  0.42891  0.97016  1.0000
  C   C135      1.0  0.31971  0.08889  0.68725  1.0000
  H   H114      1.0  0.14478  0.03756  0.89995  1.0000
  H   H115      1.0  0.22689  0.21213  0.93270  1.0000
  H   H116      1.0  0.05570  0.40607  0.97909  1.0000
  H   H117      1.0  0.26141  0.27427  0.69653  1.0000
  H   H118      1.0  0.22608  0.40421  0.53928  1.0000
  C   C136      1.0  0.26580  0.25209  0.75336  1.0000
  C   C137      1.0  0.08806  0.46889  0.98351  1.0000
  C   C138      1.0  0.04170  0.42141  0.48719  1.0000
  C   C139      1.0  0.19095  0.02695  0.84848  1.0000
  S   S45       1.0  0.31445  0.34698  0.96084  1.0000
  H   H119      1.0  0.24913  0.38709  0.58503  1.0000
  C   C140      1.0  0.16898  0.06523  0.88191  1.0000
  H   H120      1.0  0.31087  0.16674  0.66815  1.0000
  C   C141      1.0  0.28628  0.43374  0.94656  1.0000
  C   C142      1.0  0.28534  0.10341  0.60942  1.0000
  H   H121      1.0  0.05661  0.99396  0.72607  1.0000
  H   H122      1.0  0.19449  0.08890  0.85771  1.0000
  H   H123      1.0  0.03297  0.44392  0.96319  1.0000
  H   H124      1.0  0.29339  0.37612  0.57883  1.0000
  C   C143      1.0  0.07586  0.99855  0.73283  1.0000
  H   H125      1.0  0.22675  0.22328  0.75850  1.0000
  H   H126      1.0  0.10962  0.03326  0.72190  1.0000
  C   C144      1.0  0.07959  0.06951  0.77518  1.0000
  C   C145      1.0  0.27485  0.15084  0.62978  1.0000
  H   H127      1.0  0.01520  0.44900  0.74838  1.0000
  H   H128      1.0  0.05362  0.48446  0.96740  1.0000
  H   H129      1.0  0.14778  0.99422  0.85326  1.0000
  N   N12       1.0  0.25038  0.22284  0.97123  1.0000
  Fe  Fe21      1.0  0.05355  0.47533  0.64140  1.0000
  Fe  Fe22      1.0  0.27748  0.32797  0.96918  1.0000
  C   C146      1.0  0.20807  0.24337  0.68571  1.0000
  H   H130      1.0  0.23744  0.14356  0.61532  1.0000
  H   H131      1.0  0.09031  0.47263  0.49260  1.0000
  S   S46       1.0  0.09626  0.00020  0.90027  1.0000
  H   H132      1.0  0.22541  0.42140  0.48756  1.0000
  C   C147      1.0  0.25848  0.39043  0.56263  1.0000
  C   C148      1.0  0.28909  0.20762  0.93257  1.0000
  Fe  Fe23      1.0  0.05535  0.99257  0.89934  1.0000
  H   H133      1.0  0.27049  0.16928  0.63790  1.0000
  S   S47       1.0  0.27279  0.28672  0.96930  1.0000
  N   N13       1.0  0.29825  0.14176  0.63260  1.0000
  Fe  Fe24      1.0  0.22008  0.33817  0.49201  1.0000
  C   C149      1.0  0.29479  0.38795  0.52982  1.0000
  H   H134      1.0  0.30282  0.40940  0.87626  1.0000
  H   H135      1.0  0.04781  0.05843  0.80198  1.0000
  H   H136      1.0  0.04568  0.01744  0.77631  1.0000
  H   H137      1.0  0.21414  0.05475  0.82758  1.0000
  H   H138      1.0  0.29345  0.44690  0.92956  1.0000
  H   H139      1.0  0.24976  0.43348  0.92642  1.0000
  C   C150      1.0  0.25606  0.13633  0.61693  1.0000
  N   N14       1.0  0.17194  0.02228  0.86888  1.0000
  H   H140      1.0  0.05129  0.38232  0.52058  1.0000
  H   H141      1.0  0.24681  0.10076  0.59763  1.0000
  H   H142      1.0  0.08274  0.39028  0.52811  1.0000
  S   S48       1.0  0.19706  0.37348  0.49827  1.0000
  H   H143      1.0  0.21541  0.23996  0.97707  1.0000
  C   C151      1.0  0.06361  0.46774  0.97316  1.0000
  H   H144      1.0  0.19921  0.01220  0.83463  1.0000
  H   H145      1.0  0.15432  0.99392  0.89549  1.0000
  H   H146      1.0  0.28969  0.08470  0.60220  1.0000
  C   C152      1.0  0.29374  0.21704  0.96309  1.0000
  S   S49       1.0  0.09460  0.48463  0.56643  1.0000
  H   H147      1.0  0.99995  0.46104  0.53388  1.0000
  H   H148      1.0  0.05034  0.01258  0.50229  1.0000
  S   S50       1.0  0.21241  0.29730  0.49260  1.0000
  C   C153      1.0  0.31525  0.40176  0.89387  1.0000
  C   C154      1.0  0.99711  0.99564  0.76882  1.0000
  H   H149      1.0  0.00095  0.00478  0.79130  1.0000
  H   H150      1.0  0.09672  0.48672  0.98590  1.0000
  Fe  Fe25      1.0  0.20774  0.63073  0.22140  1.0000
  S   S51       1.0  0.24207  0.62483  0.19306  1.0000
  S   S52       1.0  0.17021  0.61283  0.21229  1.0000
  Fe  Fe26      1.0  0.23336  0.66903  0.26547  1.0000
  S   S53       1.0  0.26969  0.66506  0.23956  1.0000
  S   S54       1.0  0.22145  0.69566  0.30558  1.0000
  Fe  Fe27      1.0  0.24676  0.66595  0.19423  1.0000
  S   S55       1.0  0.25939  0.68279  0.14676  1.0000
  Fe  Fe28      1.0  0.26207  0.62419  0.24048  1.0000
  S   S56       1.0  0.28836  0.59111  0.24401  1.0000
  S   S57       1.0  0.21107  0.67204  0.21985  1.0000
  S   S58       1.0  0.22716  0.62803  0.26896  1.0000
  H   H151      1.0  0.26097  0.56544  0.31186  1.0000
  S   S59       1.0  0.24978  0.82808  0.44371  1.0000
  S   S60       1.0  0.18373  0.84213  0.42363  1.0000
  Fe  Fe29      1.0  0.23608  0.79847  0.02180  1.0000
  C   C155      1.0  0.27334  0.55115  0.32038  1.0000
  S   S61       1.0  0.22701  0.77933  0.06927  1.0000
  C   C156      1.0  0.29220  0.51119  0.31411  1.0000
  C   C157      1.0  0.27163  0.82406  0.09567  1.0000
  Fe  Fe30      1.0  0.25263  0.78743  0.45173  1.0000
  S   S62       1.0  0.27103  0.76115  0.41595  1.0000
  S   S63       1.0  0.23567  0.83999  0.02403  1.0000
  H   H152      1.0  0.99902  0.96693  0.43656  1.0000
  H   H153      1.0  0.23605  0.76056  0.29737  1.0000
  S   S64       1.0  0.02843  0.95665  0.28474  1.0000
  Fe  Fe31      1.0  0.08302  0.95322  0.38494  1.0000
  S   S65       1.0  0.09916  0.92489  0.42008  1.0000
  S   S66       1.0  0.04173  0.95695  0.37962  1.0000
  H   H154      1.0  0.17532  0.82151  0.35857  1.0000
  N   N15       1.0  0.30916  0.81650  0.06703  1.0000
  S   S67       1.0  0.13445  0.52493  0.12086  1.0000
  H   H155      1.0  0.19349  0.77039  0.31335  1.0000
  C   C158      1.0  0.31803  0.59442  0.29842  1.0000
  S   S68       1.0  0.05929  0.50993  0.11875  1.0000
  C   C159      1.0  0.30602  0.63839  0.16085  1.0000
  H   H156      1.0  0.27875  0.79179  0.06758  1.0000
  H   H157      1.0  0.26453  0.52601  0.28218  1.0000
  H   H158      1.0  0.30922  0.61191  0.30326  1.0000
  Fe  Fe32      1.0  0.05510  0.49090  0.07069  1.0000
  H   H159      1.0  0.26278  0.80995  0.37003  1.0000
  Fe  Fe33      1.0  0.21059  0.82523  0.46026  1.0000
  C   C160      1.0  0.31116  0.58078  0.27144  1.0000
  H   H160      1.0  0.30615  0.59910  0.15418  1.0000
  S   S69       1.0  0.21319  0.78400  0.46570  1.0000
  H   H161      1.0  0.16504  0.79179  0.34515  1.0000
  C   C161      1.0  0.16164  0.86661  0.42354  1.0000
  C   C162      1.0  0.15360  0.87617  0.39401  1.0000
  C   C163      1.0  0.13518  0.89456  0.39244  1.0000
  C   C164      1.0  0.12412  0.90334  0.42044  1.0000
  C   C165      1.0  0.13220  0.89383  0.44997  1.0000
  C   C166      1.0  0.15098  0.87581  0.45157  1.0000
  H   H162      1.0  0.16159  0.86924  0.37211  1.0000
  H   H163      1.0  0.12914  0.90150  0.36955  1.0000
  H   H164      1.0  0.12376  0.90033  0.47181  1.0000
  C   C167      1.0  0.31314  0.61442  0.16813  1.0000
  C   C168      1.0  0.04824  0.93292  0.47397  1.0000
  C   C169      1.0  0.22334  0.80713  0.36521  1.0000
  H   H165      1.0  0.31644  0.54055  0.37758  1.0000
  H   H166      1.0  0.31772  0.54737  0.24478  1.0000
  H   H167      1.0  0.07563  0.97097  0.26368  1.0000
  C   C170      1.0  0.16135  0.58679  0.18886  1.0000
  C   C171      1.0  0.17751  0.57503  0.16772  1.0000
  C   C172      1.0  0.16897  0.55601  0.14745  1.0000
  C   C173      1.0  0.14432  0.54812  0.14837  1.0000
  C   C174      1.0  0.12831  0.55956  0.16998  1.0000
  C   C175      1.0  0.13677  0.57879  0.18996  1.0000
  H   H168      1.0  0.19645  0.58089  0.16655  1.0000
  H   H169      1.0  0.18155  0.54728  0.13091  1.0000
  H   H170      1.0  0.10933  0.55376  0.17106  1.0000
  H   H171      1.0  0.12409  0.58764  0.20628  1.0000
  C   C176      1.0  0.31646  0.88367  0.02434  1.0000
  C   C177      1.0  0.23265  0.77419  0.31591  1.0000
  N   N16       1.0  0.20419  0.79603  0.34964  1.0000
  H   H172      1.0  0.15675  0.86860  0.47445  1.0000
  H   H173      1.0  0.19917  0.71263  0.48112  1.0000
  C   C178      1.0  0.23587  0.71236  0.33725  1.0000
  C   C179      1.0  0.26143  0.71406  0.34046  1.0000
  C   C180      1.0  0.27183  0.72872  0.36498  1.0000
  C   C181      1.0  0.25689  0.74202  0.38645  1.0000
  C   C182      1.0  0.23133  0.74016  0.38341  1.0000
  C   C183      1.0  0.22095  0.72533  0.35910  1.0000
  H   H174      1.0  0.27318  0.70425  0.32390  1.0000
  H   H175      1.0  0.29162  0.72997  0.36708  1.0000
  H   H176      1.0  0.21952  0.75039  0.39945  1.0000
  H   H177      1.0  0.20116  0.72417  0.35687  1.0000
  C   C184      1.0  0.25016  0.70983  0.12572  1.0000
  C   C185      1.0  0.23274  0.72636  0.13789  1.0000
  C   C186      1.0  0.22594  0.74739  0.12021  1.0000
  C   C187      1.0  0.23640  0.75229  0.09016  1.0000
  C   C188      1.0  0.25391  0.73581  0.07804  1.0000
  C   C189      1.0  0.26070  0.71475  0.09571  1.0000
  H   H178      1.0  0.22456  0.72307  0.16099  1.0000
  H   H179      1.0  0.21242  0.76001  0.12991  1.0000
  H   H180      1.0  0.26209  0.73918  0.05496  1.0000
  H   H181      1.0  0.27417  0.70213  0.08595  1.0000
  N   N17       1.0  0.15598  0.64049  0.14290  1.0000
  C   C190      1.0  0.16873  0.66115  0.15137  1.0000
  C   C191      1.0  0.16658  0.62301  0.12369  1.0000
  C   C192      1.0  0.19272  0.66475  0.14048  1.0000
  C   C193      1.0  0.19071  0.62583  0.11285  1.0000
  C   C194      1.0  0.20381  0.64690  0.12128  1.0000
  C   C195      1.0  0.13072  0.63746  0.15432  1.0000
  H   H182      1.0  0.16047  0.67480  0.16702  1.0000
  H   H183      1.0  0.15663  0.60643  0.11733  1.0000
  H   H184      1.0  0.20285  0.68112  0.14726  1.0000
  H   H185      1.0  0.19923  0.61163  0.09831  1.0000
  H   H186      1.0  0.22259  0.64940  0.11325  1.0000
  H   H187      1.0  0.12336  0.61893  0.14850  1.0000
  H   H188      1.0  0.13024  0.63934  0.18081  1.0000
  H   H189      1.0  0.11849  0.65151  0.14344  1.0000
  C   C196      1.0  0.00397  0.50056  0.47154  1.0000
  C   C197      1.0  0.28073  0.84663  0.10620  1.0000
  C   C198      1.0  0.99331  0.50958  0.09518  1.0000
  S   S70       1.0  0.30664  0.85772  0.00139  1.0000
  C   C199      1.0  0.28617  0.80914  0.07598  1.0000
  H   H190      1.0  0.23380  0.73101  0.45107  1.0000
  Fe  Fe34      1.0  0.04871  0.97095  0.32958  1.0000
  H   H191      1.0  0.25323  0.81829  0.10217  1.0000
  H   H192      1.0  0.29388  0.49412  0.30080  1.0000
  H   H193      1.0  0.31135  0.87168  0.10455  1.0000
  H   H194      1.0  0.29676  0.92731  0.07734  1.0000
  C   C200      1.0  0.30454  0.53698  0.35719  1.0000
  H   H195      1.0  0.31658  0.78235  0.04307  1.0000
  C   C201      1.0  0.30424  0.85392  0.09715  1.0000
  C   C202      1.0  0.30939  0.91692  0.06258  1.0000
  S   S71       1.0  0.03303  0.50772  0.02929  1.0000
  H   H196      1.0  0.21986  0.81992  0.38465  1.0000
  C   C203      1.0  0.24764  0.80183  0.35673  1.0000
  H   H197      1.0  0.17657  0.79576  0.38526  1.0000
  H   H198      1.0  0.00470  0.52550  0.10009  1.0000
  C   C204      1.0  0.17900  0.80142  0.35996  1.0000
  H   H199      1.0  0.27106  0.78031  0.32592  1.0000
  H   H200      1.0  0.07364  0.95993  0.45731  1.0000
  Fe  Fe35      1.0  0.09988  0.50098  0.11498  1.0000
  C   C205      1.0  0.30036  0.89746  0.04340  1.0000
  C   C206      1.0  0.99960  0.49498  0.20648  1.0000
  H   H201      1.0  0.26943  0.85859  0.12093  1.0000
  C   C207      1.0  0.27545  0.52903  0.30359  1.0000
  N   N18       1.0  0.30665  0.51544  0.34041  1.0000
  H   H202      1.0  0.29365  0.64192  0.14096  1.0000
  C   C208      1.0  0.99317  0.97772  0.45698  1.0000
  H   H203      1.0  0.28680  0.57251  0.36022  1.0000
  C   C209      1.0  0.20856  0.77973  0.32524  1.0000
  H   H204      1.0  0.28101  0.89299  0.04359  1.0000
  S   S72       1.0  0.08967  0.96355  0.33367  1.0000
  C   C210      1.0  0.25228  0.78524  0.33192  1.0000
  C   C211      1.0  0.28784  0.55513  0.34748  1.0000
  H   H205      1.0  0.05413  0.91914  0.45670  1.0000
  C   C212      1.0  0.00646  0.97048  0.25848  1.0000
  H   H206      1.0  0.01445  0.51622  0.46359  1.0000
  H   H207      1.0  0.00624  0.50712  0.18812  1.0000
  C   C213      1.0  0.99984  0.95804  0.23011  1.0000
  H   H208      1.0  0.00890  0.94090  0.22409  1.0000
  C   C214      1.0  0.31447  0.65783  0.17970  1.0000
  H   H209      1.0  0.31109  0.97686  0.12674  1.0000
  C   C215      1.0  0.05921  0.95610  0.47432  1.0000
  C   C216      1.0  0.31821  0.83861  0.07726  1.0000
  H   H210      1.0  0.30866  0.67650  0.17444  1.0000
  S   S73       1.0  0.27121  0.79688  0.99362  1.0000
  C   C217      1.0  0.01038  0.49442  0.00367  1.0000
  C   C218      1.0  0.23679  0.72374  0.47483  1.0000
  H   H211      1.0  0.27477  0.73411  0.47616  1.0000
  Fe  Fe36      1.0  0.26955  0.83838  0.99350  1.0000
  H   H212      1.0  0.12048  0.97812  0.26328  1.0000
  C   C219      1.0  0.99460  0.48893  0.11484  1.0000
  H   H213      1.0  0.00689  0.48916  0.13528  1.0000
  Fe  Fe37      1.0  0.20313  0.63498  0.71815  1.0000
  S   S74       1.0  0.23812  0.62872  0.69079  1.0000
  S   S75       1.0  0.16540  0.61726  0.71068  1.0000
  Fe  Fe38      1.0  0.22921  0.66880  0.76812  1.0000
  S   S76       1.0  0.26597  0.66383  0.74440  1.0000
  S   S77       1.0  0.21961  0.68926  0.81462  1.0000
  Fe  Fe39      1.0  0.24459  0.66951  0.69809  1.0000
  S   S78       1.0  0.26049  0.69712  0.66222  1.0000
  Fe  Fe40      1.0  0.25627  0.62367  0.73915  1.0000
  S   S79       1.0  0.27524  0.58693  0.75064  1.0000
  S   S80       1.0  0.20835  0.67604  0.72244  1.0000
  S   S81       1.0  0.22082  0.62840  0.76593  1.0000
  H   H214      1.0  0.22284  0.57784  0.73774  1.0000
  S   S82       1.0  0.24810  0.83968  0.94712  1.0000
  C   C220      1.0  0.21222  0.56346  0.72625  1.0000
  Fe  Fe41      1.0  0.22695  0.79091  0.51609  1.0000
  C   C221      1.0  0.28742  0.64398  0.85265  1.0000
  S   S83       1.0  0.21130  0.76575  0.55510  1.0000
  N   N19       1.0  0.23013  0.73786  0.72813  1.0000
  H   H215      1.0  0.20655  0.69632  0.53578  1.0000
  Fe  Fe42      1.0  0.24725  0.79821  0.94941  1.0000
  S   S84       1.0  0.25828  0.77790  0.90314  1.0000
  S   S85       1.0  0.22064  0.83207  0.51197  1.0000
  C   C222      1.0  0.31449  0.91481  0.62031  1.0000
  C   C223      1.0  0.20818  0.73591  0.74378  1.0000
  C   C224      1.0  0.00610  0.96402  0.72985  1.0000
  Fe  Fe43      1.0  0.10055  0.96515  0.87195  1.0000
  S   S86       1.0  0.13594  0.94178  0.87543  1.0000
  S   S87       1.0  0.05994  0.95611  0.87348  1.0000
  H   H216      1.0  0.17007  0.75788  0.68586  1.0000
  Fe  Fe44      1.0  0.09722  0.50439  0.61399  1.0000
  S   S88       1.0  0.13115  0.52930  0.61858  1.0000
  H   H217      1.0  0.13165  0.85923  0.89898  1.0000
  C   C225      1.0  0.24512  0.70558  0.53564  1.0000
  S   S89       1.0  0.05629  0.51193  0.61617  1.0000
  H   H218      1.0  0.26643  0.72293  0.72616  1.0000
  S   S90       1.0  0.21203  0.79717  0.97766  1.0000
  H   H219      1.0  0.20657  0.79148  0.90755  1.0000
  H   H220      1.0  0.30589  0.91551  0.50778  1.0000
  H   H221      1.0  0.20749  0.72822  0.76768  1.0000
  N   N20       1.0  0.05174  0.97374  0.49560  1.0000
  S   S91       1.0  0.03317  0.50302  0.52536  1.0000
  H   H222      1.0  0.99314  0.54668  0.50842  1.0000
  C   C226      1.0  0.26826  0.63339  0.83521  1.0000
  H   H223      1.0  0.21032  0.76270  0.65863  1.0000
  C   C227      1.0  0.23106  0.74787  0.69825  1.0000
  C   C228      1.0  0.16760  0.88459  0.94635  1.0000
  C   C229      1.0  0.14341  0.89356  0.95001  1.0000
  C   C230      1.0  0.13358  0.91144  0.92913  1.0000
  C   C231      1.0  0.14780  0.92058  0.90412  1.0000
  C   C232      1.0  0.17215  0.91197  0.90083  1.0000
  C   C233      1.0  0.18206  0.89425  0.92191  1.0000
  C   C234      1.0  0.02254  0.94568  0.51795  1.0000
  H   H224      1.0  0.11486  0.91784  0.93212  1.0000
  H   H225      1.0  0.18341  0.91894  0.88170  1.0000
  H   H226      1.0  0.20072  0.88768  0.91883  1.0000
  H   H227      1.0  0.31849  0.84426  0.54819  1.0000
  H   H228      1.0  0.29160  0.73919  0.53879  1.0000
  C   C235      1.0  0.19753  0.80767  0.89807  1.0000
  H   H229      1.0  0.24851  0.74955  0.68595  1.0000
  C   C236      1.0  0.27539  0.91687  0.57769  1.0000
  C   C237      1.0  0.15584  0.59363  0.68376  1.0000
  C   C238      1.0  0.17122  0.58431  0.65982  1.0000
  C   C239      1.0  0.16308  0.56502  0.63976  1.0000
  C   C240      1.0  0.13960  0.55461  0.64348  1.0000
  C   C241      1.0  0.12425  0.56388  0.66748  1.0000
  C   C242      1.0  0.13229  0.58335  0.68733  1.0000
  H   H230      1.0  0.18936  0.59198  0.65674  1.0000
  H   H231      1.0  0.17512  0.55804  0.62127  1.0000
  H   H232      1.0  0.10616  0.55609  0.67069  1.0000
  H   H233      1.0  0.12021  0.59041  0.70574  1.0000
  H   H234      1.0  0.17888  0.57202  0.75166  1.0000
  C   C243      1.0  0.20951  0.75534  0.68268  1.0000
  H   H235      1.0  0.24929  0.71476  0.76074  1.0000
  C   C244      1.0  0.30687  0.55328  0.77803  1.0000
  C   C245      1.0  0.20983  0.82259  0.87648  1.0000
  C   C246      1.0  0.23112  0.71362  0.83922  1.0000
  C   C247      1.0  0.25339  0.72546  0.83309  1.0000
  C   C248      1.0  0.26130  0.74498  0.85296  1.0000
  C   C249      1.0  0.24737  0.75274  0.87953  1.0000
  C   C250      1.0  0.22533  0.74059  0.88600  1.0000
  C   C251      1.0  0.21726  0.72127  0.86589  1.0000
  H   H236      1.0  0.26472  0.71948  0.81339  1.0000
  H   H237      1.0  0.27850  0.75405  0.84788  1.0000
  H   H238      1.0  0.21452  0.74600  0.90651  1.0000
  H   H239      1.0  0.20013  0.71212  0.87113  1.0000
  C   C252      1.0  0.24638  0.71570  0.63221  1.0000
  C   C253      1.0  0.22129  0.71434  0.62490  1.0000
  C   C254      1.0  0.21092  0.72995  0.60152  1.0000
  C   C255      1.0  0.22541  0.74705  0.58496  1.0000
  C   C256      1.0  0.25049  0.74844  0.59230  1.0000
  C   C257      1.0  0.26086  0.73286  0.61573  1.0000
  H   H240      1.0  0.20984  0.70132  0.63734  1.0000
  H   H241      1.0  0.19149  0.72867  0.59608  1.0000
  H   H242      1.0  0.26187  0.76160  0.58003  1.0000
  H   H243      1.0  0.28026  0.73423  0.62127  1.0000
  C   C258      1.0  0.17379  0.81406  0.90789  1.0000
  Fe  Fe45      1.0  0.05624  0.97861  0.82817  1.0000
  C   C259      1.0  0.00956  0.48981  0.50127  1.0000
  H   H244      1.0  0.21736  0.51916  0.66937  1.0000
  H   H245      1.0  0.31757  0.61470  0.77612  1.0000
  H   H246      1.0  0.15038  0.51085  0.68246  1.0000
  C   C260      1.0  0.28616  0.59339  0.84466  1.0000
  C   C261      1.0  0.18765  0.55995  0.73435  1.0000
  N   N21       1.0  0.16237  0.83449  0.89593  1.0000
  H   H247      1.0  0.00775  0.94208  0.53463  1.0000
  Fe  Fe46      1.0  0.21416  0.83869  0.97765  1.0000
  H   H248      1.0  0.31496  0.97547  0.60418  1.0000
  C   C262      1.0  0.17405  0.84893  0.87409  1.0000
  H   H249      1.0  0.13592  0.83962  0.93259  1.0000
  H   H250      1.0  0.30634  0.87617  0.62426  1.0000
  Fe  Fe47      1.0  0.26021  0.83334  0.49549  1.0000
  S   S92       1.0  0.03746  0.96515  0.78190  1.0000
  N   N22       1.0  0.26387  0.71641  0.51924  1.0000
  C   C263      1.0  0.26765  0.60795  0.83105  1.0000
  H   H251      1.0  0.00695  0.95651  0.94194  1.0000
  C   C264      1.0  0.30284  0.57827  0.77104  1.0000
  H   H252      1.0  0.24216  0.55141  0.69657  1.0000
  C   C265      1.0  0.19806  0.84340  0.86437  1.0000
  H   H253      1.0  0.26089  0.91752  0.55980  1.0000
  C   C266      1.0  0.28126  0.89466  0.59235  1.0000
  C   C267      1.0  0.25290  0.73001  0.74391  1.0000
  S   S93       1.0  0.17779  0.85988  0.97107  1.0000
  C   C268      1.0  0.20893  0.53050  0.68773  1.0000
  H   H254      1.0  0.29360  0.53978  0.77014  1.0000
  C   C269      1.0  0.01170  0.97574  0.75910  1.0000
  H   H255      1.0  0.28804  0.66378  0.85589  1.0000
  H   H256      1.0  0.28576  0.57368  0.84070  1.0000
  C   C270      1.0  0.18695  0.75263  0.69798  1.0000
  C   C271      1.0  0.22303  0.54863  0.70291  1.0000
  C   C272      1.0  0.30088  0.89358  0.61389  1.0000
  C   C273      1.0  0.99659  0.49793  0.70444  1.0000
  H   H257      1.0  0.16881  0.74066  0.74092  1.0000
  C   C274      1.0  0.02970  0.92776  0.49584  1.0000
  C   C275      1.0  0.03391  0.96869  0.51757  1.0000
  H   H258      1.0  0.25322  0.59955  0.81677  1.0000
  C   C276      1.0  0.30577  0.62888  0.86571  1.0000
  C   C277      1.0  0.30954  0.87868  0.52593  1.0000
  C   C278      1.0  0.17412  0.54160  0.71880  1.0000
  C   C279      1.0  0.13722  0.84033  0.90606  1.0000
  C   C280      1.0  0.00118  0.96654  0.96303  1.0000
  H   H259      1.0  0.13203  0.88635  0.96890  1.0000
  H   H260      1.0  0.16468  0.80281  0.92555  1.0000
  C   C281      1.0  0.18624  0.74298  0.72881  1.0000
  C   C282      1.0  0.21742  0.71328  0.49162  1.0000
  H   H261      1.0  0.00622  0.52747  0.97597  1.0000
  S   S94       1.0  0.28215  0.86863  0.50627  1.0000
  H   H262      1.0  0.17398  0.50798  0.65345  1.0000
  H   H263      1.0  0.01725  0.94862  0.72202  1.0000
  N   N23       1.0  0.18475  0.52732  0.69559  1.0000
  H   H264      1.0  0.22856  0.81806  0.86953  1.0000
  H   H265      1.0  0.26107  0.74562  0.75737  1.0000
  H   H266      1.0  0.25399  0.64492  0.82482  1.0000
  H   H267      1.0  0.15483  0.53948  0.72462  1.0000
  C   C283      1.0  0.32027  0.59544  0.78137  1.0000
  S   S95       1.0  0.26691  0.79254  0.50230  1.0000
  H   H268      1.0  0.27136  0.87808  0.58578  1.0000
  H   H269      1.0  0.12411  0.82704  0.89539  1.0000
  C   C284      1.0  0.17053  0.50794  0.67965  1.0000
  C   C285      1.0  0.00014  0.50873  0.97900  1.0000
  C   C286      1.0  0.28934  0.93778  0.58474  1.0000
  H   H270      1.0  0.28952  0.70953  0.55730  1.0000
  H   H271      1.0  0.00048  0.50725  0.68226  1.0000
  N   N24       1.0  0.30850  0.93656  0.60599  1.0000
  H   H272      1.0  0.16507  0.86524  0.86474  1.0000
  H   H273      1.0  0.30269  0.71204  0.51809  1.0000
  H   H274      1.0  0.24802  0.69875  0.55968  1.0000
  H   H275      1.0  0.28524  0.95475  0.57236  1.0000
  H   H276      1.0  0.20757  0.85531  0.84787  1.0000
  C   C287      1.0  0.25998  0.72537  0.48916  1.0000
  C   C288      1.0  0.28813  0.71937  0.53413  1.0000
  C   C289      1.0  0.22158  0.70403  0.52219  1.0000
  H   H277      1.0  0.02785  0.98271  0.53433  1.0000
  H   H278      1.0  0.32072  0.63723  0.87905  1.0000
  Fe  Fe48      1.0  0.05347  0.48943  0.57042  1.0000
  N   N25       1.0  0.30497  0.60394  0.86160  1.0000
  H   H279      1.0  0.17547  0.48970  0.68954  1.0000
  H   H280      1.0  0.02080  0.90996  0.49550  1.0000
  S   S96       1.0  0.09714  0.98482  0.82462  1.0000
  C   C290      1.0  0.31648  0.90349  0.52312  1.0000
  H   H281      1.0  0.08229  0.98477  0.75055  1.0000
  H   H282      1.0  0.17699  0.98321  0.86802  1.0000
  C   C291      1.0  0.48048  0.99775  0.20635  1.0000
  S   S97       1.0  0.38732  0.00301  0.06842  1.0000
  Fe  Fe49      1.0  0.59195  0.01107  0.36982  1.0000
  S   S98       1.0  0.62480  0.03738  0.37396  1.0000
  H   H283      1.0  0.49361  0.43875  0.98870  1.0000
  S   S99       1.0  0.55034  0.01375  0.36916  1.0000
  S   S100      1.0  0.43215  0.01604  0.11772  1.0000
  H   H284      1.0  0.40749  0.99541  0.22729  1.0000
  C   C292      1.0  0.52242  0.01699  0.04071  1.0000
  C   C293      1.0  0.50568  0.47400  0.00640  1.0000
  Fe  Fe50      1.0  0.39098  0.02143  0.11643  1.0000
  S   S101      1.0  0.37261  0.05888  0.12541  1.0000
  C   C294      1.0  0.62947  0.37795  0.18584  1.0000
  S   S102      1.0  0.42457  0.45356  0.36930  1.0000
  C   C295      1.0  0.47520  0.46491  0.46695  1.0000
  H   H285      1.0  0.36611  0.09368  0.20876  1.0000
  Fe  Fe51      1.0  0.38349  0.46115  0.36851  1.0000
  S   S103      1.0  0.34815  0.43841  0.37531  1.0000
  S   S104      1.0  0.59401  0.47989  0.07000  1.0000
  S   S105      1.0  0.55399  0.45586  0.11982  1.0000
  Fe  Fe52      1.0  0.59516  0.46222  0.11885  1.0000
  S   S106      1.0  0.63025  0.43954  0.12938  1.0000
  H   H286      1.0  0.51476  0.99835  0.04481  1.0000
  S   S107      1.0  0.52761  0.46065  0.03321  1.0000
  C   C296      1.0  0.33847  0.41380  0.40041  1.0000
  C   C297      1.0  0.35428  0.40217  0.42211  1.0000
  H   H287      1.0  0.61590  0.36629  0.19685  1.0000
  H   H288      1.0  0.50636  0.02918  0.03590  1.0000
  H   H289      1.0  0.37316  0.40815  0.42412  1.0000
  H   H290      1.0  0.42121  0.06233  0.17706  1.0000
  H   H291      1.0  0.50282  0.43809  0.08948  1.0000
  C   C298      1.0  0.49186  0.45501  0.35060  1.0000
  H   H292      1.0  0.47930  0.44766  0.06178  1.0000
  H   H293      1.0  0.47594  0.99598  0.35794  1.0000
  H   H294      1.0  0.46355  0.45294  0.45285  1.0000
  C   C299      1.0  0.48664  0.48802  0.09663  1.0000
  H   H295      1.0  0.48209  0.48771  0.32519  1.0000
  C   C300      1.0  0.50236  0.46758  0.21315  1.0000
  C   C301      1.0  0.48527  0.45763  0.23486  1.0000
  H   H296      1.0  0.51258  0.45562  0.19725  1.0000
  H   H297      1.0  0.48256  0.43796  0.23548  1.0000
  C   C302      1.0  0.62162  0.39865  0.16818  1.0000
  C   C303      1.0  0.63886  0.41380  0.15339  1.0000
  H   H298      1.0  0.37215  0.01557  0.25485  1.0000
  H   H299      1.0  0.65090  0.19740  0.36971  1.0000
  H   H300      1.0  0.60222  0.40272  0.16573  1.0000
  S   S108      1.0  0.45264  0.00592  0.02921  1.0000
  C   C304      1.0  0.47332  0.99128  0.00197  1.0000
  C   C305      1.0  0.34708  0.06683  0.14995  1.0000
  C   C306      1.0  0.51097  0.46137  0.40208  1.0000
  C   C307      1.0  0.49043  0.48048  0.34677  1.0000
  C   C308      1.0  0.63105  0.08608  0.44875  1.0000
  Fe  Fe53      1.0  0.55164  0.99037  0.32417  1.0000
  C   C309      1.0  0.63562  0.05975  0.40187  1.0000
  H   H301      1.0  0.35816  0.37385  0.45777  1.0000
  C   C310      1.0  0.65462  0.37220  0.18935  1.0000
  S   S109      1.0  0.38499  0.47956  0.32014  1.0000
  C   C311      1.0  0.41675  0.02783  0.20081  1.0000
  H   H302      1.0  0.53184  0.02322  0.06287  1.0000
  H   H303      1.0  0.34504  0.03232  0.17454  1.0000
  H   H304      1.0  0.50988  0.02187  0.22127  1.0000
  H   H305      1.0  0.63653  0.29196  0.15239  1.0000
  C   C312      1.0  0.50583  0.99219  0.25467  1.0000
  N   N26       1.0  0.39115  0.06326  0.20970  1.0000
  C   C313      1.0  0.65263  0.00520  0.45622  1.0000
  C   C314      1.0  0.49962  0.00550  0.22697  1.0000
  H   H306      1.0  0.47636  0.00805  0.18496  1.0000
  C   C315      1.0  0.32693  0.04731  0.06994  1.0000
  H   H307      1.0  0.45590  0.48252  0.17918  1.0000
  H   H308      1.0  0.61978  0.09279  0.46822  1.0000
  C   C316      1.0  0.48321  0.44375  0.08738  1.0000
  C   C317      1.0  0.33740  0.05063  0.17241  1.0000
  N   N27       1.0  0.47875  0.46565  0.10709  1.0000
  H   H309      1.0  0.48467  0.44285  0.33216  1.0000
  C   C318      1.0  0.50214  0.44543  0.37850  1.0000
  S   S110      1.0  0.53006  0.00330  0.27984  1.0000
  H   H310      1.0  0.32901  0.39367  0.00440  1.0000
  C   C319      1.0  0.47170  0.47284  0.25577  1.0000
  C   C320      1.0  0.54500  0.03882  0.99906  1.0000
  H   H311      1.0  0.34422  0.10333  0.13041  1.0000
  C   C321      1.0  0.64722  0.16336  0.41575  1.0000
  C   C322      1.0  0.37761  0.05046  0.23146  1.0000
  C   C323      1.0  0.38311  0.02583  0.23798  1.0000
  S   S111      1.0  0.45017  0.45916  0.28239  1.0000
  C   C324      1.0  0.55090  0.99576  0.00426  1.0000
  H   H312      1.0  0.39755  0.10097  0.21943  1.0000
  H   H313      1.0  0.38908  0.09399  0.17846  1.0000
  Fe  Fe54      1.0  0.42801  0.99454  0.07151  1.0000
  Fe  Fe55      1.0  0.42626  0.47493  0.32297  1.0000
  C   C325      1.0  0.49838  0.00112  0.46222  1.0000
  H   H314      1.0  0.33259  0.99993  0.08486  1.0000
  C   C326      1.0  0.34568  0.38265  0.44116  1.0000
  H   H315      1.0  0.60317  0.06105  0.43102  1.0000
  H   H316      1.0  0.64137  0.14382  0.41426  1.0000
  H   H317      1.0  0.46240  0.44572  0.14531  1.0000
  H   H318      1.0  0.43216  0.01913  0.18883  1.0000
  H   H319      1.0  0.63106  0.17502  0.40979  1.0000
  H   H320      1.0  0.50657  0.01309  0.44472  1.0000
  C   C327      1.0  0.62154  0.06809  0.42766  1.0000
  H   H321      1.0  0.50302  0.42572  0.38198  1.0000
  H   H322      1.0  0.47141  0.42813  0.09447  1.0000
  C   C328      1.0  0.50921  0.48675  0.39746  1.0000
  C   C329      1.0  0.33682  0.09055  0.14757  1.0000
  H   H323      1.0  0.51858  0.45420  0.42419  1.0000
  H   H324      1.0  0.65275  0.16730  0.44089  1.0000
  Fe  Fe56      1.0  0.55255  0.47659  0.07288  1.0000
  N   N28       1.0  0.53961  0.01710  0.01377  1.0000
  C   C330      1.0  0.46787  0.46353  0.13640  1.0000
  H   H325      1.0  0.32949  0.06688  0.07692  1.0000
  C   C331      1.0  0.40288  0.01451  0.22257  1.0000
  C   C332      1.0  0.41056  0.05228  0.19448  1.0000
  H   H326      1.0  0.36220  0.05916  0.24352  1.0000
  H   H327      1.0  0.34571  0.03975  0.06607  1.0000
  H   H328      1.0  0.64406  0.33452  0.13755  1.0000
  H   H329      1.0  0.33568  0.32266  0.41083  1.0000
  C   C333      1.0  0.38576  0.08929  0.20393  1.0000
  C   C334      1.0  0.32901  0.30338  0.41176  1.0000
  H   H330      1.0  0.53613  0.05575  0.00664  1.0000
  H   H331      1.0  0.34480  0.29120  0.40586  1.0000
  H   H332      1.0  0.45249  0.00341  0.40772  1.0000
  H   H333      1.0  0.32789  0.48255  0.33267  1.0000
  C   C335      1.0  0.46405  0.48429  0.15565  1.0000
  C   C336      1.0  0.48005  0.01023  0.48309  1.0000
  H   H334      1.0  0.32306  0.29958  0.43664  1.0000
  H   H335      1.0  0.47434  0.02925  0.48141  1.0000
  S   S112      1.0  0.59317  0.99065  0.32287  1.0000
  C   C337      1.0  0.65492  0.09551  0.44484  1.0000
  H   H336      1.0  0.65448  0.02293  0.46801  1.0000
  H   H337      1.0  0.50239  0.99024  0.38316  1.0000
  C   C338      1.0  0.49122  0.45845  0.98699  1.0000
  H   H338      1.0  0.64458  0.02739  0.91372  1.0000
  C   C339      1.0  0.48438  0.00555  0.97801  1.0000
  Fe  Fe57      1.0  0.58489  0.01851  0.87673  1.0000
  S   S113      1.0  0.59915  0.05470  0.89865  1.0000
  C   C340      1.0  0.50190  0.44919  0.87957  1.0000
  S   S114      1.0  0.54372  0.01333  0.87843  1.0000
  S   S115      1.0  0.42048  0.01060  0.61929  1.0000
  C   C341      1.0  0.49947  0.99875  0.76141  1.0000
  C   C342      1.0  0.46787  0.00126  0.71934  1.0000
  S   S116      1.0  0.44529  0.00730  0.53077  1.0000
  H   H339      1.0  0.47475  0.02887  0.58491  1.0000
  S   S117      1.0  0.34354  0.01995  0.62937  1.0000
  Fe  Fe58      1.0  0.38016  0.00019  0.61845  1.0000
  S   S118      1.0  0.42106  0.45612  0.87118  1.0000
  H   H340      1.0  0.49951  0.43997  0.62100  1.0000
  S   S119      1.0  0.44878  0.45924  0.78486  1.0000
  Fe  Fe59      1.0  0.38011  0.46372  0.86822  1.0000
  S   S120      1.0  0.34597  0.43945  0.87635  1.0000
  C   C343      1.0  0.46192  0.00006  0.88313  1.0000
  S   S121      1.0  0.55491  0.45380  0.62357  1.0000
  Fe  Fe60      1.0  0.59566  0.46150  0.62008  1.0000
  S   S122      1.0  0.63079  0.43854  0.62853  1.0000
  H   H341      1.0  0.35948  0.37413  0.95675  1.0000
  S   S123      1.0  0.52572  0.45664  0.53866  1.0000
  C   C344      1.0  0.33856  0.41249  0.89833  1.0000
  C   C345      1.0  0.35448  0.40224  0.92103  1.0000
  H   H342      1.0  0.64865  0.26674  0.66675  1.0000
  C   C346      1.0  0.64682  0.04624  0.92149  1.0000
  H   H343      1.0  0.37249  0.41015  0.92468  1.0000
  C   C347      1.0  0.47455  0.99673  0.85446  1.0000
  C   C348      1.0  0.63199  0.38092  0.69160  1.0000
  H   H344      1.0  0.32327  0.17134  0.62839  1.0000
  H   H345      1.0  0.48843  0.43662  0.58113  1.0000
  Fe  Fe61      1.0  0.42383  0.47594  0.82377  1.0000
  H   H346      1.0  0.45441  0.01195  0.70627  1.0000
  C   C349      1.0  0.48410  0.44504  0.60476  1.0000
  H   H347      1.0  0.46291  0.45585  0.95042  1.0000
  C   C350      1.0  0.50155  0.46628  0.71609  1.0000
  C   C351      1.0  0.48387  0.45684  0.73738  1.0000
  H   H348      1.0  0.51170  0.45398  0.70057  1.0000
  H   H349      1.0  0.48052  0.43727  0.73787  1.0000
  C   C352      1.0  0.65328  0.09512  0.94185  1.0000
  C   C353      1.0  0.64009  0.41363  0.65352  1.0000
  C   C354      1.0  0.65106  0.47222  0.69199  1.0000
  C   C355      1.0  0.63103  0.08753  0.92732  1.0000
  H   H350      1.0  0.60432  0.40566  0.67244  1.0000
  C   C356      1.0  0.50671  0.47021  0.50870  1.0000
  H   H351      1.0  0.61896  0.37087  0.70592  1.0000
  C   C357      1.0  0.33516  0.04635  0.65256  1.0000
  C   C358      1.0  0.34483  0.08391  0.68204  1.0000
  C   C359      1.0  0.35253  0.06276  0.66497  1.0000
  H   H352      1.0  0.35847  0.09653  0.69123  1.0000
  H   H353      1.0  0.37190  0.05927  0.66118  1.0000
  C   C360      1.0  0.62764  0.06308  0.91697  1.0000
  H   H354      1.0  0.51022  0.00661  0.93876  1.0000
  C   C361      1.0  0.49187  0.02809  0.63158  1.0000
  H   H355      1.0  0.47955  0.02479  0.97602  1.0000
  H   H356      1.0  0.48391  0.44527  0.83374  1.0000
  C   C362      1.0  0.62359  0.40068  0.67260  1.0000
  H   H357      1.0  0.49269  0.47805  0.65058  1.0000
  H   H358      1.0  0.56615  0.05663  0.96196  1.0000
  H   H359      1.0  0.51844  0.45921  0.92474  1.0000
  C   C363      1.0  0.34699  0.38182  0.93925  1.0000
  H   H360      1.0  0.46676  0.43714  0.61398  1.0000
  C   C364      1.0  0.47373  0.46809  0.96524  1.0000
  C   C365      1.0  0.48688  0.99243  0.59773  1.0000
  H   H361      1.0  0.47620  0.01175  0.83762  1.0000
  H   H362      1.0  0.50417  0.42959  0.88308  1.0000
  C   C366      1.0  0.48178  0.01227  0.74412  1.0000
  S   S124      1.0  0.51638  0.01368  0.79250  1.0000
  S   S125      1.0  0.38268  0.48053  0.81888  1.0000
  Fe  Fe62      1.0  0.55138  0.47391  0.57636  1.0000
  C   C367      1.0  0.50304  0.01327  0.65459  1.0000
  H   H363      1.0  0.63235  0.46410  0.69072  1.0000
  C   C368      1.0  0.50998  0.46578  0.90285  1.0000
  H   H364      1.0  0.45368  0.01773  0.88881  1.0000
  H   H365      1.0  0.48911  0.04754  0.63619  1.0000
  H   H366      1.0  0.32224  0.11122  0.62444  1.0000
  N   N29       1.0  0.48174  0.47180  0.60228  1.0000
  S   S126      1.0  0.58604  0.00810  0.82458  1.0000
  H   H367      1.0  0.33390  0.14642  0.65355  1.0000
  H   H368      1.0  0.61632  0.10074  0.92404  1.0000
  C   C369      1.0  0.48735  0.48326  0.84801  1.0000
  Fe  Fe63      1.0  0.54569  0.99939  0.82759  1.0000
  C   C370      1.0  0.49054  0.45795  0.85193  1.0000
  H   H369      1.0  0.47879  0.03144  0.74995  1.0000
  C   C371      1.0  0.48382  0.01767  0.60287  1.0000
  C   C372      1.0  0.47057  0.47241  0.75813  1.0000
  H   H370      1.0  0.58650  0.01815  0.94461  1.0000
  C   C373      1.0  0.57337  0.01781  0.96404  1.0000
  C   C374      1.0  0.32345  0.37149  0.93532  1.0000
  C   C375      1.0  0.56191  0.03949  0.97392  1.0000
  H   H371      1.0  0.46922  0.47063  0.55394  1.0000
  C   C376      1.0  0.47356  0.48211  0.57445  1.0000
  C   C377      1.0  0.56777  0.99577  0.97910  1.0000
  H   H372      1.0  0.50883  0.02099  0.67738  1.0000
  C   C378      1.0  0.46896  0.99496  0.50593  1.0000
  C   C379      1.0  0.50185  0.99529  0.95684  1.0000
  H   H373      1.0  0.49186  0.43531  0.49371  1.0000
  C   C380      1.0  0.49136  0.45497  0.49008  1.0000
  Fe  Fe64      1.0  0.42339  0.99026  0.57195  1.0000
  S   S127      1.0  0.59245  0.47873  0.57109  1.0000
  C   C381      1.0  0.48667  0.48624  0.62834  1.0000
  C   C382      1.0  0.50592  0.98812  0.64853  1.0000
  S   S128      1.0  0.55051  0.95393  0.34972  1.0000
  N   N30       1.0  0.47084  0.96997  0.39542  1.0000
  Fe  Fe65      1.0  0.59214  0.95591  0.35134  1.0000
  S   S129      1.0  0.62452  0.92844  0.35093  1.0000
  C   C383      1.0  0.49253  0.50819  0.23293  1.0000
  H   H374      1.0  0.47165  0.95522  0.02254  1.0000
  Fe  Fe66      1.0  0.42429  0.98026  0.14222  1.0000
  S   S130      1.0  0.45500  0.50408  0.43251  1.0000
  Fe  Fe67      1.0  0.38140  0.96792  0.09555  1.0000
  S   S131      1.0  0.34483  0.94736  0.08837  1.0000
  S   S132      1.0  0.42199  0.95806  0.09614  1.0000
  S   S133      1.0  0.59185  0.97634  0.39833  1.0000
  Fe  Fe68      1.0  0.39041  0.51480  0.34738  1.0000
  S   S134      1.0  0.36946  0.55132  0.34220  1.0000
  C   C384      1.0  0.64278  0.54850  0.03743  1.0000
  C   C385      1.0  0.32424  0.49677  0.35126  1.0000
  S   S135      1.0  0.43179  0.51148  0.34702  1.0000
  S   S136      1.0  0.38332  0.98711  0.14354  1.0000
  Fe  Fe69      1.0  0.58936  0.51585  0.09604  1.0000
  S   S137      1.0  0.61117  0.55180  0.09014  1.0000
  C   C386      1.0  0.50605  0.49300  0.21194  1.0000
  C   C387      1.0  0.33632  0.58534  0.31932  1.0000
  C   C388      1.0  0.64457  0.58593  0.06851  1.0000
  S   S138      1.0  0.54781  0.51371  0.09596  1.0000
  C   C389      1.0  0.63401  0.56267  0.06303  1.0000
  H   H375      1.0  0.37057  0.63351  0.23749  1.0000
  H   H376      1.0  0.63494  0.53059  0.03283  1.0000
  C   C390      1.0  0.46696  0.97664  0.21335  1.0000
  H   H377      1.0  0.33602  0.84490  0.06913  1.0000
  C   C391      1.0  0.49242  0.97098  0.26158  1.0000
  H   H378      1.0  0.51531  0.49904  0.41638  1.0000
  C   C392      1.0  0.50585  0.97653  0.46392  1.0000
  H   H379      1.0  0.64375  0.94347  0.41195  1.0000
  H   H380      1.0  0.62424  0.87812  0.25180  1.0000
  C   C393      1.0  0.48628  0.98164  0.37126  1.0000
  C   C394      1.0  0.47986  0.96646  0.00422  1.0000
  H   H381      1.0  0.35425  0.87936  0.00988  1.0000
  H   H382      1.0  0.34216  0.50540  0.35714  1.0000
  H   H383      1.0  0.34145  0.59599  0.34021  1.0000
  C   C395      1.0  0.63608  0.90619  0.32327  1.0000
  C   C396      1.0  0.62399  0.90045  0.29464  1.0000
  C   C397      1.0  0.44040  0.97347  0.43676  1.0000
  H   H384      1.0  0.60681  0.90951  0.28884  1.0000
  H   H385      1.0  0.32368  0.80970  0.02097  1.0000
  H   H386      1.0  0.34948  0.53120  0.28218  1.0000
  C   C398      1.0  0.34159  0.88985  0.02451  1.0000
  S   S139      1.0  0.38740  0.49685  0.39556  1.0000
  H   H387      1.0  0.49514  0.52787  0.23219  1.0000
  Fe  Fe70      1.0  0.55061  0.97726  0.39473  1.0000
  H   H388      1.0  0.49281  0.52789  0.34129  1.0000
  C   C399      1.0  0.47309  0.96336  0.24112  1.0000
  H   H389      1.0  0.43328  0.94052  0.46338  1.0000
  H   H390      1.0  0.49696  0.96043  0.28262  1.0000
  H   H391      1.0  0.46291  0.94693  0.24676  1.0000
  C   C400      1.0  0.63394  0.88258  0.27368  1.0000
  C   C401      1.0  0.33455  0.92305  0.06281  1.0000
  C   C402      1.0  0.35059  0.90942  0.04351  1.0000
  H   H392      1.0  0.48840  0.93504  0.39054  1.0000
  H   H393      1.0  0.36997  0.91381  0.04338  1.0000
  C   C403      1.0  0.34769  0.56240  0.31383  1.0000
  N   N31       1.0  0.49911  0.49599  0.37003  1.0000
  C   C404      1.0  0.44350  0.94865  0.44390  1.0000
  H   H394      1.0  0.49043  0.52666  0.10755  1.0000
  C   C405      1.0  0.49651  0.52266  0.36650  1.0000
  H   H395      1.0  0.63790  0.52073  0.18313  1.0000
  C   C406      1.0  0.32387  0.80133  0.04517  1.0000
  Fe  Fe71      1.0  0.55090  0.49334  0.14276  1.0000
  H   H396      1.0  0.49585  0.48961  0.07380  1.0000
  H   H397      1.0  0.35523  0.60492  0.24518  1.0000
  C   C407      1.0  0.32974  0.65295  0.20591  1.0000
  C   C408      1.0  0.46059  0.93465  0.42682  1.0000
  H   H398      1.0  0.48096  0.52934  0.38147  1.0000
  S   S140      1.0  0.52622  0.50697  0.18386  1.0000
  H   H399      1.0  0.51357  0.53213  0.37430  1.0000
  H   H400      1.0  0.47040  0.52316  0.16059  1.0000
  S   S141      1.0  0.52757  0.96334  0.43687  1.0000
  Fe  Fe72      1.0  0.42839  0.49062  0.39332  1.0000
  H   H401      1.0  0.64311  0.98267  0.36096  1.0000
  H   H402      1.0  0.46381  0.91557  0.43295  1.0000
  C   C409      1.0  0.48956  0.50553  0.48073  1.0000
  C   C410      1.0  0.50226  0.49941  0.00388  1.0000
  C   C411      1.0  0.48345  0.50909  0.11548  1.0000
  C   C412      1.0  0.47206  0.50715  0.14515  1.0000
  C   C413      1.0  0.35232  0.62488  0.24087  1.0000
  S   S142      1.0  0.59192  0.49849  0.14469  1.0000
  C   C414      1.0  0.45435  0.98391  0.41234  1.0000
  H   H403      1.0  0.33355  0.59145  0.20026  1.0000
  H   H404      1.0  0.51323  0.51170  0.01843  1.0000
  H   H405      1.0  0.34321  0.80011  0.05365  1.0000
  H   H406      1.0  0.46515  0.51025  0.27039  1.0000
  C   C415      1.0  0.34089  0.54883  0.28676  1.0000
  H   H407      1.0  0.63795  0.59714  0.08813  1.0000
  H   H408      1.0  0.34356  0.63260  0.26272  1.0000
  C   C416      1.0  0.47431  0.94572  0.40266  1.0000
  S   S143      1.0  0.44200  0.96627  0.18881  1.0000
  C   C417      1.0  0.47550  0.49823  0.25470  1.0000
  H   H409      1.0  0.62610  0.54441  0.15728  1.0000
  C   C418      1.0  0.32872  0.61023  0.19424  1.0000
  H   H410      1.0  0.63262  0.94702  0.46902  1.0000
  H   H411      1.0  0.33576  0.66811  0.22090  1.0000
  C   C419      1.0  0.32286  0.55807  0.26561  1.0000
  C   C420      1.0  0.64688  0.96071  0.42448  1.0000
  H   H412      1.0  0.48903  0.52521  0.47717  1.0000
  C   C421      1.0  0.64320  0.53533  0.16605  1.0000
  H   H413      1.0  0.54641  0.97844  0.01549  1.0000
  C   C422      1.0  0.64039  0.96265  0.45674  1.0000
  N   N32       1.0  0.33656  0.62937  0.21297  1.0000
  C   C423      1.0  0.47421  0.49031  0.46210  1.0000
  H   H414      1.0  0.64535  0.48836  0.14647  1.0000
  H   H415      1.0  0.49311  0.96809  0.35335  1.0000
  H   H416      1.0  0.65439  0.54905  0.17930  1.0000
  C   C424      1.0  0.64319  0.98511  0.47261  1.0000
  H   H417      1.0  0.42797  0.98475  0.45090  1.0000
  S   S144      1.0  0.55194  0.96007  0.84173  1.0000
  H   H418      1.0  0.48265  0.91597  0.86666  1.0000
  Fe  Fe73      1.0  0.59254  0.96905  0.84123  1.0000
  S   S145      1.0  0.62329  0.95057  0.81161  1.0000
  H   H419      1.0  0.50152  0.92986  0.83675  1.0000
  S   S146      1.0  0.53050  0.95657  0.93316  1.0000
  C   C425      1.0  0.47149  0.95816  0.89719  1.0000
  H   H420      1.0  0.50061  0.94230  0.48859  1.0000
  Fe  Fe74      1.0  0.39086  0.94762  0.59460  1.0000
  S   S147      1.0  0.37425  0.90938  0.58597  1.0000
  S   S148      1.0  0.43188  0.95382  0.59419  1.0000
  H   H421      1.0  0.35453  0.60112  0.80665  1.0000
  Fe  Fe75      1.0  0.38733  0.51673  0.84430  1.0000
  S   S149      1.0  0.37054  0.55440  0.83101  1.0000
  H   H422      1.0  0.63583  0.55547  0.68613  1.0000
  C   C426      1.0  0.34123  0.58766  0.79872  1.0000
  S   S150      1.0  0.42876  0.51310  0.84625  1.0000
  H   H423      1.0  0.50775  0.53635  0.87395  1.0000
  C   C427      1.0  0.49103  0.52586  0.86724  1.0000
  S   S151      1.0  0.60543  0.55219  0.58803  1.0000
  C   C428      1.0  0.64369  0.87807  0.81830  1.0000
  S   S152      1.0  0.38686  0.96423  0.64371  1.0000
  N   N33       1.0  0.48366  0.95499  0.86891  1.0000
  S   S153      1.0  0.54595  0.51098  0.59924  1.0000
  C   C429      1.0  0.63081  0.56260  0.56469  1.0000
  H   H424      1.0  0.33037  0.52628  0.80100  1.0000
  H   H425      1.0  0.32871  0.96006  0.63737  1.0000
  H   H426      1.0  0.51668  0.96331  0.76644  1.0000
  H   H427      1.0  0.32306  0.56910  0.86808  1.0000
  C   C430      1.0  0.48913  0.96295  0.72887  1.0000
  H   H428      1.0  0.48002  0.98442  0.57569  1.0000
  H   H429      1.0  0.51201  0.92907  0.87764  1.0000
  S   S154      1.0  0.38304  0.50046  0.89344  1.0000
  C   C431      1.0  0.49554  0.93131  0.86208  1.0000
  C   C432      1.0  0.47147  0.97648  0.71153  1.0000
  H   H430      1.0  0.48621  0.53065  0.84217  1.0000
  C   C433      1.0  0.50842  0.97047  0.95913  1.0000
  H   H431      1.0  0.45091  0.98314  0.92730  1.0000
  H   H432      1.0  0.49635  0.52668  0.73566  1.0000
  C   C434      1.0  0.63512  0.92052  0.80338  1.0000
  C   C435      1.0  0.49983  0.95142  0.61526  1.0000
  H   H433      1.0  0.47565  0.54238  0.59608  1.0000
  H   H434      1.0  0.61944  0.90277  0.84426  1.0000
  C   C436      1.0  0.48443  0.51180  0.62658  1.0000
  H   H435      1.0  0.48895  0.52315  0.64721  1.0000
  H   H436      1.0  0.48364  0.94227  0.62607  1.0000
  H   H437      1.0  0.51675  0.94390  0.62657  1.0000
  Fe  Fe76      1.0  0.42416  0.49381  0.89352  1.0000
  S   S155      1.0  0.52825  0.50475  0.68888  1.0000
  N   N34       1.0  0.49795  0.97804  0.62033  1.0000
  C   C437      1.0  0.63134  0.90062  0.82379  1.0000
  C   C438      1.0  0.34370  0.87293  0.56309  1.0000
  Fe  Fe77      1.0  0.58735  0.51467  0.59707  1.0000
  S   S156      1.0  0.45554  0.96169  0.67947  1.0000
  Fe  Fe78      1.0  0.55142  0.49136  0.64617  1.0000
  C   C439      1.0  0.35018  0.89791  0.56098  1.0000
  C   C440      1.0  0.33661  0.91308  0.54053  1.0000
  H   H438      1.0  0.46557  0.51573  0.54921  1.0000
  H   H439      1.0  0.34139  0.93226  0.53843  1.0000
  C   C441      1.0  0.34509  0.56268  0.80610  1.0000
  H   H440      1.0  0.47826  0.48983  0.82659  1.0000
  C   C442      1.0  0.49297  0.50711  0.73608  1.0000
  Fe  Fe79      1.0  0.42719  0.97346  0.64154  1.0000
  C   C443      1.0  0.47695  0.52255  0.59794  1.0000
  H   H441      1.0  0.63776  0.98703  0.49743  1.0000
  Fe  Fe80      1.0  0.55210  0.97472  0.89263  1.0000
  H   H442      1.0  0.51732  0.50759  0.51798  1.0000
  H   H443      1.0  0.47561  0.53181  0.88290  1.0000
  H   H444      1.0  0.63880  0.52796  0.54198  1.0000
  C   C444      1.0  0.64340  0.51655  0.69029  1.0000
  S   S157      1.0  0.38256  0.98294  0.56916  1.0000
  C   C445      1.0  0.64252  0.53901  0.67421  1.0000
  C   C446      1.0  0.32777  0.54552  0.79549  1.0000
  S   S158      1.0  0.44985  0.50706  0.93417  1.0000
  H   H445      1.0  0.46503  0.50999  0.77273  1.0000
  C   C447      1.0  0.47132  0.50763  0.57170  1.0000
  C   C448      1.0  0.47522  0.49767  0.75726  1.0000
  N   N35       1.0  0.49526  0.49941  0.87098  1.0000
  H   H446      1.0  0.49217  0.94379  0.72300  1.0000
  C   C449      1.0  0.50306  0.97396  0.75360  1.0000
  H   H447      1.0  0.51378  0.97655  0.66702  1.0000
  C   C450      1.0  0.49725  0.95616  0.98291  1.0000
  H   H448      1.0  0.50044  0.94671  0.58939  1.0000
  C   C451      1.0  0.47666  0.97045  0.50788  1.0000
  N   N36       1.0  0.65125  0.49568  0.67496  1.0000
  S   S159      1.0  0.59342  0.98016  0.89357  1.0000
  H   H449      1.0  0.64097  0.86299  0.83463  1.0000
  H   H450      1.0  0.46825  0.95836  0.52507  1.0000
  C   C452      1.0  0.50570  0.49560  0.50385  1.0000
  C   C453      1.0  0.49501  0.96137  0.48707  1.0000
  H   H451      1.0  0.62794  0.59967  0.58281  1.0000
  H   H452      1.0  0.47092  0.94343  0.91453  1.0000
  H   H453      1.0  0.35412  0.86098  0.57872  1.0000
  H   H454      1.0  0.57605  0.97869  0.97092  1.0000
  C   C454      1.0  0.50630  0.49097  0.89824  1.0000
  S   S160      1.0  0.59232  0.49787  0.64572  1.0000
  C   C455      1.0  0.63806  0.58738  0.56722  1.0000
  H   H455      1.0  0.51176  0.50372  0.91697  1.0000
  H   H456      1.0  0.34138  0.95595  0.59792  1.0000
  H   H457      1.0  0.33060  0.91356  0.63566  1.0000
  C   C456      1.0  0.46025  0.98064  0.90461  1.0000
  C   C457      1.0  0.48538  0.97394  0.84769  1.0000
  C   C458      1.0  0.32351  0.86335  0.54575  1.0000
  H   H458      1.0  0.63728  0.51581  0.71490  1.0000
  C   C459      1.0  0.50625  0.49154  0.71530  1.0000
  C   C460      1.0  0.32423  0.58861  0.87607  1.0000
  C   C461      1.0  0.65074  0.91719  0.77687  1.0000
  C   C462      1.0  0.64412  0.54701  0.54436  1.0000
  C   C463      1.0  0.47052  0.49352  0.96245  1.0000
  C   C464      1.0  0.48484  0.50904  0.98207  1.0000
  H   H459      1.0  0.49531  0.97165  0.82544  1.0000
  H   H460      1.0  0.48259  0.52875  0.98018  1.0000
  H   H461      1.0  0.64847  0.55718  0.62930  1.0000
  H   H462      1.0  0.34275  0.59511  0.86883  1.0000
  C   C465      1.0  0.32406  0.95807  0.61159  1.0000
  C   C466      1.0  0.64954  0.53997  0.64224  1.0000
  H   H463      1.0  0.32284  0.58913  0.90251  1.0000
  H   H464      1.0  0.65370  0.93237  0.76078  1.0000
  H   H465      1.0  0.50216  0.93694  0.98502  1.0000
  Fe  Fe81      1.0  0.75423  0.33794  0.24721  1.0000
  S   S161      1.0  0.71787  0.33374  0.27211  1.0000
  S   S162      1.0  0.77500  0.37330  0.26110  1.0000
  Fe  Fe82      1.0  0.74251  0.29376  0.20269  1.0000
  S   S163      1.0  0.70576  0.28737  0.22558  1.0000
  S   S164      1.0  0.75678  0.27330  0.15799  1.0000
  Fe  Fe83      1.0  0.70103  0.32866  0.22350  1.0000
  H   H466      1.0  0.65629  0.29536  0.18681  1.0000
  Fe  Fe84      1.0  0.72580  0.29301  0.27257  1.0000
  S   S165      1.0  0.71495  0.27364  0.31938  1.0000
  S   S166      1.0  0.73671  0.33480  0.19822  1.0000
  S   S167      1.0  0.76321  0.29737  0.24997  1.0000
  C   C467      1.0  0.74659  0.14885  0.12069  1.0000
  S   S168      1.0  0.73794  0.12853  0.45045  1.0000
  Fe  Fe85      1.0  0.92626  0.47106  0.39293  1.0000
  Fe  Fe86      1.0  0.73076  0.16629  0.02465  1.0000
  H   H467      1.0  0.95571  0.45151  0.07562  1.0000
  S   S169      1.0  0.71519  0.18627  0.06890  1.0000
  Fe  Fe87      1.0  0.74477  0.16931  0.45595  1.0000
  S   S170      1.0  0.75851  0.18963  0.41129  1.0000
  C   C468      1.0  0.69615  0.30118  0.13916  1.0000
  H   H468      1.0  0.90550  0.05919  0.02080  1.0000
  C   C469      1.0  0.67188  0.38751  0.17488  1.0000
  S   S171      1.0  0.73725  0.12539  0.02945  1.0000
  S   S172      1.0  0.92321  0.00608  0.10060  1.0000
  H   H469      1.0  0.69128  0.38339  0.17727  1.0000
  S   S173      1.0  0.88491  0.46643  0.39285  1.0000
  S   S174      1.0  0.84711  0.01483  0.08288  1.0000
  H   H470      1.0  0.97802  0.44188  0.98955  1.0000
  C   C470      1.0  0.68699  0.18986  0.35160  1.0000
  Fe  Fe88      1.0  0.88940  0.44771  0.34500  1.0000
  S   S175      1.0  0.87341  0.40990  0.33134  1.0000
  C   C471      1.0  0.65949  0.06919  0.39796  1.0000
  H   H471      1.0  0.88586  0.01975  0.03544  1.0000
  C   C472      1.0  0.87501  0.45380  0.23573  1.0000
  S   S176      1.0  0.93093  0.44967  0.34690  1.0000
  C   C473      1.0  0.90038  0.02005  0.01771  1.0000
  C   C474      1.0  0.80953  0.19091  0.09748  1.0000
  H   H472      1.0  0.78351  0.37827  0.34442  1.0000
  H   H473      1.0  0.86338  0.99092  0.47556  1.0000
  C   C475      1.0  0.91499  0.44437  0.25764  1.0000
  S   S177      1.0  0.70927  0.17654  0.48212  1.0000
  C   C476      1.0  0.70805  0.17533  0.35458  1.0000
  N   N37       1.0  0.90824  0.42045  0.26185  1.0000
  C   C477      1.0  0.66921  0.08672  0.41948  1.0000
  H   H474      1.0  0.94471  0.40847  0.27332  1.0000
  C   C478      1.0  0.91149  0.04218  0.00954  1.0000
  C   C479      1.0  0.82061  0.08920  0.04091  1.0000
  C   C480      1.0  0.80459  0.06932  0.04399  1.0000
  C   C481      1.0  0.81309  0.04683  0.05681  1.0000
  C   C482      1.0  0.83770  0.04380  0.06678  1.0000
  C   C483      1.0  0.85377  0.06366  0.06368  1.0000
  C   C484      1.0  0.84525  0.08616  0.05085  1.0000
  H   H475      1.0  0.78563  0.07124  0.03644  1.0000
  H   H476      1.0  0.80044  0.03168  0.05895  1.0000
  H   H477      1.0  0.87265  0.06183  0.07150  1.0000
  H   H478      1.0  0.68960  0.13931  0.41570  1.0000
  C   C485      1.0  0.80283  0.38295  0.27997  1.0000
  C   C486      1.0  0.80622  0.40815  0.28640  1.0000
  C   C487      1.0  0.82751  0.41677  0.30225  1.0000
  C   C488      1.0  0.84578  0.40023  0.31197  1.0000
  C   C489      1.0  0.84250  0.37504  0.30535  1.0000
  C   C490      1.0  0.82123  0.36643  0.28940  1.0000
  H   H479      1.0  0.79215  0.42114  0.27923  1.0000
  H   H480      1.0  0.82975  0.43619  0.30702  1.0000
  H   H481      1.0  0.85656  0.36206  0.31255  1.0000
  H   H482      1.0  0.81901  0.34702  0.28453  1.0000
  H   H483      1.0  0.71665  0.36415  0.33674  1.0000
  H   H484      1.0  0.68647  0.20466  0.33430  1.0000
  C   C491      1.0  0.97101  0.47123  0.46200  1.0000
  C   C492      1.0  0.72771  0.25046  0.34475  1.0000
  C   C493      1.0  0.71533  0.24442  0.37317  1.0000
  C   C494      1.0  0.72458  0.22622  0.39407  1.0000
  C   C495      1.0  0.74646  0.21375  0.38686  1.0000
  C   C496      1.0  0.75894  0.21996  0.35858  1.0000
  C   C497      1.0  0.74967  0.23812  0.33766  1.0000
  H   H485      1.0  0.69841  0.25390  0.37909  1.0000
  H   H486      1.0  0.71474  0.22175  0.41567  1.0000
  H   H487      1.0  0.77587  0.21047  0.35267  1.0000
  H   H488      1.0  0.75949  0.24249  0.31600  1.0000
  C   C498      1.0  0.74428  0.24958  0.13312  1.0000
  C   C499      1.0  0.72370  0.23584  0.14192  1.0000
  C   C500      1.0  0.71490  0.21690  0.12171  1.0000
  C   C501      1.0  0.72656  0.21122  0.09255  1.0000
  C   C502      1.0  0.74705  0.22502  0.08367  1.0000
  C   C503      1.0  0.75579  0.24406  0.10382  1.0000
  H   H489      1.0  0.71474  0.23958  0.16447  1.0000
  H   H490      1.0  0.69903  0.20638  0.12888  1.0000
  H   H491      1.0  0.75625  0.22097  0.06136  1.0000
  H   H492      1.0  0.77169  0.25452  0.09665  1.0000
  C   C504      1.0  0.97601  0.00191  0.24536  1.0000
  N   N38       1.0  0.76820  0.16349  0.11253  1.0000
  H   H493      1.0  0.87943  0.39414  0.25801  1.0000
  H   H494      1.0  0.73851  0.14022  0.09894  1.0000
  S   S178      1.0  0.81091  0.11820  0.02523  1.0000
  H   H495      1.0  0.81595  0.16348  0.06094  1.0000
  H   H496      1.0  0.73129  0.31240  0.12063  1.0000
  S   S179      1.0  0.94574  0.45957  0.43945  1.0000
  C   C505      1.0  0.66297  0.32922  0.13282  1.0000
  H   H497      1.0  0.81523  0.34712  0.35709  1.0000
  N   N39       1.0  0.66803  0.16758  0.39433  1.0000
  H   H498      1.0  0.92181  0.40335  0.30367  1.0000
  Fe  Fe89      1.0  0.77362  0.13223  0.00612  1.0000
  H   H499      1.0  0.67059  0.06287  0.37812  1.0000
  C   C506      1.0  0.71201  0.31724  0.12352  1.0000
  H   H500      1.0  0.67758  0.41954  0.14561  1.0000
  S   S180      1.0  0.76797  0.17343  0.00362  1.0000
  C   C507      1.0  0.77361  0.18417  0.12988  1.0000
  C   C508      1.0  0.74734  0.32844  0.34656  1.0000
  H   H501      1.0  0.71525  0.35258  0.10105  1.0000
  C   C509      1.0  0.70901  0.15707  0.37777  1.0000
  H   H502      1.0  0.75952  0.29129  0.35542  1.0000
  C   C510      1.0  0.73570  0.37143  0.33594  1.0000
  H   H503      1.0  0.80329  0.30317  0.36245  1.0000
  C   C511      1.0  0.70302  0.33972  0.11257  1.0000
  C   C512      1.0  0.66704  0.18577  0.37189  1.0000
  C   C513      1.0  0.96603  0.46789  0.08162  1.0000
  H   H504      1.0  0.85782  0.10140  0.04874  1.0000
  C   C514      1.0  0.80420  0.16948  0.08044  1.0000
  C   C515      1.0  0.78343  0.15580  0.08849  1.0000
  H   H505      1.0  0.75173  0.13432  0.13798  1.0000
  H   H506      1.0  0.92267  0.38428  0.26831  1.0000
  H   H507      1.0  0.72834  0.32292  0.34329  1.0000
  C   C516      1.0  0.77811  0.35925  0.34740  1.0000
  S   S181      1.0  0.66326  0.34489  0.21021  1.0000
  H   H508      1.0  0.76154  0.19033  0.14891  1.0000
  H   H509      1.0  0.73178  0.16063  0.13093  1.0000
  H   H510      1.0  0.73693  0.38700  0.35312  1.0000
  H   H511      1.0  0.79800  0.21508  0.13574  1.0000
  C   C517      1.0  0.88514  0.41286  0.25344  1.0000
  H   H512      1.0  0.77951  0.13911  0.07516  1.0000
  H   H513      1.0  0.70346  0.28407  0.14832  1.0000
  H   H514      1.0  0.84960  0.42343  0.23477  1.0000
  N   N40       1.0  0.75406  0.35254  0.34370  1.0000
  S   S182      1.0  0.88588  0.48302  0.31785  1.0000
  H   H515      1.0  0.66175  0.27106  0.15800  1.0000
  N   N41       1.0  0.67191  0.30715  0.14332  1.0000
  H   H516      1.0  0.93293  0.45061  0.26532  1.0000
  H   H517      1.0  0.72398  0.17879  0.33974  1.0000
  C   C518      1.0  0.68869  0.15339  0.39752  1.0000
  C   C519      1.0  0.98267  0.46457  0.25570  1.0000
  C   C520      1.0  0.78948  0.31707  0.35735  1.0000
  S   S183      1.0  0.66536  0.11920  0.47108  1.0000
  C   C521      1.0  0.67833  0.34578  0.11718  1.0000
  C   C522      1.0  0.92524  0.40328  0.27748  1.0000
  Fe  Fe90      1.0  0.70375  0.13545  0.47891  1.0000
  Fe  Fe91      1.0  0.88277  0.99650  0.10093  1.0000
  H   H518      1.0  0.96670  0.01887  0.25158  1.0000
  C   C523      1.0  0.90818  0.99829  0.00315  1.0000
  C   C524      1.0  0.79615  0.34167  0.35443  1.0000
  H   H519      1.0  0.68764  0.09358  0.41617  1.0000
  C   C525      1.0  0.76493  0.31038  0.35341  1.0000
  C   C526      1.0  0.79427  0.19826  0.12254  1.0000
  H   H520      1.0  0.72569  0.14632  0.38101  1.0000
  H   H521      1.0  0.73898  0.37844  0.31141  1.0000
  C   C527      1.0  0.86816  0.42940  0.24036  1.0000
  H   H522      1.0  0.82540  0.20184  0.09117  1.0000
  H   H523      1.0  0.66595  0.01832  0.41133  1.0000
  S   S184      1.0  0.94382  0.00066  0.19418  1.0000
  C   C528      1.0  0.66402  0.40801  0.15688  1.0000
  H   H524      1.0  0.97949  0.00246  0.03864  1.0000
  H   H525      1.0  0.97679  0.45284  0.27494  1.0000
  H   H526      1.0  0.96946  0.43262  0.12290  1.0000
  H   H527      1.0  0.86188  0.46697  0.22628  1.0000
  C   C529      1.0  0.89865  0.46132  0.24417  1.0000
  N   N42       1.0  0.98096  0.46850  0.10804  1.0000
  C   C530      1.0  0.98544  0.99233  0.01773  1.0000
  C   C531      1.0  0.96898  0.98918  0.21737  1.0000
  H   H528      1.0  0.98027  0.45257  0.15426  1.0000
  C   C532      1.0  0.98310  0.44703  0.12890  1.0000
  H   H529      1.0  0.84422  0.03256  0.47914  1.0000
  C   C533      1.0  0.65583  0.29051  0.16096  1.0000
  H   H530      1.0  0.67442  0.99243  0.36635  1.0000
  H   H531      1.0  0.79947  0.98988  0.09679  1.0000
  H   H532      1.0  0.66565  0.47203  0.09831  1.0000
  Fe  Fe92      1.0  0.92716  0.48609  0.32224  1.0000
  H   H533      1.0  0.67122  0.36350  0.10961  1.0000
  H   H534      1.0  0.95284  0.48761  0.04013  1.0000
  C   C534      1.0  0.65906  0.00253  0.42407  1.0000
  H   H535      1.0  0.90413  0.48039  0.24151  1.0000
  C   C535      1.0  0.98417  0.46060  0.98650  1.0000
  C   C536      1.0  0.93039  0.04216  0.98689  1.0000
  Fe  Fe93      1.0  0.75752  0.34021  0.75152  1.0000
  S   S185      1.0  0.72133  0.33453  0.77632  1.0000
  S   S186      1.0  0.77741  0.37535  0.76793  1.0000
  Fe  Fe94      1.0  0.74568  0.29835  0.70348  1.0000
  S   S187      1.0  0.70909  0.29059  0.72595  1.0000
  S   S188      1.0  0.75781  0.28197  0.65526  1.0000
  Fe  Fe95      1.0  0.70420  0.33180  0.72750  1.0000
  S   S189      1.0  0.66627  0.34834  0.71592  1.0000
  Fe  Fe96      1.0  0.72938  0.29389  0.77312  1.0000
  S   S190      1.0  0.71800  0.27227  0.81800  1.0000
  S   S191      1.0  0.73971  0.33950  0.70275  1.0000
  S   S192      1.0  0.76672  0.29957  0.75068  1.0000
  C   C537      1.0  0.70407  0.08937  0.88064  1.0000
  S   S193      1.0  0.75840  0.12670  0.95662  1.0000
  H   H536      1.0  0.95758  0.45313  0.70938  1.0000
  Fe  Fe97      1.0  0.73148  0.16937  0.52703  1.0000
  H   H537      1.0  0.66286  0.47967  0.63077  1.0000
  S   S194      1.0  0.72470  0.18590  0.57708  1.0000
  Fe  Fe98      1.0  0.74940  0.16725  0.95574  1.0000
  S   S195      1.0  0.75975  0.18672  0.90886  1.0000
  H   H538      1.0  0.69510  0.33963  0.61621  1.0000
  Fe  Fe99      1.0  0.72132  0.12187  0.97963  1.0000
  H   H539      1.0  0.96831  0.41922  0.77252  1.0000
  S   S196      1.0  0.72291  0.12885  0.52561  1.0000
  S   S197      1.0  0.92847  0.01497  0.60529  1.0000
  C   C538      1.0  0.89635  0.00193  0.50035  1.0000
  Fe  Fe100     1.0  0.88690  0.01398  0.60483  1.0000
  S   S198      1.0  0.86902  0.05152  0.59420  1.0000
  H   H540      1.0  0.73251  0.36531  0.84956  1.0000
  C   C539      1.0  0.95734  0.02133  0.94852  1.0000
  Fe  Fe101     1.0  0.89419  0.44835  0.84290  1.0000
  S   S199      1.0  0.88083  0.41046  0.82596  1.0000
  H   H541      1.0  0.70397  0.32139  0.84350  1.0000
  S   S200      1.0  0.95103  0.46157  0.93654  1.0000
  S   S201      1.0  0.88805  0.46566  0.89128  1.0000
  S   S202      1.0  0.93539  0.45332  0.84515  1.0000
  H   H542      1.0  0.97508  0.41712  0.73049  1.0000
  H   H543      1.0  0.75311  0.29085  0.86588  1.0000
  C   C540      1.0  0.79903  0.12652  0.62743  1.0000
  H   H544      1.0  0.77844  0.17594  0.59512  1.0000
  N   N43       1.0  0.89755  0.04392  0.51829  1.0000
  C   C541      1.0  0.97728  0.00364  0.74953  1.0000
  H   H545      1.0  0.96613  0.01903  0.75739  1.0000
  C   C542      1.0  0.89858  0.46081  0.73340  1.0000
  S   S203      1.0  0.70147  0.08667  0.96324  1.0000
  N   N44       1.0  0.74041  0.32767  0.85949  1.0000
  H   H546      1.0  0.81557  0.09050  0.63294  1.0000
  C   C543      1.0  0.80451  0.07860  0.53097  1.0000
  C   C544      1.0  0.82058  0.09522  0.54568  1.0000
  C   C545      1.0  0.84014  0.08655  0.56495  1.0000
  C   C546      1.0  0.84391  0.06121  0.56982  1.0000
  C   C547      1.0  0.82797  0.04460  0.55490  1.0000
  C   C548      1.0  0.80850  0.05327  0.53551  1.0000
  H   H547      1.0  0.81789  0.11474  0.54228  1.0000
  H   H548      1.0  0.85241  0.09960  0.57622  1.0000
  H   H549      1.0  0.83060  0.02507  0.55833  1.0000
  H   H550      1.0  0.96623  0.44471  0.49954  1.0000
  C   C549      1.0  0.80670  0.38464  0.78294  1.0000
  C   C550      1.0  0.80985  0.40927  0.79259  1.0000
  C   C551      1.0  0.83234  0.41752  0.80569  1.0000
  C   C552      1.0  0.85203  0.40116  0.80942  1.0000
  C   C553      1.0  0.84895  0.37655  0.79961  1.0000
  C   C554      1.0  0.82647  0.36833  0.78638  1.0000
  H   H551      1.0  0.79471  0.42208  0.79004  1.0000
  H   H552      1.0  0.83434  0.43648  0.81310  1.0000
  H   H553      1.0  0.86407  0.36374  0.80225  1.0000
  H   H554      1.0  0.82445  0.34939  0.77890  1.0000
  C   C555      1.0  0.72495  0.10348  0.88650  1.0000
  N   N45       1.0  0.69156  0.30328  0.63347  1.0000
  H   H555      1.0  0.73965  0.13999  0.88933  1.0000
  C   C556      1.0  0.73022  0.24854  0.84292  1.0000
  C   C557      1.0  0.75213  0.23609  0.83596  1.0000
  C   C558      1.0  0.76094  0.21750  0.85661  1.0000
  C   C559      1.0  0.74822  0.21126  0.88469  1.0000
  C   C560      1.0  0.72652  0.22404  0.89192  1.0000
  C   C561      1.0  0.71756  0.24241  0.87109  1.0000
  H   H556      1.0  0.76217  0.24055  0.81451  1.0000
  H   H557      1.0  0.77774  0.20780  0.85068  1.0000
  H   H558      1.0  0.71654  0.21966  0.91344  1.0000
  H   H559      1.0  0.70064  0.25193  0.87686  1.0000
  C   C562      1.0  0.74902  0.25465  0.63449  1.0000
  C   C563      1.0  0.73348  0.23712  0.64792  1.0000
  C   C564      1.0  0.72641  0.21621  0.63001  1.0000
  C   C565      1.0  0.73467  0.21253  0.59845  1.0000
  C   C566      1.0  0.75037  0.22994  0.58512  1.0000
  C   C567      1.0  0.75749  0.25081  0.60306  1.0000
  H   H560      1.0  0.72679  0.23976  0.67202  1.0000
  H   H561      1.0  0.71429  0.20286  0.64066  1.0000
  H   H562      1.0  0.75697  0.22740  0.56096  1.0000
  H   H563      1.0  0.76959  0.26419  0.59242  1.0000
  C   C568      1.0  0.67356  0.38722  0.67351  1.0000
  S   S204      1.0  0.88826  0.48372  0.81678  1.0000
  H   H564      1.0  0.95027  0.02981  0.92623  1.0000
  H   H565      1.0  0.92490  0.07157  0.51866  1.0000
  C   C569      1.0  0.96048  0.41450  0.74870  1.0000
  C   C570      1.0  0.68087  0.12659  0.87169  1.0000
  H   H566      1.0  0.91940  0.05709  0.55693  1.0000
  H   H567      1.0  0.70644  0.33578  0.88255  1.0000
  C   C571      1.0  0.77093  0.35721  0.84465  1.0000
  H   H568      1.0  0.67810  0.41661  0.63959  1.0000
  N   N46       1.0  0.93891  0.43002  0.74240  1.0000
  C   C572      1.0  0.94053  0.44938  0.72180  1.0000
  H   H569      1.0  0.79626  0.30044  0.85306  1.0000
  H   H570      1.0  0.70482  0.06956  0.88326  1.0000
  H   H571      1.0  0.79623  0.04022  0.52422  1.0000
  S   S205      1.0  0.94627  0.00300  0.69723  1.0000
  C   C573      1.0  0.72338  0.12908  0.88450  1.0000
  H   H572      1.0  0.66539  0.09007  0.86937  1.0000
  H   H573      1.0  0.95530  0.39478  0.74839  1.0000
  C   C574      1.0  0.75799  0.30960  0.86016  1.0000
  H   H574      1.0  0.74207  0.09471  0.89354  1.0000
  H   H575      1.0  0.78383  0.06966  0.59983  1.0000
  N   N47       1.0  0.70153  0.14028  0.87720  1.0000
  C   C575      1.0  0.77877  0.16653  0.61868  1.0000
  N   N48       1.0  0.78028  0.13984  0.61401  1.0000
  Fe  Fe102     1.0  0.92899  0.47335  0.89196  1.0000
  H   H576      1.0  0.68368  0.04055  0.93951  1.0000
  H   H577      1.0  0.72227  0.32718  0.63576  1.0000
  Fe  Fe103     1.0  0.92645  0.99252  0.65046  1.0000
  N   N49       1.0  0.93795  0.02069  0.97277  1.0000
  C   C576      1.0  0.97396  0.47488  0.96174  1.0000
  C   C577      1.0  0.80041  0.10104  0.62291  1.0000
  C   C578      1.0  0.65699  0.37400  0.69220  1.0000
  H   H578      1.0  0.69286  0.38238  0.67382  1.0000
  H   H579      1.0  0.74779  0.13902  0.58551  1.0000
  H   H580      1.0  0.75007  0.09416  0.57540  1.0000
  S   S206      1.0  0.77922  0.08820  0.50680  1.0000
  H   H581      1.0  0.69640  0.33710  0.65897  1.0000
  Fe  Fe104     1.0  0.75778  0.12409  0.49770  1.0000
  C   C579      1.0  0.91753  0.42566  0.75847  1.0000
  H   H582      1.0  0.81316  0.13553  0.64152  1.0000
  S   S207      1.0  0.76762  0.16430  0.50126  1.0000
  C   C580      1.0  0.78897  0.33894  0.84538  1.0000
  C   C581      1.0  0.69027  0.26426  0.60641  1.0000
  H   H583      1.0  0.79453  0.17389  0.63264  1.0000
  H   H584      1.0  0.88297  0.47306  0.73042  1.0000
  C   C582      1.0  0.78255  0.08928  0.60440  1.0000
  C   C583      1.0  0.76264  0.12842  0.59601  1.0000
  C   C584      1.0  0.87509  0.04820  0.50451  1.0000
  C   C585      1.0  0.97791  0.00512  0.51055  1.0000
  C   C586      1.0  0.70040  0.16717  0.87639  1.0000
  C   C587      1.0  0.67247  0.07825  0.94636  1.0000
  C   C588      1.0  0.89697  0.44079  0.75391  1.0000
  C   C589      1.0  0.91063  0.06389  0.53460  1.0000
  C   C590      1.0  0.70019  0.28776  0.61023  1.0000
  C   C591      1.0  0.66511  0.40675  0.65417  1.0000
  C   C592      1.0  0.70182  0.32804  0.63618  1.0000
  H   H585      1.0  0.76153  0.17141  0.63150  1.0000
  H   H586      1.0  0.70359  0.17471  0.90080  1.0000
  H   H587      1.0  0.66413  0.45882  0.68113  1.0000
  H   H588      1.0  0.71276  0.30355  0.87755  1.0000
  S   S208      1.0  0.71150  0.16219  0.97645  1.0000
  H   H589      1.0  0.80785  0.34336  0.83958  1.0000
  H   H590      1.0  0.69747  0.25184  0.58829  1.0000
  H   H591      1.0  0.92221  0.48102  0.70178  1.0000
  H   H592      1.0  0.77570  0.37582  0.83794  1.0000
  C   C593      1.0  0.78248  0.31492  0.85301  1.0000
  C   C594      1.0  0.66901  0.05378  0.93616  1.0000
  C   C595      1.0  0.97682  0.46029  0.49155  1.0000
  C   C596      1.0  0.90836  0.02125  0.51598  1.0000
  C   C597      1.0  0.92697  0.99895  0.98044  1.0000
  C   C598      1.0  0.71464  0.32188  0.86622  1.0000
  C   C599      1.0  0.76361  0.10303  0.59068  1.0000
  H   H593      1.0  0.97256  0.01570  0.53136  1.0000
  S   S209      1.0  0.88492  0.99412  0.65216  1.0000
  H   H594      1.0  0.71523  0.29331  0.59496  1.0000
  C   C600      1.0  0.92049  0.46518  0.71721  1.0000
  H   H595      1.0  0.97341  0.03198  0.95739  1.0000
  C   C601      1.0  0.74655  0.35116  0.85137  1.0000
  H   H596      1.0  0.66600  0.30844  0.67158  1.0000
  H   H597      1.0  0.91630  0.41054  0.77520  1.0000
  H   H598      1.0  0.86652  0.06621  0.50611  1.0000
  H   H599      1.0  0.88005  0.43727  0.76677  1.0000
  H   H600      1.0  0.93904  0.05940  0.98072  1.0000
  H   H601      1.0  0.65558  0.11397  0.94955  1.0000
  H   H602      1.0  0.71492  0.17441  0.86038  1.0000
  C   C602      1.0  0.67175  0.25653  0.62695  1.0000
  C   C603      1.0  0.68189  0.10093  0.87299  1.0000
  H   H603      1.0  0.92625  0.01786  0.52662  1.0000
  C   C604      1.0  0.67300  0.29608  0.65327  1.0000
  H   H604      1.0  0.98224  0.46473  0.78434  1.0000
  H   H605      1.0  0.89780  0.07880  0.54211  1.0000
  H   H606      1.0  0.96433  0.00262  0.94262  1.0000
  C   C605      1.0  0.97168  0.99194  0.72028  1.0000
  H   H607      1.0  0.66338  0.13540  0.86668  1.0000
  H   H608      1.0  0.68240  0.17411  0.86757  1.0000
  C   C606      1.0  0.86239  0.02922  0.48907  1.0000
  C   C607      1.0  0.98605  0.47401  0.76212  1.0000
  H   H609      1.0  0.66442  0.23808  0.62474  1.0000
  C   C608      1.0  0.66299  0.27252  0.65054  1.0000
  H   H610      1.0  0.65644  0.47462  0.71743  1.0000
  C   C609      1.0  0.87310  0.00591  0.48713  1.0000
  H   H611      1.0  0.80455  0.52233  0.43303  1.0000
  S   S210      1.0  0.75733  0.62775  0.01941  1.0000
  H   H612      1.0  0.68259  0.76509  0.44123  1.0000
  Fe  Fe105     1.0  0.73489  0.66859  0.45233  1.0000
  S   S211      1.0  0.69719  0.59048  0.99838  1.0000
  S   S212      1.0  0.71923  0.69189  0.41104  1.0000
  S   S213      1.0  0.94855  0.49950  0.27812  1.0000
  C   C610      1.0  0.91568  0.93270  0.20698  1.0000
  Fe  Fe106     1.0  0.75209  0.66885  0.01706  1.0000
  S   S214      1.0  0.76588  0.69522  0.05636  1.0000
  S   S215      1.0  0.73845  0.62718  0.45007  1.0000
  H   H613      1.0  0.72537  0.88383  0.21683  1.0000
  Fe  Fe107     1.0  0.70535  0.82880  0.24836  1.0000
  S   S216      1.0  0.74064  0.83595  0.27474  1.0000
  S   S217      1.0  0.66846  0.84918  0.25236  1.0000
  Fe  Fe108     1.0  0.73031  0.79062  0.20320  1.0000
  S   S218      1.0  0.76745  0.79600  0.22649  1.0000
  S   S219      1.0  0.71723  0.76347  0.16443  1.0000
  Fe  Fe109     1.0  0.74638  0.79472  0.27321  1.0000
  S   S220      1.0  0.76261  0.77235  0.31492  1.0000
  Fe  Fe110     1.0  0.75875  0.83685  0.22614  1.0000
  S   S221      1.0  0.77941  0.87296  0.21579  1.0000
  S   S222      1.0  0.70983  0.78758  0.24989  1.0000
  S   S223      1.0  0.72294  0.83127  0.19988  1.0000
  H   H614      1.0  0.84670  0.92028  0.06302  1.0000
  S   S224      1.0  0.95031  0.95699  0.03357  1.0000
  Fe  Fe111     1.0  0.89251  0.94397  0.12638  1.0000
  S   S225      1.0  0.87554  0.90672  0.13918  1.0000
  S   S226      1.0  0.88907  0.95984  0.07712  1.0000
  S   S227      1.0  0.93371  0.94916  0.12665  1.0000
  C   C611      1.0  0.93395  0.53978  0.45083  1.0000
  S   S228      1.0  0.92487  0.50799  0.36854  1.0000
  Fe  Fe112     1.0  0.88377  0.50218  0.36596  1.0000
  S   S229      1.0  0.85296  0.53125  0.37073  1.0000
  H   H615      1.0  0.66217  0.92443  0.24620  1.0000
  H   H616      1.0  0.96933  0.94949  0.47526  1.0000
  C   C612      1.0  0.65833  0.89400  0.33042  1.0000
  H   H617      1.0  0.75610  0.75183  0.03989  1.0000
  C   C613      1.0  0.80040  0.90946  0.11523  1.0000
  C   C614      1.0  0.75042  0.55317  0.42561  1.0000
  H   H618      1.0  0.73669  0.55828  0.40796  1.0000
  S   S230      1.0  0.88427  0.97994  0.15031  1.0000
  H   H619      1.0  0.74761  0.89672  0.26544  1.0000
  C   C615      1.0  0.80196  0.97833  0.11843  1.0000
  H   H620      1.0  0.81772  0.98587  0.13233  1.0000
  C   C616      1.0  0.80692  0.88161  0.19555  1.0000
  C   C617      1.0  0.82130  0.86480  0.17833  1.0000
  C   C618      1.0  0.84239  0.87280  0.16178  1.0000
  C   C619      1.0  0.84943  0.89769  0.16201  1.0000
  C   C620      1.0  0.83518  0.91450  0.17946  1.0000
  C   C621      1.0  0.81409  0.90649  0.19604  1.0000
  H   H621      1.0  0.81615  0.84563  0.17767  1.0000
  H   H622      1.0  0.85326  0.85958  0.14849  1.0000
  H   H623      1.0  0.84030  0.93367  0.17998  1.0000
  H   H624      1.0  0.80321  0.91968  0.20934  1.0000
  C   C622      1.0  0.82105  0.58699  0.44414  1.0000
  C   C623      1.0  0.81164  0.58533  0.41303  1.0000
  C   C624      1.0  0.82199  0.56854  0.39086  1.0000
  C   C625      1.0  0.84178  0.55306  0.39939  1.0000
  C   C626      1.0  0.85129  0.55483  0.43046  1.0000
  C   C627      1.0  0.84104  0.57173  0.45257  1.0000
  H   H625      1.0  0.79637  0.59694  0.40604  1.0000
  H   H626      1.0  0.81450  0.56745  0.36691  1.0000
  H   H627      1.0  0.86645  0.54313  0.43750  1.0000
  N   N50       1.0  0.65690  0.52531  0.13879  1.0000
  C   C628      1.0  0.75188  0.71366  0.08662  1.0000
  C   C629      1.0  0.76678  0.72951  0.10499  1.0000
  C   C630      1.0  0.75657  0.74513  0.12856  1.0000
  C   C631      1.0  0.73124  0.74504  0.13416  1.0000
  C   C632      1.0  0.71634  0.72919  0.11581  1.0000
  C   C633      1.0  0.72654  0.71360  0.09220  1.0000
  H   H628      1.0  0.78641  0.72978  0.10085  1.0000
  H   H629      1.0  0.76829  0.75717  0.14246  1.0000
  H   H630      1.0  0.69671  0.72890  0.11997  1.0000
  H   H631      1.0  0.71481  0.70157  0.07829  1.0000
  C   C634      1.0  0.73217  0.71308  0.38336  1.0000
  C   C635      1.0  0.71652  0.72470  0.36109  1.0000
  C   C636      1.0  0.72541  0.74283  0.34007  1.0000
  C   C637      1.0  0.75025  0.74946  0.34074  1.0000
  C   C638      1.0  0.76596  0.73764  0.36273  1.0000
  C   C639      1.0  0.75704  0.71957  0.38386  1.0000
  H   H632      1.0  0.69725  0.71987  0.36040  1.0000
  H   H633      1.0  0.71297  0.75182  0.32360  1.0000
  H   H634      1.0  0.78522  0.74251  0.36349  1.0000
  H   H635      1.0  0.76937  0.71082  0.40071  1.0000
  N   N51       1.0  0.75427  0.73879  0.99182  1.0000
  H   H636      1.0  0.72678  0.92379  0.30531  1.0000
  N   N52       1.0  0.76576  0.55560  0.47948  1.0000
  H   H637      1.0  0.91496  0.95117  0.19584  1.0000
  H   H638      1.0  0.68899  0.50027  0.06301  1.0000
  C   C640      1.0  0.82527  0.94813  0.08741  1.0000
  C   C641      1.0  0.78108  0.73735  0.98872  1.0000
  N   N53       1.0  0.80717  0.95281  0.10922  1.0000
  H   H639      1.0  0.94906  0.89853  0.22289  1.0000
  H   H640      1.0  0.66977  0.56051  0.12454  1.0000
  H   H641      1.0  0.68559  0.86725  0.31507  1.0000
  H   H642      1.0  0.71100  0.75293  0.04692  1.0000
  C   C642      1.0  0.68043  0.50720  0.08463  1.0000
  H   H643      1.0  0.69141  0.54472  0.07685  1.0000
  C   C643      1.0  0.71877  0.74719  0.02419  1.0000
  H   H644      1.0  0.70289  0.76193  0.40752  1.0000
  H   H645      1.0  0.93080  0.54992  0.42890  1.0000
  C   C644      1.0  0.81912  0.90454  0.09339  1.0000
  H   H646      1.0  0.94735  0.96899  0.29783  1.0000
  H   H647      1.0  0.78845  0.57754  0.01772  1.0000
  C   C645      1.0  0.96393  0.93392  0.28702  1.0000
  C   C646      1.0  0.98124  0.96728  0.20970  1.0000
  C   C647      1.0  0.67251  0.58069  0.02343  1.0000
  C   C648      1.0  0.74822  0.56142  0.45720  1.0000
  H   H648      1.0  0.68377  0.93790  0.29515  1.0000
  C   C649      1.0  0.79481  0.93385  0.12321  1.0000
  H   H649      1.0  0.74808  0.57560  0.99352  1.0000
  C   C650      1.0  0.91973  0.51921  0.45759  1.0000
  H   H650      1.0  0.77321  0.70544  0.17355  1.0000
  C   C651      1.0  0.97484  0.96956  0.01061  1.0000
  N   N54       1.0  0.69239  0.90313  0.22885  1.0000
  C   C652      1.0  0.75931  0.74857  0.46591  1.0000
  H   H651      1.0  0.98065  0.49996  0.42937  1.0000
  C   C653      1.0  0.74006  0.75394  0.44475  1.0000
  C   C654      1.0  0.97628  0.96788  0.47902  1.0000
  N   N55       1.0  0.73000  0.72105  0.22807  1.0000
  C   C655      1.0  0.74482  0.73036  0.25164  1.0000
  C   C656      1.0  0.73998  0.71212  0.20037  1.0000
  C   C657      1.0  0.77036  0.73063  0.24798  1.0000
  C   C658      1.0  0.76546  0.71215  0.19584  1.0000
  C   C659      1.0  0.78071  0.72152  0.21983  1.0000
  C   C660      1.0  0.70319  0.72173  0.23164  1.0000
  H   H652      1.0  0.73696  0.73788  0.27335  1.0000
  H   H653      1.0  0.72818  0.70553  0.18122  1.0000
  H   H654      1.0  0.78196  0.73824  0.26675  1.0000
  H   H655      1.0  0.82452  0.88571  0.08824  1.0000
  C   C661      1.0  0.74428  0.74662  0.02006  1.0000
  H   H656      1.0  0.69770  0.72430  0.25701  1.0000
  H   H657      1.0  0.69546  0.73721  0.21750  1.0000
  H   H658      1.0  0.69489  0.70432  0.22294  1.0000
  H   H659      1.0  0.80047  0.72198  0.21651  1.0000
  H   H660      1.0  0.83515  0.96319  0.07658  1.0000
  H   H661      1.0  0.97620  0.95728  0.18825  1.0000
  C   C662      1.0  0.71728  0.91841  0.28356  1.0000
  N   N56       1.0  0.71645  0.74730  0.45177  1.0000
  C   C663      1.0  0.68109  0.91870  0.25003  1.0000
  C   C664      1.0  0.95247  0.54690  0.47226  1.0000
  H   H662      1.0  0.78967  0.75480  0.99676  1.0000
  H   H663      1.0  0.78890  0.54494  0.02640  1.0000
  C   C665      1.0  0.72892  0.90315  0.26133  1.0000
  H   H664      1.0  0.68712  0.73545  0.42212  1.0000
  Fe  Fe113     1.0  0.92952  0.96840  0.07914  1.0000
  C   C666      1.0  0.66368  0.59488  0.04896  1.0000
  H   H665      1.0  0.81300  0.55918  0.00305  1.0000
  C   C667      1.0  0.71618  0.89579  0.23384  1.0000
  S   S231      1.0  0.71514  0.66594  0.99253  1.0000
  H   H666      1.0  0.96360  0.56279  0.46673  1.0000
  H   H667      1.0  0.78094  0.93742  0.14120  1.0000
  C   C668      1.0  0.67912  0.89489  0.20020  1.0000
  H   H668      1.0  0.97772  0.89940  0.26908  1.0000
  H   H669      1.0  0.92181  0.91955  0.18815  1.0000
  S   S232      1.0  0.80820  0.60699  0.47380  1.0000
  N   N57       1.0  0.93241  0.93300  0.23453  1.0000
  C   C669      1.0  0.94837  0.91387  0.23952  1.0000
  H   H670      1.0  0.68367  0.73967  0.00214  1.0000
  C   C670      1.0  0.96447  0.91412  0.26571  1.0000
  Fe  Fe114     1.0  0.77376  0.63182  0.47738  1.0000
  C   C671      1.0  0.65568  0.50080  0.13153  1.0000
  H   H671      1.0  0.66779  0.89814  0.35257  1.0000
  H   H672      1.0  0.77294  0.53271  0.39238  1.0000
  C   C672      1.0  0.78836  0.53283  0.43984  1.0000
  C   C673      1.0  0.66051  0.97886  0.37411  1.0000
  C   C674      1.0  0.93159  0.95237  0.25549  1.0000
  H   H673      1.0  0.74422  0.76300  0.42239  1.0000
  Fe  Fe115     1.0  0.92540  0.98614  0.14832  1.0000
  C   C675      1.0  0.79294  0.55897  0.00806  1.0000
  C   C676      1.0  0.83163  0.92396  0.07931  1.0000
  H   H674      1.0  0.97372  0.52158  0.22534  1.0000
  H   H675      1.0  0.66843  0.54628  0.99817  1.0000
  H   H676      1.0  0.79110  0.89444  0.12706  1.0000
  H   H677      1.0  0.84856  0.57289  0.47650  1.0000
  H   H678      1.0  0.66706  0.96020  0.36728  1.0000
  C   C677      1.0  0.94732  0.95313  0.28202  1.0000
  C   C678      1.0  0.77063  0.53875  0.41695  1.0000
  H   H679      1.0  0.90573  0.51308  0.44082  1.0000
  C   C679      1.0  0.69627  0.75282  0.42957  1.0000
  S   S233      1.0  0.77153  0.67341  0.47675  1.0000
  H   H680      1.0  0.68117  0.90845  0.18073  1.0000
  C   C680      1.0  0.69327  0.92644  0.27779  1.0000
  C   C681      1.0  0.68193  0.53208  0.09249  1.0000
  C   C682      1.0  0.66845  0.87638  0.30925  1.0000
  C   C683      1.0  0.65626  0.87051  0.28073  1.0000
  H   H681      1.0  0.89688  0.92743  0.21454  1.0000
  C   C684      1.0  0.98118  0.50323  0.22785  1.0000
  H   H682      1.0  0.68597  0.87662  0.19202  1.0000
  H   H683      1.0  0.90015  0.98085  0.00982  1.0000
  Fe  Fe116     1.0  0.72167  0.62472  0.99208  1.0000
  H   H684      1.0  0.97700  0.93482  0.30670  1.0000
  H   H685      1.0  0.67152  0.61277  0.05362  1.0000
  C   C685      1.0  0.98483  0.49136  0.45202  1.0000
  C   C686      1.0  0.97796  0.50924  0.06842  1.0000
  H   H686      1.0  0.65928  0.89223  0.20554  1.0000
  H   H687      1.0  0.91939  0.96784  0.25105  1.0000
  H   H688      1.0  0.78506  0.98006  0.13305  1.0000
  H   H689      1.0  0.77807  0.75336  0.45999  1.0000
  C   C687      1.0  0.66188  0.55745  0.01786  1.0000
  C   C688      1.0  0.66731  0.49139  0.10431  1.0000
  H   H690      1.0  0.73252  0.57270  0.46365  1.0000
  C   C689      1.0  0.78575  0.54170  0.47110  1.0000
  H   H691      1.0  0.97753  0.52482  0.05234  1.0000
  C   C690      1.0  0.71135  0.73542  0.47965  1.0000
  N   N58       1.0  0.65598  0.98056  0.40856  1.0000
  C   C691      1.0  0.70348  0.73970  0.99916  1.0000
  C   C692      1.0  0.66974  0.54092  0.11963  1.0000
  H   H692      1.0  0.78828  0.72207  0.00369  1.0000
  C   C693      1.0  0.97252  0.48814  0.25262  1.0000
  C   C694      1.0  0.92399  0.50618  0.48569  1.0000
  H   H693      1.0  0.69274  0.72969  0.48494  1.0000
  C   C695      1.0  0.96417  0.48831  0.06155  1.0000
  H   H694      1.0  0.93528  0.94874  0.69711  1.0000
  S   S234      1.0  0.75519  0.62995  0.52541  1.0000
  H   H695      1.0  0.74726  0.72510  0.94482  1.0000
  Fe  Fe117     1.0  0.73691  0.66688  0.94639  1.0000
  C   C696      1.0  0.73940  0.73152  0.96712  1.0000
  S   S235      1.0  0.72197  0.69076  0.90531  1.0000
  C   C697      1.0  0.97781  0.50674  0.72482  1.0000
  S   S236      1.0  0.81204  0.60876  0.96719  1.0000
  Fe  Fe118     1.0  0.74994  0.67104  0.52280  1.0000
  S   S237      1.0  0.76238  0.69719  0.56344  1.0000
  S   S238      1.0  0.74061  0.62551  0.94394  1.0000
  H   H696      1.0  0.91187  0.97480  0.73461  1.0000
  Fe  Fe119     1.0  0.70958  0.83219  0.75935  1.0000
  S   S239      1.0  0.74742  0.83577  0.78061  1.0000
  H   H697      1.0  0.96986  0.55781  0.53590  1.0000
  Fe  Fe120     1.0  0.72970  0.79837  0.70482  1.0000
  S   S240      1.0  0.76869  0.80093  0.72313  1.0000
  S   S241      1.0  0.71516  0.77325  0.66439  1.0000
  Fe  Fe121     1.0  0.75181  0.79514  0.77203  1.0000
  S   S242      1.0  0.76930  0.76856  0.80833  1.0000
  Fe  Fe122     1.0  0.76067  0.84163  0.72998  1.0000
  S   S243      1.0  0.78280  0.87759  0.72406  1.0000
  S   S244      1.0  0.71342  0.79109  0.75346  1.0000
  S   S245      1.0  0.72228  0.83939  0.70905  1.0000
  H   H698      1.0  0.92355  0.88471  0.68269  1.0000
  S   S246      1.0  0.94853  0.96714  0.53401  1.0000
  Fe  Fe123     1.0  0.88582  0.95907  0.62327  1.0000
  S   S247      1.0  0.86557  0.92253  0.63189  1.0000
  H   H699      1.0  0.71306  0.94477  0.77483  1.0000
  S   S248      1.0  0.92735  0.95655  0.62380  1.0000
  S   S249      1.0  0.88511  0.97901  0.57585  1.0000
  S   S250      1.0  0.92500  0.51059  0.86861  1.0000
  H   H700      1.0  0.67405  0.54397  0.51073  1.0000
  S   S251      1.0  0.85138  0.52809  0.86760  1.0000
  H   H701      1.0  0.68525  0.95941  0.81769  1.0000
  Fe  Fe124     1.0  0.71960  0.62648  0.49817  1.0000
  C   C698      1.0  0.88741  0.91113  0.70938  1.0000
  H   H702      1.0  0.78680  0.73386  0.96361  1.0000
  H   H703      1.0  0.72002  0.87545  0.82064  1.0000
  H   H704      1.0  0.77814  0.57875  0.51698  1.0000
  S   S252      1.0  0.71297  0.66765  0.49837  1.0000
  H   H705      1.0  0.97445  0.51028  0.93927  1.0000
  H   H706      1.0  0.69089  0.74671  0.71584  1.0000
  C   C699      1.0  0.71382  0.73192  0.97036  1.0000
  H   H707      1.0  0.90490  0.98387  0.49907  1.0000
  C   C700      1.0  0.80492  0.88986  0.69686  1.0000
  C   C701      1.0  0.81725  0.87534  0.67427  1.0000
  C   C702      1.0  0.83536  0.88578  0.65436  1.0000
  C   C703      1.0  0.84135  0.91092  0.65642  1.0000
  C   C704      1.0  0.82879  0.92553  0.67871  1.0000
  C   C705      1.0  0.81087  0.91503  0.69887  1.0000
  H   H708      1.0  0.81302  0.85598  0.67233  1.0000
  H   H709      1.0  0.84485  0.87421  0.63724  1.0000
  H   H710      1.0  0.83304  0.94488  0.68065  1.0000
  H   H711      1.0  0.80148  0.92653  0.71614  1.0000
  C   C706      1.0  0.82293  0.58693  0.93866  1.0000
  C   C707      1.0  0.81038  0.58196  0.91013  1.0000
  C   C708      1.0  0.81939  0.56388  0.88880  1.0000
  C   C709      1.0  0.84093  0.55043  0.89574  1.0000
  C   C710      1.0  0.85359  0.55554  0.92414  1.0000
  C   C711      1.0  0.84466  0.57372  0.94538  1.0000
  H   H712      1.0  0.79371  0.59200  0.90453  1.0000
  H   H713      1.0  0.80955  0.56027  0.86676  1.0000
  H   H714      1.0  0.87028  0.54552  0.92972  1.0000
  H   H715      1.0  0.85460  0.57751  0.96730  1.0000
  C   C712      1.0  0.74869  0.71886  0.59046  1.0000
  C   C713      1.0  0.72322  0.72125  0.59410  1.0000
  C   C714      1.0  0.71341  0.73832  0.61630  1.0000
  C   C715      1.0  0.72882  0.75321  0.63536  1.0000
  C   C716      1.0  0.75429  0.75094  0.63158  1.0000
  C   C717      1.0  0.76410  0.73388  0.60933  1.0000
  H   H716      1.0  0.71103  0.70975  0.58012  1.0000
  H   H717      1.0  0.69368  0.73985  0.61897  1.0000
  H   H718      1.0  0.76644  0.76220  0.64594  1.0000
  H   H719      1.0  0.78383  0.73229  0.60678  1.0000
  C   C718      1.0  0.73565  0.71245  0.87882  1.0000
  C   C719      1.0  0.72033  0.72662  0.85882  1.0000
  C   C720      1.0  0.73018  0.74404  0.83749  1.0000
  C   C721      1.0  0.75564  0.74743  0.83562  1.0000
  C   C722      1.0  0.77097  0.73330  0.85568  1.0000
  C   C723      1.0  0.76110  0.71602  0.87720  1.0000
  H   H720      1.0  0.70062  0.72416  0.85988  1.0000
  H   H721      1.0  0.71804  0.75486  0.82257  1.0000
  H   H722      1.0  0.79068  0.73567  0.85446  1.0000
  H   H723      1.0  0.77322  0.70523  0.89218  1.0000
  C   C724      1.0  0.69790  0.90219  0.84530  1.0000
  H   H724      1.0  0.72598  0.72072  0.52363  1.0000
  H   H725      1.0  0.72362  0.88616  0.75578  1.0000
  H   H726      1.0  0.77941  0.73456  0.75501  1.0000
  H   H727      1.0  0.76591  0.54949  0.52961  1.0000
  C   C725      1.0  0.70942  0.93292  0.79497  1.0000
  S   S253      1.0  0.77336  0.67175  0.97096  1.0000
  C   C726      1.0  0.72928  0.71425  0.69511  1.0000
  C   C727      1.0  0.95925  0.55936  0.81762  1.0000
  C   C728      1.0  0.73008  0.73015  0.50156  1.0000
  C   C729      1.0  0.90491  0.95680  0.72793  1.0000
  N   N59       1.0  0.93447  0.56602  0.82840  1.0000
  C   C730      1.0  0.93152  0.57889  0.85635  1.0000
  C   C731      1.0  0.91438  0.55806  0.81153  1.0000
  C   C732      1.0  0.90798  0.58489  0.86744  1.0000
  C   C733      1.0  0.89061  0.56363  0.82203  1.0000
  C   C734      1.0  0.88746  0.57737  0.84996  1.0000
  H   H728      1.0  0.98170  0.52680  0.53837  1.0000
  H   H729      1.0  0.94739  0.58444  0.87033  1.0000
  H   H730      1.0  0.91664  0.54707  0.79003  1.0000
  H   H731      1.0  0.90558  0.59499  0.88966  1.0000
  H   H732      1.0  0.87466  0.55681  0.80913  1.0000
  H   H733      1.0  0.86909  0.58165  0.85841  1.0000
  S   S254      1.0  0.94753  0.50602  0.77751  1.0000
  H   H734      1.0  0.80014  0.53798  0.48842  1.0000
  C   C735      1.0  0.97619  0.54172  0.52169  1.0000
  N   N60       1.0  0.90933  0.91934  0.69775  1.0000
  C   C736      1.0  0.91810  0.94192  0.70664  1.0000
  C   C737      1.0  0.92283  0.90411  0.67466  1.0000
  H   H735      1.0  0.87998  0.89365  0.70140  1.0000
  H   H736      1.0  0.75121  0.89171  0.77882  1.0000
  C   C738      1.0  0.71341  0.89431  0.82066  1.0000
  H   H737      1.0  0.67525  0.89261  0.75118  1.0000
  C   C739      1.0  0.66311  0.89467  0.77142  1.0000
  H   H738      1.0  0.74145  0.54037  0.90206  1.0000
  Fe  Fe125     1.0  0.92662  0.97910  0.57856  1.0000
  H   H739      1.0  0.71530  0.70950  0.67761  1.0000
  H   H740      1.0  0.68523  0.71452  0.72297  1.0000
  C   C740      1.0  0.69686  0.73041  0.72985  1.0000
  N   N61       1.0  0.72285  0.72519  0.72340  1.0000
  H   H741      1.0  0.75897  0.70158  0.66504  1.0000
  H   H742      1.0  0.94204  0.91052  0.67155  1.0000
  H   H743      1.0  0.96464  0.54127  0.82776  1.0000
  H   H744      1.0  0.85629  0.91893  0.73968  1.0000
  N   N62       1.0  0.77885  0.55392  0.97883  1.0000
  H   H745      1.0  0.78314  0.52198  0.90942  1.0000
  H   H746      1.0  0.91339  0.90479  0.65104  1.0000
  H   H747      1.0  0.66330  0.61564  0.55175  1.0000
  C   C741      1.0  0.75182  0.54386  0.92379  1.0000
  H   H748      1.0  0.66141  0.51899  0.60132  1.0000
  H   H749      1.0  0.69362  0.73436  0.75560  1.0000
  N   N63       1.0  0.71896  0.90962  0.79594  1.0000
  C   C742      1.0  0.76372  0.56476  0.51238  1.0000
  Fe  Fe126     1.0  0.77580  0.63035  0.97145  1.0000
  C   C743      1.0  0.75399  0.70987  0.68780  1.0000
  C   C744      1.0  0.87383  0.92546  0.73090  1.0000
  C   C745      1.0  0.74058  0.73229  0.74479  1.0000
  H   H750      1.0  0.67489  0.93180  0.86245  1.0000
  C   C746      1.0  0.94266  0.51379  0.50658  1.0000
  C   C747      1.0  0.74201  0.55897  0.94762  1.0000
  C   C748      1.0  0.77219  0.71723  0.70936  1.0000
  C   C749      1.0  0.73403  0.90025  0.76954  1.0000
  H   H751      1.0  0.72390  0.56720  0.94475  1.0000
  S   S255      1.0  0.67710  0.84704  0.78901  1.0000
  C   C750      1.0  0.88262  0.94849  0.74008  1.0000
  H   H752      1.0  0.70216  0.72583  0.95074  1.0000
  C   C751      1.0  0.66415  0.55618  0.52664  1.0000
  H   H753      1.0  0.79144  0.71454  0.70362  1.0000
  C   C752      1.0  0.76548  0.72847  0.73810  1.0000
  C   C753      1.0  0.65816  0.59652  0.54962  1.0000
  H   H754      1.0  0.73561  0.74123  0.76706  1.0000
  H   H755      1.0  0.76892  0.73226  0.51124  1.0000
  C   C754      1.0  0.66002  0.87505  0.79247  1.0000
  C   C755      1.0  0.77510  0.53345  0.92800  1.0000
  Fe  Fe127     1.0  0.88450  0.50173  0.86530  1.0000
  H   H756      1.0  0.95998  0.55778  0.79110  1.0000
  H   H757      1.0  0.94628  0.50310  0.52789  1.0000
  C   C756      1.0  0.75582  0.56374  0.97521  1.0000
  C   C757      1.0  0.65694  0.51852  0.62656  1.0000
  H   H758      1.0  0.96738  0.52285  0.71800  1.0000
  H   H759      1.0  0.80671  0.53091  0.95865  1.0000
  H   H760      1.0  0.74555  0.57349  0.51695  1.0000
  C   C758      1.0  0.67131  0.58100  0.52901  1.0000
  S   S256      1.0  0.69664  0.59138  0.50553  1.0000
  H   H761      1.0  0.73957  0.91491  0.75270  1.0000
  H   H762      1.0  0.87206  0.95999  0.75628  1.0000
  C   C759      1.0  0.97230  0.49477  0.75367  1.0000
  C   C760      1.0  0.78838  0.53860  0.95593  1.0000
  C   C761      1.0  0.98625  0.97202  0.71055  1.0000
  H   H763      1.0  0.97299  0.57337  0.82490  1.0000
  C   C762      1.0  0.69386  0.94142  0.81926  1.0000
  C   C763      1.0  0.65766  0.49637  0.64336  1.0000
  C   C764      1.0  0.98290  0.95676  0.98318  1.0000
  N   N64       1.0  0.95678  0.53377  0.49954  1.0000
  H   H764      1.0  0.98237  0.96288  0.68810  1.0000
  H   H765      1.0  0.93311  0.98181  0.96970  1.0000
  C   C765      1.0  0.98211  0.49904  0.95811  1.0000
  C   C766      1.0  0.96868  0.98137  0.50610  1.0000
  H   H766      1.0  0.91359  0.48965  0.49052  1.0000
  H   H767      1.0  0.97485  0.93914  0.97735  1.0000
  C   C767      1.0  0.75421  0.73669  0.49457  1.0000
  Fe  Fe128     1.0  0.92896  0.48979  0.82178  1.0000
  C   C768      1.0  0.68800  0.92587  0.84446  1.0000
  H   H768      1.0  0.69258  0.88954  0.86395  1.0000
