data_image0
_chemical_formula_structural       SFeSHFeS2FeSFeSCH2C6H3SHCH4CNHCH4CHSC3HC4NC2HCHCH3CHCHCSCHFeSFeSFeSFeHS2FeS2FeSFeCFeS3CH5C6H4C6H5NH3SHCHCH2CHCHCH3C6SH2NCSHCHC2HCSHCNHCNCFeS2FeS2FeCFeHS2H2CH2C3HC2HC5H3SC3H2CNH6C2NHS2CSCHCH2C2HCHCH5CHC3SH2FeS2FeSFeC2SC7H2NH2CH2SHFeH3SCHCHSHCHC3HCH3NC4FeS2FeHSCFeS2NH2C3H3CHC7H5SFeCHC2H2C3H4C2H2C2HCHC2H3CHC2SHCHCH3CHCH3NC2FeS2Fe3S2HCHC6H5C2H3CSCHSCH2SHNCHC2HCHCNCHC2H3C2H2CH2CH2CSFeHFeS2FeCFeS3C9H4C2NCH3SC2H2CHCNHC3HCHCHCHCH2SHC4HCSFeSCFeS2FeSFeHSHNHCH3CHCHC3HCHC8H3CHCH2SHCH2CHNCHCSCSHSNCH2CH2CSHCH3CFeSFeSFeSFeSCSFeS2CSFeSFeCS2CNC6H5N2HC6H4CH2FeHC2HC3SHCSCH3C2H2CHCH2CH2C2H7CSHC3HC2HSHFeS2FeHFeHSH3C6H6CHC3HCHFeSCHCHSC2HCHCNH2CH3C3SH2C2HNCH3C2
_chemical_formula_sum              "S96 Fe48 H288 C288 N24"
_cell_length_a       34.9875
_cell_length_b       34.9619
_cell_length_c       31.3066
_cell_angle_alpha    89.7645
_cell_angle_beta     90.3545
_cell_angle_gamma    119.712

_space_group_name_H-M_alt    "P 1"
_space_group_IT_number       1

loop_
  _space_group_symop_operation_xyz
  'x, y, z'

loop_
  _atom_site_type_symbol
  _atom_site_label
  _atom_site_symmetry_multiplicity
  _atom_site_fract_x
  _atom_site_fract_y
  _atom_site_fract_z
  _atom_site_occupancy
  S   S1        1.0  0.25889  0.38725  0.30644  1.0000
  Fe  Fe1       1.0  0.12794  0.38314  0.05327  1.0000
  S   S2        1.0  0.08663  0.31530  0.07977  1.0000
  H   H1        1.0  0.27236  0.11298  0.05495  1.0000
  Fe  Fe2       1.0  0.06108  0.41205  0.07886  1.0000
  S   S3        1.0  0.01552  0.34586  0.10812  1.0000
  S   S4        1.0  0.19445  0.40489  0.02290  1.0000
  Fe  Fe3       1.0  0.07709  0.34948  0.13600  1.0000
  S   S5        1.0  0.08036  0.32673  0.20370  1.0000
  Fe  Fe4       1.0  0.02979  0.31837  0.04947  1.0000
  S   S6        1.0  0.12168  0.41761  0.11121  1.0000
  C   C1        1.0  0.21621  0.29564  0.21804  1.0000
  H   H2        1.0  0.34991  0.05283  0.02381  1.0000
  H   H3        1.0  0.18221  0.35609  0.10292  1.0000
  C   C2        1.0  0.20837  0.37145  0.28000  1.0000
  C   C3        1.0  0.20850  0.39402  0.24270  1.0000
  C   C4        1.0  0.16953  0.38089  0.21916  1.0000
  C   C5        1.0  0.13007  0.34464  0.23247  1.0000
  C   C6        1.0  0.12983  0.32227  0.27000  1.0000
  C   C7        1.0  0.16876  0.33568  0.29380  1.0000
  H   H4        1.0  0.23900  0.42176  0.23181  1.0000
  H   H5        1.0  0.17008  0.39867  0.19058  1.0000
  H   H6        1.0  0.09940  0.29420  0.28054  1.0000
  S   S7        1.0  0.27574  0.03558  0.07874  1.0000
  H   H7        1.0  0.12926  0.42968  0.27651  1.0000
  C   C8        1.0  0.19661  0.32618  0.15650  1.0000
  H   H8        1.0  0.16831  0.31777  0.32224  1.0000
  H   H9        1.0  0.41765  0.03585  0.10313  1.0000
  H   H10       1.0  0.29468  0.36702  0.20587  1.0000
  H   H11       1.0  0.31533  0.42362  0.14929  1.0000
  C   C9        1.0  0.44464  0.15374  0.07282  1.0000
  N   N1        1.0  0.22777  0.32971  0.18532  1.0000
  H   H12       1.0  0.22146  0.26893  0.20556  1.0000
  C   C10       1.0  0.25011  0.39330  0.12204  1.0000
  H   H13       1.0  0.16298  0.29922  0.15856  1.0000
  H   H14       1.0  0.23645  0.30961  0.24744  1.0000
  H   H15       1.0  0.45988  0.47727  0.07484  1.0000
  H   H16       1.0  0.08257  0.36770  0.32423  1.0000
  C   C11       1.0  0.34358  0.08006  0.02105  1.0000
  H   H17       1.0  0.37197  0.06663  0.13009  1.0000
  S   S8        1.0  0.04445  0.46745  0.08314  1.0000
  C   C12       1.0  0.20719  0.35821  0.12490  1.0000
  C   C13       1.0  0.46117  0.09455  0.06798  1.0000
  C   C14       1.0  0.28186  0.39632  0.15114  1.0000
  H   H18       1.0  0.25857  0.41809  0.09729  1.0000
  C   C15       1.0  0.42555  0.06913  0.09460  1.0000
  C   C16       1.0  0.27004  0.36405  0.18283  1.0000
  C   C17       1.0  0.01293  0.48033  0.04711  1.0000
  C   C18       1.0  0.30001  0.11403  0.03854  1.0000
  N   N2        1.0  0.40959  0.12846  0.09871  1.0000
  C   C19       1.0  0.14301  0.42452  0.30573  1.0000
  C   C20       1.0  0.40002  0.08676  0.10989  1.0000
  H   H19       1.0  0.18128  0.28149  0.22787  1.0000
  C   C21       1.0  0.30791  0.07849  0.04257  1.0000
  H   H20       1.0  0.45179  0.18656  0.06337  1.0000
  C   C22       1.0  0.11678  0.38932  0.33282  1.0000
  H   H21       1.0  0.38099  0.16979  0.09264  1.0000
  H   H22       1.0  0.34880  0.12041  0.12220  1.0000
  H   H23       1.0  0.20851  0.47825  0.29417  1.0000
  C   C23       1.0  0.38322  0.14683  0.11593  1.0000
  H   H24       1.0  0.39808  0.16466  0.14613  1.0000
  C   C24       1.0  0.47076  0.13708  0.05685  1.0000
  H   H25       1.0  0.15462  0.30965  0.03294  1.0000
  C   C25       1.0  0.18744  0.45172  0.31560  1.0000
  S   S9        1.0  0.07196  0.38433  0.01861  1.0000
  C   C26       1.0  0.18677  0.32228  0.01901  1.0000
  H   H26       1.0  0.44198  0.41969  0.01980  1.0000
  Fe  Fe5       1.0  0.31984  0.04041  0.55271  1.0000
  S   S10       1.0  0.38346  0.08105  0.51705  1.0000
  Fe  Fe6       1.0  0.35817  0.08921  0.63746  1.0000
  S   S11       1.0  0.42462  0.13157  0.60867  1.0000
  Fe  Fe7       1.0  0.38766  0.13888  0.55306  1.0000
  S   S12       1.0  0.40488  0.20783  0.53181  1.0000
  Fe  Fe8       1.0  0.41495  0.06984  0.57554  1.0000
  H   H27       1.0  0.38674  0.18610  0.67399  1.0000
  S   S13       1.0  0.32217  0.09937  0.58356  1.0000
  S   S14       1.0  0.35069  0.02635  0.60943  1.0000
  Fe  Fe9       1.0  0.26824  0.31199  0.44624  1.0000
  S   S15       1.0  0.28830  0.36305  0.49808  1.0000
  S   S16       1.0  0.25624  0.24254  0.45568  1.0000
  Fe  Fe10      1.0  0.26617  0.37226  0.37613  1.0000
  S   S17       1.0  0.28754  0.42786  0.42258  1.0000
  Fe  Fe11      1.0  0.33593  0.40912  0.44906  1.0000
  C   C27       1.0  0.23755  0.09418  0.63578  1.0000
  Fe  Fe12      1.0  0.23802  0.37725  0.46716  1.0000
  S   S18       1.0  0.19322  0.39858  0.49878  1.0000
  S   S19       1.0  0.31848  0.35709  0.39880  1.0000
  S   S20       1.0  0.21402  0.32255  0.41912  1.0000
  C   C28       1.0  0.26181  0.13404  0.65759  1.0000
  H   H28       1.0  0.45913  0.42567  0.58873  1.0000
  H   H29       1.0  0.09604  0.35602  0.42446  1.0000
  H   H30       1.0  0.46102  0.29251  0.48545  1.0000
  H   H31       1.0  0.40216  0.41460  0.53460  1.0000
  H   H32       1.0  0.23969  0.46404  0.36005  1.0000
  C   C29       1.0  0.04689  0.30420  0.52561  1.0000
  C   C30       1.0  0.06582  0.34916  0.53445  1.0000
  C   C31       1.0  0.11084  0.37768  0.52641  1.0000
  C   C32       1.0  0.13721  0.36145  0.50962  1.0000
  C   C33       1.0  0.11826  0.31649  0.50084  1.0000
  C   C34       1.0  0.07322  0.28806  0.50862  1.0000
  H   H33       1.0  0.04577  0.36175  0.54761  1.0000
  H   H34       1.0  0.12545  0.41241  0.53345  1.0000
  H   H35       1.0  0.13831  0.30357  0.48826  1.0000
  H   H36       1.0  0.05885  0.25328  0.50185  1.0000
  C   C35       1.0  0.36093  0.21561  0.51495  1.0000
  C   C36       1.0  0.32494  0.18259  0.49281  1.0000
  C   C37       1.0  0.29296  0.19127  0.47508  1.0000
  C   C38       1.0  0.29666  0.23294  0.47933  1.0000
  C   C39       1.0  0.33194  0.26560  0.50260  1.0000
  C   C40       1.0  0.36371  0.25676  0.52071  1.0000
  H   H37       1.0  0.32254  0.15081  0.48809  1.0000
  H   H38       1.0  0.26571  0.16585  0.45716  1.0000
  H   H39       1.0  0.33480  0.29766  0.50653  1.0000
  H   H40       1.0  0.39104  0.28223  0.53847  1.0000
  H   H41       1.0  0.23481  0.13235  0.53777  1.0000
  N   N3        1.0  0.22879  0.09386  0.59306  1.0000
  H   H42       1.0  0.21034  0.02611  0.58502  1.0000
  H   H43       1.0  0.07745  0.31837  0.37962  1.0000
  H   H44       1.0  0.19163  0.40227  0.40748  1.0000
  S   S21       1.0  0.47226  0.05531  0.57816  1.0000
  H   H45       1.0  0.41951  0.39250  0.41268  1.0000
  C   C41       1.0  0.10687  0.34418  0.39665  1.0000
  H   H46       1.0  0.38118  0.31276  0.39373  1.0000
  C   C42       1.0  0.26681  0.17303  0.59227  1.0000
  H   H47       1.0  0.40330  0.26304  0.42974  1.0000
  H   H48       1.0  0.12558  0.32828  0.40876  1.0000
  C   C43       1.0  0.03318  0.43909  0.58056  1.0000
  H   H49       1.0  0.29687  0.20478  0.65190  1.0000
  C   C44       1.0  0.20497  0.44375  0.35250  1.0000
  H   H50       1.0  0.16879  0.04043  0.57027  1.0000
  C   C45       1.0  0.42039  0.29802  0.43695  1.0000
  H   H51       1.0  0.27847  0.20362  0.57467  1.0000
  H   H52       1.0  0.21617  0.05509  0.53671  1.0000
  H   H53       1.0  0.22730  0.06359  0.65292  1.0000
  C   C46       1.0  0.46765  0.44851  0.56235  1.0000
  C   C47       1.0  0.43522  0.44223  0.53181  1.0000
  C   C48       1.0  0.44587  0.47141  0.49741  1.0000
  C   C49       1.0  0.24217  0.13256  0.57150  1.0000
  C   C50       1.0  0.20456  0.05185  0.57027  1.0000
  C   C51       1.0  0.17775  0.40838  0.37895  1.0000
  S   S22       1.0  0.40784  0.46312  0.45587  1.0000
  H   H54       1.0  0.01438  0.44070  0.60839  1.0000
  H   H55       1.0  0.00007  0.48487  0.44276  1.0000
  N   N4        1.0  0.13448  0.38126  0.36853  1.0000
  C   C52       1.0  0.40787  0.32587  0.41692  1.0000
  S   S23       1.0  0.99044  0.26714  0.53453  1.0000
  H   H56       1.0  0.00881  0.41302  0.55910  1.0000
  C   C53       1.0  0.46224  0.38636  0.45884  1.0000
  H   H57       1.0  0.05718  0.42934  0.59227  1.0000
  C   C54       1.0  0.27699  0.17368  0.63553  1.0000
  C   C55       1.0  0.42915  0.37044  0.42766  1.0000
  H   H58       1.0  0.47839  0.42095  0.46711  1.0000
  C   C56       1.0  0.45319  0.31497  0.46850  1.0000
  S   S24       1.0  0.25400  0.99500  0.52095  1.0000
  H   H59       1.0  0.43202  0.00824  0.49837  1.0000
  C   C57       1.0  0.45895  0.00269  0.50669  1.0000
  N   N5        1.0  0.47351  0.35864  0.47918  1.0000
  H   H60       1.0  0.07752  0.45437  0.50829  1.0000
  C   C58       1.0  0.07726  0.48331  0.52035  1.0000
  N   N6        1.0  0.05592  0.48109  0.55754  1.0000
  C   C59       1.0  0.40206  0.12976  0.81390  1.0000
  Fe  Fe13      1.0  0.32178  0.28668  0.93933  1.0000
  S   S25       1.0  0.37896  0.30559  0.98445  1.0000
  S   S26       1.0  0.25370  0.26952  0.96279  1.0000
  Fe  Fe14      1.0  0.37295  0.28450  0.86086  1.0000
  S   S27       1.0  0.43325  0.30413  0.90052  1.0000
  S   S28       1.0  0.38114  0.27806  0.78951  1.0000
  Fe  Fe15      1.0  0.38757  0.25455  0.94830  1.0000
  C   C60       1.0  0.45411  0.20075  0.78492  1.0000
  Fe  Fe16      1.0  0.41912  0.35343  0.93230  1.0000
  H   H61       1.0  0.07616  0.31713  0.96470  1.0000
  S   S29       1.0  0.32797  0.23240  0.90675  1.0000
  S   S30       1.0  0.36123  0.33701  0.88915  1.0000
  H   H62       1.0  0.38363  0.09423  0.81042  1.0000
  H   H63       1.0  0.35038  0.14193  0.89822  1.0000
  C   C61       1.0  0.13579  0.33042  0.93195  1.0000
  H   H64       1.0  0.41248  0.21049  0.87912  1.0000
  H   H65       1.0  0.41346  0.99384  0.00512  1.0000
  C   C62       1.0  0.46476  0.45386  0.01251  1.0000
  C   C63       1.0  0.24166  0.30831  0.98589  1.0000
  C   C64       1.0  0.14596  0.26896  0.92024  1.0000
  H   H66       1.0  0.33421  0.09391  0.86644  1.0000
  C   C65       1.0  0.20099  0.29291  0.00624  1.0000
  C   C66       1.0  0.44641  0.99970  0.01128  1.0000
  H   H67       1.0  0.40282  0.25685  0.70777  1.0000
  C   C67       1.0  0.34781  0.14623  0.72656  1.0000
  C   C68       1.0  0.33029  0.14676  0.76670  1.0000
  C   C69       1.0  0.33978  0.18682  0.78612  1.0000
  C   C70       1.0  0.36646  0.22679  0.76527  1.0000
  C   C71       1.0  0.38249  0.22614  0.72434  1.0000
  H   H68       1.0  0.26965  0.13412  0.69117  1.0000
  H   H69       1.0  0.30993  0.11605  0.78325  1.0000
  H   H70       1.0  0.32667  0.18680  0.81733  1.0000
  S   S31       1.0  0.33813  0.09527  0.70526  1.0000
  C   C72       1.0  0.20216  0.34178  0.89482  1.0000
  C   C73       1.0  0.36549  0.15420  0.99517  1.0000
  C   C74       1.0  0.36313  0.12287  0.88085  1.0000
  H   H71       1.0  0.47588  0.22065  0.75948  1.0000
  H   H72       1.0  0.27613  0.41813  0.98847  1.0000
  C   C75       1.0  0.10609  0.24109  0.94063  1.0000
  N   N7        1.0  0.16056  0.31312  0.91664  1.0000
  H   H73       1.0  0.16600  0.25536  0.90877  1.0000
  H   H74       1.0  0.43547  0.13895  0.75375  1.0000
  H   H75       1.0  0.40110  0.11973  0.98283  1.0000
  H   H76       1.0  0.22534  0.32871  0.89780  1.0000
  H   H77       1.0  0.04996  0.23755  0.97293  1.0000
  H   H78       1.0  0.44597  0.37209  0.76143  1.0000
  C   C76       1.0  0.44749  0.22082  0.82037  1.0000
  C   C77       1.0  0.41787  0.19463  0.85198  1.0000
  N   N8        1.0  0.39488  0.14978  0.84797  1.0000
  H   H79       1.0  0.09531  0.20636  0.94452  1.0000
  S   S32       1.0  0.40559  0.20337  0.97064  1.0000
  S   S33       1.0  0.98365  0.26447  0.00436  1.0000
  C   C78       1.0  0.32844  0.15159  0.01463  1.0000
  S   S34       1.0  0.47530  0.42499  0.93298  1.0000
  C   C79       1.0  0.37250  0.11799  0.99780  1.0000
  H   H80       1.0  0.32258  0.17920  0.01270  1.0000
  C   C80       1.0  0.08081  0.25853  0.95666  1.0000
  H   H81       1.0  0.46408  0.25644  0.82280  1.0000
  H   H82       1.0  0.19594  0.34454  0.86046  1.0000
  C   C81       1.0  0.09559  0.30339  0.95213  1.0000
  C   C82       1.0  0.43160  0.15492  0.78178  1.0000
  H   H83       1.0  0.30085  0.36594  0.96527  1.0000
  C   C83       1.0  0.37339  0.18608  0.70510  1.0000
  H   H84       1.0  0.21903  0.37520  0.90934  1.0000
  C   C84       1.0  0.26931  0.35368  0.98074  1.0000
  H   H85       1.0  0.14760  0.36553  0.92969  1.0000
  H   H86       1.0  0.17960  0.25786  0.01062  1.0000
  H   H87       1.0  0.46143  0.39673  0.83711  1.0000
  H   H88       1.0  0.37914  0.11145  0.90440  1.0000
  H   H89       1.0  0.47281  0.03453  0.95203  1.0000
  C   C85       1.0  0.25513  0.38315  0.99373  1.0000
  H   H90       1.0  0.00587  0.43389  0.99867  1.0000
  C   C86       1.0  0.99728  0.45832  0.00820  1.0000
  C   C87       1.0  0.47494  0.40330  0.76942  1.0000
  C   C88       1.0  0.21333  0.36747  0.01187  1.0000
  S   S35       1.0  0.07262  0.74959  0.31434  1.0000
  H   H91       1.0  0.03984  0.68838  0.08597  1.0000
  H   H92       1.0  0.21059  0.78543  0.16745  1.0000
  Fe  Fe17      1.0  0.26547  0.90085  0.15042  1.0000
  S   S36       1.0  0.28799  0.86813  0.10314  1.0000
  S   S37       1.0  0.25279  0.87456  0.21888  1.0000
  Fe  Fe18      1.0  0.34224  0.93592  0.08568  1.0000
  S   S38       1.0  0.41338  0.95040  0.08537  1.0000
  Fe  Fe19      1.0  0.24627  0.87973  0.05569  1.0000
  C   C89       1.0  0.14375  0.72941  0.08388  1.0000
  C   C90       1.0  0.06414  0.67695  0.08177  1.0000
  S   S39       1.0  0.22068  0.90881  0.10397  1.0000
  C   C91       1.0  0.18101  0.76262  0.15004  1.0000
  C   C92       1.0  0.20195  0.83716  0.24280  1.0000
  C   C93       1.0  0.16159  0.82902  0.22566  1.0000
  C   C94       1.0  0.12218  0.80142  0.24758  1.0000
  C   C95       1.0  0.12274  0.78172  0.28671  1.0000
  C   C96       1.0  0.16299  0.78879  0.30307  1.0000
  C   C97       1.0  0.20237  0.81666  0.28139  1.0000
  H   H93       1.0  0.16079  0.84469  0.19603  1.0000
  H   H94       1.0  0.09115  0.79595  0.23453  1.0000
  N   N9        1.0  0.10480  0.70597  0.10518  1.0000
  H   H95       1.0  0.23344  0.82269  0.29483  1.0000
  H   H96       1.0  0.18931  0.90972  0.27726  1.0000
  C   C98       1.0  0.12436  0.80904  0.04326  1.0000
  H   H97       1.0  0.44818  0.86777  0.05364  1.0000
  H   H98       1.0  0.07253  0.69093  0.16556  1.0000
  S   S40       1.0  0.99492  0.72426  0.02174  1.0000
  H   H99       1.0  0.14528  0.72653  0.04954  1.0000
  Fe  Fe20      1.0  0.28034  0.97332  0.08548  1.0000
  H   H100      1.0  0.14026  0.74005  0.20614  1.0000
  H   H101      1.0  0.06986  0.67696  0.04687  1.0000
  H   H102      1.0  0.04984  0.64253  0.09346  1.0000
  S   S41       1.0  0.30283  0.94488  0.03358  1.0000
  C   C99       1.0  0.10333  0.70957  0.14857  1.0000
  H   H103      1.0  0.01474  0.53045  0.08828  1.0000
  C   C100      1.0  0.18223  0.75841  0.10585  1.0000
  H   H104      1.0  0.16385  0.77337  0.33283  1.0000
  S   S42       1.0  0.32292  0.96812  0.13657  1.0000
  H   H105      1.0  0.21261  0.77782  0.08841  1.0000
  C   C101      1.0  0.14146  0.73750  0.17169  1.0000
  H   H106      1.0  0.14342  0.83429  0.06641  1.0000
  C   C102      1.0  0.00270  0.51316  0.05832  1.0000
  C   C103      1.0  0.47497  0.48662  0.04367  1.0000
  C   C104      1.0  0.07818  0.78619  0.04555  1.0000
  H   H107      1.0  0.13596  0.87539  0.29932  1.0000
  C   C105      1.0  0.16981  0.90213  0.30717  1.0000
  H   H108      1.0  0.25530  0.93463  0.32244  1.0000
  H   H109      1.0  0.16830  0.93172  0.31738  1.0000
  H   H110      1.0  0.06210  0.79439  0.07040  1.0000
  N   N10       1.0  0.18966  0.88858  0.34111  1.0000
  C   C106      1.0  0.23450  0.90934  0.34509  1.0000
  C   C107      1.0  0.45337  0.88351  0.02263  1.0000
  C   C108      1.0  0.45523  0.98322  0.04854  1.0000
  C   C109      1.0  0.46934  0.97659  0.48020  1.0000
  Fe  Fe21      1.0  0.10230  0.74323  0.47405  1.0000
  S   S43       1.0  0.06520  0.76920  0.43657  1.0000
  S   S44       1.0  0.16617  0.78622  0.51006  1.0000
  Fe  Fe22      1.0  0.04093  0.64801  0.44573  1.0000
  H   H111      1.0  0.28971  0.91465  0.38138  1.0000
  S   S45       1.0  0.02597  0.57645  0.44416  1.0000
  C   C110      1.0  0.25417  0.89796  0.37811  1.0000
  Fe  Fe23      1.0  0.00446  0.70945  0.46113  1.0000
  S   S46       1.0  0.10510  0.70264  0.41965  1.0000
  S   S47       1.0  0.04154  0.68656  0.50335  1.0000
  N   N11       1.0  0.44664  0.85848  0.52697  1.0000
  H   H112      1.0  0.41763  0.87594  0.47625  1.0000
  H   H113      1.0  0.37951  0.83913  0.51603  1.0000
  C   C111      1.0  0.18206  0.84360  0.40217  1.0000
  C   C112      1.0  0.07614  0.55729  0.55026  1.0000
  C   C113      1.0  0.22765  0.86483  0.40681  1.0000
  H   H114      1.0  0.28497  0.93455  0.54750  1.0000
  H   H115      1.0  0.45003  0.96208  0.45162  1.0000
  H   H116      1.0  0.43771  0.81503  0.47551  1.0000
  C   C114      1.0  0.09728  0.55965  0.51190  1.0000
  H   H117      1.0  0.41432  0.89703  0.52707  1.0000
  C   C115      1.0  0.09808  0.52254  0.49687  1.0000
  C   C116      1.0  0.22987  0.93695  0.51953  1.0000
  C   C117      1.0  0.18722  0.91176  0.50260  1.0000
  C   C118      1.0  0.16693  0.86556  0.50046  1.0000
  C   C119      1.0  0.18939  0.84409  0.51467  1.0000
  C   C120      1.0  0.23199  0.86926  0.53179  1.0000
  C   C121      1.0  0.25216  0.91550  0.53431  1.0000
  H   H118      1.0  0.16968  0.92807  0.49125  1.0000
  H   H119      1.0  0.13395  0.84665  0.48776  1.0000
  H   H120      1.0  0.24953  0.85293  0.54305  1.0000
  H   H121      1.0  0.24218  0.85556  0.43276  1.0000
  H   H122      1.0  0.98309  0.57290  0.52552  1.0000
  S   S48       1.0  0.00053  0.66797  0.40495  1.0000
  Fe  Fe24      1.0  0.06470  0.72580  0.38359  1.0000
  C   C122      1.0  0.16340  0.85652  0.36954  1.0000
  H   H123      1.0  0.16135  0.81732  0.42390  1.0000
  C   C123      1.0  0.99443  0.53321  0.48058  1.0000
  C   C124      1.0  0.46911  0.87768  0.56386  1.0000
  H   H124      1.0  0.12782  0.83976  0.36635  1.0000
  H   H125      1.0  0.46332  0.90144  0.58063  1.0000
  C   C125      1.0  0.41272  0.86797  0.51093  1.0000
  C   C126      1.0  0.45475  0.82936  0.50528  1.0000
  C   C127      1.0  0.98748  0.49074  0.47201  1.0000
  H   H126      1.0  0.11182  0.58984  0.49323  1.0000
  H   H127      1.0  0.03755  0.51546  0.60169  1.0000
  H   H128      1.0  0.07436  0.58569  0.56150  1.0000
  H   H129      1.0  0.11390  0.52398  0.46676  1.0000
  C   C128      1.0  0.05537  0.51746  0.57277  1.0000
  C   C129      1.0  0.07390  0.74239  0.98423  1.0000
  H   H130      1.0  0.04143  0.61128  0.85709  1.0000
  H   H131      1.0  0.05464  0.71671  0.96143  1.0000
  C   C130      1.0  0.41890  0.88567  0.00228  1.0000
  C   C131      1.0  0.42623  0.90733  0.96312  1.0000
  H   H132      1.0  0.01550  0.64738  0.80471  1.0000
  C   C132      1.0  0.12022  0.76542  0.98187  1.0000
  H   H133      1.0  0.13646  0.75716  0.95723  1.0000
  C   C133      1.0  0.05276  0.75283  0.01613  1.0000
  C   C134      1.0  0.14564  0.79885  0.01137  1.0000
  H   H134      1.0  0.98779  0.53870  0.88814  1.0000
  H   H135      1.0  0.47409  0.94526  0.91540  1.0000
  H   H136      1.0  0.39993  0.91025  0.94771  1.0000
  C   C135      1.0  0.00720  0.59505  0.84712  1.0000
  H   H137      1.0  0.38699  0.87193  0.01759  1.0000
  C   C136      1.0  0.99268  0.61525  0.81774  1.0000
  C   C137      1.0  0.46825  0.92702  0.94502  1.0000
  S   S49       1.0  0.20374  0.82440  0.00972  1.0000
  H   H138      1.0  0.83974  0.32445  0.03977  1.0000
  C   C138      1.0  0.90708  0.24879  0.04497  1.0000
  H   H139      1.0  0.84667  0.23823  0.07377  1.0000
  C   C139      1.0  0.86113  0.23074  0.04690  1.0000
  H   H140      1.0  0.92780  0.26996  0.07032  1.0000
  H   H141      1.0  0.96052  0.37985  0.06275  1.0000
  H   H142      1.0  0.90970  0.34422  0.08913  1.0000
  C   C140      1.0  0.92433  0.36638  0.06119  1.0000
  H   H143      1.0  0.91843  0.39475  0.06373  1.0000
  C   C141      1.0  0.49821  0.99110  0.05605  1.0000
  H   H144      1.0  0.56465  0.01940  0.03196  1.0000
  H   H145      1.0  0.49803  0.15688  0.03568  1.0000
  H   H146      1.0  0.48121  0.08125  0.05589  1.0000
  N   N12       1.0  0.90511  0.34221  0.02143  1.0000
  C   C142      1.0  0.53187  0.01411  0.02606  1.0000
  C   C143      1.0  0.68629  0.05903  0.60610  1.0000
  Fe  Fe25      1.0  0.84578  0.25292  0.56077  1.0000
  S   S50       1.0  0.88550  0.22983  0.59781  1.0000
  S   S51       1.0  0.78251  0.20560  0.52606  1.0000
  Fe  Fe26      1.0  0.91022  0.35048  0.58043  1.0000
  Fe  Fe27      1.0  0.94395  0.28611  0.56607  1.0000
  Fe  Fe28      1.0  0.89149  0.27849  0.64746  1.0000
  S   S52       1.0  0.90371  0.30632  0.52539  1.0000
  S   S53       1.0  0.84814  0.29868  0.61233  1.0000
  H   H147      1.0  0.85434  0.08271  0.47995  1.0000
  C   C144      1.0  0.85043  0.18834  0.45236  1.0000
  H   H148      1.0  0.79846  0.07904  0.42911  1.0000
  C   C145      1.0  0.74217  0.05949  0.51608  1.0000
  C   C146      1.0  0.71978  0.07634  0.49237  1.0000
  C   C147      1.0  0.73226  0.12121  0.49576  1.0000
  C   C148      1.0  0.76715  0.14935  0.52274  1.0000
  C   C149      1.0  0.78901  0.13217  0.54666  1.0000
  C   C150      1.0  0.77663  0.08751  0.54331  1.0000
  H   H149      1.0  0.69320  0.05495  0.47120  1.0000
  H   H150      1.0  0.71511  0.13421  0.47713  1.0000
  H   H151      1.0  0.81523  0.15304  0.56807  1.0000
  H   H152      1.0  0.79389  0.07460  0.56190  1.0000
  H   H153      1.0  0.68482  0.17587  0.53307  1.0000
  C   C151      1.0  0.66262  0.16003  0.56073  1.0000
  C   C152      1.0  0.94923  0.46327  0.53947  1.0000
  H   H154      1.0  0.72400  0.16851  0.61672  1.0000
  H   H155      1.0  0.62791  0.14715  0.55033  1.0000
  H   H156      1.0  0.79532  0.14695  0.41178  1.0000
  C   C153      1.0  0.88168  0.18945  0.48115  1.0000
  S   S54       1.0  0.95426  0.33333  0.61929  1.0000
  C   C154      1.0  0.82238  0.11046  0.44284  1.0000
  H   H157      1.0  0.63377  0.01621  0.56371  1.0000
  S   S55       1.0  0.92369  0.42171  0.57898  1.0000
  C   C155      1.0  0.91594  0.15418  0.52137  1.0000
  H   H158      1.0  0.84848  0.21789  0.44610  1.0000
  H   H159      1.0  0.94910  0.17150  0.50653  1.0000
  S   S56       1.0  0.72936  0.00418  0.51205  1.0000
  H   H160      1.0  0.90894  0.12103  0.53215  1.0000
  N   N13       1.0  0.88284  0.15187  0.49094  1.0000
  C   C156      1.0  0.64459  0.08270  0.56268  1.0000
  H   H161      1.0  0.91679  0.17299  0.55028  1.0000
  C   C157      1.0  0.85399  0.11274  0.47192  1.0000
  C   C158      1.0  0.82058  0.14853  0.43317  1.0000
  H   H162      1.0  0.90456  0.22043  0.49621  1.0000
  C   C159      1.0  0.51088  0.48407  0.55899  1.0000
  H   H163      1.0  0.61898  0.07502  0.53903  1.0000
  C   C160      1.0  0.70295  0.13478  0.60627  1.0000
  N   N14       1.0  0.66952  0.12477  0.57772  1.0000
  C   C161      1.0  0.50489  0.37504  0.51490  1.0000
  H   H164      1.0  0.53779  0.02883  0.58254  1.0000
  C   C162      1.0  0.71158  0.10202  0.62118  1.0000
  C   C163      1.0  0.65258  0.04922  0.57667  1.0000
  H   H165      1.0  0.66995  0.18558  0.58539  1.0000
  H   H166      1.0  0.96032  0.42355  0.49440  1.0000
  H   H167      1.0  0.73870  0.11030  0.64312  1.0000
  C   C164      1.0  0.96502  0.45592  0.50125  1.0000
  C   C165      1.0  0.51871  0.01439  0.55383  1.0000
  H   H168      1.0  0.48677  0.36971  0.54539  1.0000
  H   H169      1.0  0.69368  0.03363  0.61614  1.0000
  C   C166      1.0  0.81187  0.48326  0.51420  1.0000
  H   H170      1.0  0.83406  0.47685  0.53494  1.0000
  H   H171      1.0  0.52852  0.41094  0.51177  1.0000
  C   C167      1.0  0.48362  0.02183  0.54369  1.0000
  H   H172      1.0  0.52433  0.35779  0.51662  1.0000
  H   H173      1.0  0.78906  0.45253  0.49696  1.0000
  C   C168      1.0  0.52896  0.98808  0.52742  1.0000
  S   S57       1.0  0.88591  0.26474  0.71912  1.0000
  Fe  Fe29      1.0  0.69568  0.03087  0.95495  1.0000
  H   H174      1.0  0.83227  0.17362  0.95364  1.0000
  Fe  Fe30      1.0  0.70795  0.09492  0.88172  1.0000
  S   S58       1.0  0.68724  0.13394  0.92283  1.0000
  S   S59       1.0  0.72232  0.10352  0.81028  1.0000
  Fe  Fe31      1.0  0.72978  0.12773  0.97365  1.0000
  C   C169      1.0  0.93122  0.33866  0.99113  1.0000
  Fe  Fe32      1.0  0.63366  0.06841  0.94743  1.0000
  S   S60       1.0  0.56248  0.05434  0.94734  1.0000
  S   S61       1.0  0.75378  0.09313  0.93088  1.0000
  S   S62       1.0  0.65137  0.02959  0.90232  1.0000
  C   C170      1.0  0.85278  0.19381  0.97949  1.0000
  C   C171      1.0  0.52276  0.02940  0.98817  1.0000
  C   C172      1.0  0.50374  0.43011  0.73742  1.0000
  C   C173      1.0  0.83949  0.22038  0.74392  1.0000
  C   C174      1.0  0.83764  0.21766  0.78882  1.0000
  C   C175      1.0  0.80158  0.18265  0.80970  1.0000
  C   C176      1.0  0.76719  0.14971  0.78579  1.0000
  C   C177      1.0  0.76914  0.15226  0.74094  1.0000
  C   C178      1.0  0.80495  0.18751  0.72005  1.0000
  H   H175      1.0  0.86419  0.24297  0.80749  1.0000
  H   H176      1.0  0.80048  0.18105  0.84423  1.0000
  H   H177      1.0  0.74268  0.12686  0.72233  1.0000
  H   H178      1.0  0.49659  0.41953  0.70435  1.0000
  C   C179      1.0  0.86338  0.11091  0.89190  1.0000
  C   C180      1.0  0.84507  0.11491  0.85356  1.0000
  N   N15       1.0  0.54042  0.46918  0.74762  1.0000
  C   C181      1.0  0.52060  0.45725  0.82192  1.0000
  H   H179      1.0  0.79120  0.08300  0.80941  1.0000
  H   H180      1.0  0.52716  0.46819  0.85495  1.0000
  H   H181      1.0  0.85598  0.06804  0.94484  1.0000
  S   S63       1.0  0.67451  0.06524  0.00184  1.0000
  C   C182      1.0  0.97058  0.46808  0.98154  1.0000
  C   C183      1.0  0.84237  0.07145  0.91475  1.0000
  H   H182      1.0  0.93343  0.31092  0.93032  1.0000
  H   H183      1.0  0.89363  0.13838  0.90401  1.0000
  C   C184      1.0  0.86056  0.32246  0.01538  1.0000
  H   H184      1.0  0.86093  0.14544  0.83546  1.0000
  C   C185      1.0  0.74172  0.00563  0.84756  1.0000
  N   N16       1.0  0.78421  0.04153  0.86245  1.0000
  H   H185      1.0  0.91321  0.20520  0.95024  1.0000
  C   C186      1.0  0.86733  0.29429  0.94732  1.0000
  C   C187      1.0  0.83380  0.20340  0.01408  1.0000
  C   C188      1.0  0.80544  0.07950  0.83903  1.0000
  H   H186      1.0  0.78634  0.00637  0.91752  1.0000
  C   C189      1.0  0.80281  0.03668  0.89920  1.0000
  H   H187      1.0  0.80544  0.28075  0.97458  1.0000
  C   C190      1.0  0.84099  0.29807  0.97838  1.0000
  H   H188      1.0  0.95817  0.45042  0.95181  1.0000
  C   C191      1.0  0.89869  0.21191  0.97752  1.0000
  H   H189      1.0  0.57444  0.47676  0.68904  1.0000
  C   C192      1.0  0.91277  0.31482  0.95358  1.0000
  H   H190      1.0  0.85235  0.27437  0.91909  1.0000
  H   H191      1.0  0.96634  0.35298  0.99640  1.0000
  S   S64       1.0  0.77675  0.18501  0.01550  1.0000
  H   H192      1.0  0.72194  0.01897  0.83222  1.0000
  C   C193      1.0  0.48355  0.41705  0.81191  1.0000
  C   C194      1.0  0.92602  0.23977  0.01000  1.0000
  C   C195      1.0  0.54882  0.48315  0.78918  1.0000
  C   C196      1.0  0.48468  0.46529  0.97237  1.0000
  H   H193      1.0  0.80606  0.18917  0.68555  1.0000
  C   C197      1.0  0.48009  0.02270  0.98126  1.0000
  S   S65       1.0  0.64250  0.89232  0.32764  1.0000
  Fe  Fe33      1.0  0.59584  0.74171  0.07060  1.0000
  S   S66       1.0  0.65532  0.76598  0.11292  1.0000
  C   C198      1.0  0.56551  0.79497  0.16249  1.0000
  Fe  Fe34      1.0  0.56879  0.64371  0.08380  1.0000
  S   S67       1.0  0.62615  0.66160  0.12817  1.0000
  S   S68       1.0  0.51844  0.57038  0.07680  1.0000
  Fe  Fe35      1.0  0.61107  0.71163  0.15749  1.0000
  S   S69       1.0  0.60317  0.71709  0.22932  1.0000
  Fe  Fe36      1.0  0.66495  0.71408  0.07983  1.0000
  H   H194      1.0  0.66692  0.82898  0.02564  1.0000
  S   S70       1.0  0.55065  0.68955  0.11688  1.0000
  H   H195      1.0  0.55873  0.85300  0.26425  1.0000
  N   N17       1.0  0.58736  0.86112  0.20252  1.0000
  H   H196      1.0  0.51587  0.77168  0.25934  1.0000
  C   C199      1.0  0.53886  0.76988  0.19614  1.0000
  H   H197      1.0  0.61044  0.85978  0.13967  1.0000
  H   H198      1.0  0.70195  0.64457  0.09442  1.0000
  H   H199      1.0  0.59380  0.92441  0.19589  1.0000
  C   C200      1.0  0.84905  0.75376  0.08310  1.0000
  H   H200      1.0  0.85316  0.62750  0.09772  1.0000
  C   C201      1.0  0.58949  0.84081  0.16603  1.0000
  H   H201      1.0  0.64399  0.92258  0.18692  1.0000
  C   C202      1.0  0.53575  0.79093  0.23262  1.0000
  C   C203      1.0  0.65611  0.85244  0.01849  1.0000
  C   C204      1.0  0.72575  0.64928  0.07012  1.0000
  H   H202      1.0  0.83073  0.77084  0.08886  1.0000
  C   C205      1.0  0.74409  0.68739  0.04496  1.0000
  H   H203      1.0  0.86480  0.65654  0.14812  1.0000
  C   C206      1.0  0.89282  0.70753  0.06688  1.0000
  C   C207      1.0  0.63497  0.84339  0.30305  1.0000
  C   C208      1.0  0.60788  0.80182  0.32089  1.0000
  C   C209      1.0  0.59935  0.76351  0.29834  1.0000
  C   C210      1.0  0.61716  0.76632  0.25748  1.0000
  C   C211      1.0  0.64482  0.80791  0.23999  1.0000
  C   C212      1.0  0.65392  0.84620  0.26283  1.0000
  C   C213      1.0  0.59896  0.52701  0.05846  1.0000
  H   H204      1.0  0.57792  0.73145  0.31207  1.0000
  H   H205      1.0  0.65909  0.81055  0.20880  1.0000
  H   H206      1.0  0.67517  0.87819  0.24888  1.0000
  C   C214      1.0  0.61356  0.90915  0.20641  1.0000
  H   H207      1.0  0.56824  0.77898  0.13409  1.0000
  C   C215      1.0  0.56013  0.83691  0.23517  1.0000
  H   H208      1.0  0.56955  0.49946  0.04296  1.0000
  H   H209      1.0  0.62442  0.91887  0.24011  1.0000
  S   S71       1.0  0.78757  0.58438  0.02799  1.0000
  H   H210      1.0  0.58721  0.54349  0.08098  1.0000
  C   C216      1.0  0.84625  0.64968  0.11761  1.0000
  H   H211      1.0  0.72495  0.58834  0.08407  1.0000
  H   H212      1.0  0.52153  0.73417  0.19426  1.0000
  C   C217      1.0  0.83720  0.71391  0.10387  1.0000
  H   H213      1.0  0.81033  0.63128  0.12414  1.0000
  N   N18       1.0  0.85863  0.69105  0.09512  1.0000
  C   C218      1.0  0.73894  0.61760  0.06431  1.0000
  H   H214      1.0  0.80991  0.70082  0.12606  1.0000
  C   C219      1.0  0.88337  0.77037  0.05364  1.0000
  S   S72       1.0  0.73103  0.72942  0.05287  1.0000
  C   C220      1.0  0.77056  0.62393  0.03348  1.0000
  S   S73       1.0  0.57355  0.78871  0.04554  1.0000
  H   H215      1.0  0.91022  0.68976  0.06037  1.0000
  S   S74       1.0  0.60854  0.69391  0.03363  1.0000
  N   N19       1.0  0.62806  0.55753  0.02577  1.0000
  C   C221      1.0  0.50476  0.53124  0.03503  1.0000
  H   H216      1.0  0.61644  0.51360  0.07766  1.0000
  H   H217      1.0  0.96869  0.54851  0.04058  1.0000
  C   C222      1.0  0.90561  0.74729  0.04559  1.0000
  H   H218      1.0  0.60983  0.60627  0.03835  1.0000
  H   H219      1.0  0.50534  0.97865  0.08494  1.0000
  C   C223      1.0  0.97661  0.52348  0.03133  1.0000
  S   S75       1.0  0.90759  0.60345  0.02048  1.0000
  H   H220      1.0  0.89247  0.80090  0.03685  1.0000
  C   C224      1.0  0.61234  0.84111  0.02555  1.0000
  H   H221      1.0  0.93255  0.75986  0.02290  1.0000
  H   H222      1.0  0.56495  0.86322  0.02160  1.0000
  H   H223      1.0  0.52177  0.90225  0.01985  1.0000
  C   C225      1.0  0.62944  0.59688  0.01896  1.0000
  Fe  Fe37      1.0  0.66787  0.95262  0.47847  1.0000
  S   S76       1.0  0.60594  0.91440  0.51666  1.0000
  Fe  Fe38      1.0  0.62749  0.89856  0.39735  1.0000
  S   S77       1.0  0.56232  0.85727  0.42923  1.0000
  Fe  Fe39      1.0  0.57181  0.92052  0.45821  1.0000
  S   S78       1.0  0.51351  0.93294  0.45759  1.0000
  Fe  Fe40      1.0  0.60205  0.85481  0.48494  1.0000
  S   S79       1.0  0.57731  0.78888  0.51843  1.0000
  C   C226      1.0  0.84202  0.57677  0.43827  1.0000
  S   S80       1.0  0.66671  0.89237  0.45138  1.0000
  Fe  Fe41      1.0  0.68575  0.64594  0.59024  1.0000
  S   S81       1.0  0.66682  0.58743  0.54730  1.0000
  S   S82       1.0  0.70604  0.71482  0.56578  1.0000
  C   C227      1.0  0.95534  0.50552  0.54764  1.0000
  S   S83       1.0  0.67092  0.53563  0.63407  1.0000
  Fe  Fe42      1.0  0.71830  0.57966  0.58401  1.0000
  S   S84       1.0  0.77058  0.56469  0.56009  1.0000
  Fe  Fe43      1.0  0.62087  0.54834  0.60091  1.0000
  C   C228      1.0  0.62253  0.66542  0.47054  1.0000
  S   S85       1.0  0.74057  0.64060  0.62256  1.0000
  S   S86       1.0  0.63691  0.60756  0.64169  1.0000
  C   C229      1.0  0.52145  0.51330  0.52471  1.0000
  N   N20       1.0  0.80620  0.73563  0.65717  1.0000
  C   C230      1.0  0.82078  0.60978  0.54298  1.0000
  C   C231      1.0  0.85927  0.60657  0.54353  1.0000
  C   C232      1.0  0.89822  0.63950  0.52460  1.0000
  C   C233      1.0  0.89895  0.67609  0.50551  1.0000
  C   C234      1.0  0.86100  0.68013  0.50663  1.0000
  C   C235      1.0  0.82204  0.64714  0.52530  1.0000
  H   H224      1.0  0.85867  0.57802  0.55770  1.0000
  H   H225      1.0  0.92749  0.63639  0.52435  1.0000
  H   H226      1.0  0.86144  0.70841  0.49191  1.0000
  H   H227      1.0  0.79255  0.64988  0.52462  1.0000
  H   H228      1.0  0.79954  0.76180  0.59757  1.0000
  N   N21       1.0  0.62030  0.72761  0.44026  1.0000
  N   N22       1.0  0.83687  0.51873  0.48352  1.0000
  H   H229      1.0  0.55468  0.54046  0.52156  1.0000
  C   C236      1.0  0.61384  0.77003  0.53465  1.0000
  C   C237      1.0  0.65915  0.79518  0.52768  1.0000
  C   C238      1.0  0.68696  0.77809  0.53825  1.0000
  C   C239      1.0  0.66987  0.73579  0.55603  1.0000
  C   C240      1.0  0.62467  0.71098  0.56397  1.0000
  C   C241      1.0  0.59682  0.72806  0.55328  1.0000
  H   H230      1.0  0.67281  0.82769  0.51381  1.0000
  H   H231      1.0  0.72190  0.79766  0.53221  1.0000
  H   H232      1.0  0.61108  0.67842  0.57779  1.0000
  H   H233      1.0  0.56182  0.70840  0.55897  1.0000
  C   C242      1.0  0.64307  0.77164  0.42099  1.0000
  H   H234      1.0  0.62529  0.78999  0.42750  1.0000
  H   H235      1.0  0.51847  0.88305  0.60909  1.0000
  Fe  Fe44      1.0  0.69066  0.59764  0.67058  1.0000
  H   H236      1.0  0.67934  0.72479  0.44965  1.0000
  C   C243      1.0  0.84738  0.74043  0.59421  1.0000
  C   C244      1.0  0.87819  0.52809  0.47157  1.0000
  H   H237      1.0  0.85457  0.74895  0.56071  1.0000
  C   C245      1.0  0.57549  0.70607  0.44440  1.0000
  C   C246      1.0  0.81820  0.54169  0.46633  1.0000
  C   C247      1.0  0.88471  0.58751  0.42702  1.0000
  S   S87       1.0  0.63425  0.96250  0.42167  1.0000
  H   H238      1.0  0.56007  0.61103  0.48999  1.0000
  C   C248      1.0  0.48573  0.81837  0.52067  1.0000
  S   S88       1.0  0.94621  0.71745  0.47978  1.0000
  C   C249      1.0  0.85829  0.70970  0.65921  1.0000
  H   H239      1.0  0.82804  0.59645  0.42653  1.0000
  H   H240      1.0  0.90379  0.61532  0.40608  1.0000
  H   H241      1.0  0.51770  0.64709  0.46613  1.0000
  C   C250      1.0  0.64378  0.70764  0.45255  1.0000
  C   C251      1.0  0.86811  0.72092  0.61624  1.0000
  H   H242      1.0  0.79251  0.49243  0.53583  1.0000
  H   H243      1.0  0.93605  0.57074  0.43473  1.0000
  C   C252      1.0  0.57691  0.64345  0.47539  1.0000
  H   H244      1.0  0.64152  0.65044  0.48172  1.0000
  C   C253      1.0  0.50428  0.96902  0.49039  1.0000
  H   H245      1.0  0.78547  0.53436  0.47592  1.0000
  H   H246      1.0  0.55691  0.72203  0.43493  1.0000
  C   C254      1.0  0.81646  0.74780  0.61532  1.0000
  H   H247      1.0  0.94325  0.51154  0.57716  1.0000
  H   H248      1.0  0.89256  0.50910  0.48424  1.0000
  C   C255      1.0  0.90286  0.56277  0.44337  1.0000
  C   C256      1.0  0.55314  0.66375  0.46211  1.0000
  H   H249      1.0  0.74832  0.74172  0.65484  1.0000
  H   H250      1.0  0.49772  0.52929  0.46728  1.0000
  H   H251      1.0  0.67666  0.79170  0.43466  1.0000
  H   H252      1.0  0.64564  0.76894  0.38589  1.0000
  H   H253      1.0  0.89142  0.71415  0.59983  1.0000
  H   H254      1.0  0.53282  0.82929  0.57039  1.0000
  H   H255      1.0  0.49261  0.79568  0.50323  1.0000
  C   C257      1.0  0.50038  0.86748  0.58010  1.0000
  S   S89       1.0  0.55095  0.48975  0.59732  1.0000
  H   H256      1.0  0.55547  0.98203  0.53594  1.0000
  C   C258      1.0  0.77232  0.74170  0.67840  1.0000
  C   C259      1.0  0.50843  0.83737  0.55845  1.0000
  C   C260      1.0  0.48911  0.50693  0.49409  1.0000
  H   H257      1.0  0.87395  0.69421  0.67660  1.0000
  C   C261      1.0  0.82732  0.71767  0.67942  1.0000
  C   C262      1.0  0.97787  0.54037  0.51842  1.0000
  H   H258      1.0  0.59262  0.79920  0.35150  1.0000
  S   S90       1.0  0.70298  0.60273  0.74241  1.0000
  H   H259      1.0  0.74693  0.98482  0.82430  1.0000
  Fe  Fe45      1.0  0.89080  0.62485  0.90140  1.0000
  S   S91       1.0  0.84877  0.56016  0.93413  1.0000
  S   S92       1.0  0.88157  0.63372  0.83042  1.0000
  Fe  Fe46      1.0  0.84858  0.60139  0.98905  1.0000
  H   H260      1.0  0.81193  0.66665  0.98365  1.0000
  Fe  Fe47      1.0  0.91201  0.56846  0.96237  1.0000
  H   H261      1.0  0.70416  0.63687  0.93857  1.0000
  S   S93       1.0  0.88726  0.66573  0.95480  1.0000
  H   H262      1.0  0.85360  0.53660  0.83963  1.0000
  H   H263      1.0  0.52959  0.51925  0.93252  1.0000
  H   H264      1.0  0.90949  0.50333  0.86699  1.0000
  C   C263      1.0  0.75247  0.61008  0.76624  1.0000
  C   C264      1.0  0.78852  0.61659  0.74167  1.0000
  C   C265      1.0  0.82773  0.62375  0.76180  1.0000
  C   C266      1.0  0.83118  0.62384  0.80664  1.0000
  C   C267      1.0  0.79493  0.61670  0.83118  1.0000
  C   C268      1.0  0.75593  0.61016  0.81105  1.0000
  H   H265      1.0  0.57748  0.51447  0.79725  1.0000
  H   H266      1.0  0.85548  0.62904  0.74251  1.0000
  H   H267      1.0  0.79713  0.61680  0.86567  1.0000
  H   H268      1.0  0.72830  0.60520  0.83034  1.0000
  H   H269      1.0  0.86596  0.54897  0.78416  1.0000
  H   H270      1.0  0.70129  0.56520  0.95128  1.0000
  C   C269      1.0  0.96006  0.50068  0.99294  1.0000
  H   H271      1.0  0.61812  0.93730  0.99238  1.0000
  C   C270      1.0  0.56961  0.49702  0.71343  1.0000
  C   C271      1.0  0.51427  0.50996  0.96357  1.0000
  C   C272      1.0  0.67220  0.92461  0.99147  1.0000
  H   H272      1.0  0.54564  0.57706  0.98679  1.0000
  C   C273      1.0  0.65634  0.62571  0.98713  1.0000
  H   H273      1.0  0.81919  0.70802  0.71261  1.0000
  Fe  Fe48      1.0  0.94674  0.66547  0.98235  1.0000
  S   S94       1.0  0.95467  0.63080  0.92562  1.0000
  C   C274      1.0  0.62865  0.91368  0.99941  1.0000
  H   H274      1.0  0.55506  0.51522  0.69722  1.0000
  C   C275      1.0  0.68048  0.57397  0.96953  1.0000
  H   H275      1.0  0.57028  0.97037  0.96959  1.0000
  S   S95       1.0  0.92537  0.51083  0.95865  1.0000
  C   C276      1.0  0.87200  0.53326  0.81241  1.0000
  C   C277      1.0  0.52379  0.54283  0.99446  1.0000
  H   H276      1.0  0.65822  0.65739  0.98257  1.0000
  C   C278      1.0  0.77515  0.69333  0.01377  1.0000
  H   H277      1.0  0.78618  0.61613  0.70718  1.0000
  C   C279      1.0  0.59875  0.87192  0.01611  1.0000
  N   N23       1.0  0.91893  0.55426  0.82330  1.0000
  H   H278      1.0  0.60285  0.52131  0.72578  1.0000
  H   H279      1.0  0.93705  0.61062  0.78387  1.0000
  C   C280      1.0  0.54607  0.94614  0.94667  1.0000
  H   H280      1.0  0.54807  0.96485  0.91714  1.0000
  H   H281      1.0  0.78938  0.72270  0.99415  1.0000
  H   H282      1.0  0.65193  0.51464  0.00685  1.0000
  C   C281      1.0  0.68213  0.61418  0.96244  1.0000
  C   C282      1.0  0.93285  0.53439  0.85232  1.0000
  C   C283      1.0  0.94819  0.59423  0.80606  1.0000
  S   S96       1.0  0.71035  0.97562  0.96830  1.0000
  H   H283      1.0  0.55573  0.92115  0.93875  1.0000
  H   H284      1.0  0.72175  0.98471  0.87469  1.0000
  C   C284      1.0  0.65285  0.54573  0.00134  1.0000
  C   C285      1.0  0.78826  0.66171  0.00798  1.0000
  H   H285      1.0  0.71947  0.90216  0.99533  1.0000
  N   N24       1.0  0.50191  0.92487  0.96531  1.0000
  C   C286      1.0  0.68581  0.89392  0.00126  1.0000
  H   H286      1.0  0.75291  0.71407  0.70093  1.0000
  H   H287      1.0  0.85861  0.49780  0.80516  1.0000
  H   H288      1.0  0.78784  0.77328  0.69619  1.0000
  C   C287      1.0  0.97718  0.55429  0.86444  1.0000
  C   C288      1.0  0.49489  0.90328  0.00349  1.0000
