data_image0
_chemical_formula_structural       CSHFeH4FeCSCHS2HC2HCSCHC2HC2HSC4H3FeCNH2FeH2CS2FeCSFeH2CS2NCHCFeC2SHC3H3C2SCH2SHCSCH3FeNHCHNSH2CHCFeHC5SCHFeS2FeSCFeSFeHS2FeS2FeC2HS2FeCFeS2FeHS2C2HCH3SC6H4C6H2NSCSCH6C2FeH2C2N2C2HCH2C2HCH2CHCH2S3HSCNC2SFeSCSCSFeHFeSHC6H5SH3C2HC2HFeC2HSH3NH2SHCNC3HCHCHC2FeHC3H2CHC2HNSFeSC2HCH2CH3CH2C4HC5SCH3CHCH2SFeC3HSC6H4C2H2C2NFeCHCSNHFeCHCH3CSHCHCH2SH2CH4FeCSCSHCH3SH4C2H2C3NC2H2SH2FeHCFeCSH2SHCSCS2C6H4CH2SFeCHCHC2H2CH2C4HSCH2N2CHCH2CHFeHC3H2CHSC2HFeH4NHC2SCH2CSCHC4SCNHC2HCH4C2H2CSH3CHCFeHCHCH2FeH5CSHFeS2FeSHFeSFeS3CS2C6H5C6H3CHC2SH2CNCH2CNCHCHCSH4C2H2C2H4SFeNC2HC2HFeH4C3H2CHCH3CFeSHSFeS2FeS2FeSFeHS2HCHC6H3C6H3C3H4C2H2SH5C2NCH2C2H2CFeC3HC2SC2HCHCHC2HC2HSH2NHC2HCHC3HCHCHCH2C3HSH2N
_chemical_formula_sum              "C288 S96 H288 Fe48 N24"
_cell_length_a       35.5527
_cell_length_b       35.5998
_cell_length_c       40.8509
_cell_angle_alpha    89.8928
_cell_angle_beta     90.214
_cell_angle_gamma    120.565

_space_group_name_H-M_alt    "P 1"
_space_group_IT_number       1

loop_
  _space_group_symop_operation_xyz
  'x, y, z'

loop_
  _atom_site_type_symbol
  _atom_site_label
  _atom_site_symmetry_multiplicity
  _atom_site_fract_x
  _atom_site_fract_y
  _atom_site_fract_z
  _atom_site_occupancy
  C   C1        1.0  0.41462  0.23626  0.33053  1.0000
  S   S1        1.0  0.37395  0.37886  0.31372  1.0000
  H   H1        1.0  0.42882  0.30412  0.28570  1.0000
  Fe  Fe1       1.0  0.44218  0.42868  0.32951  1.0000
  H   H2        1.0  0.33839  0.12251  0.29119  1.0000
  H   H3        1.0  0.05748  0.48473  0.09405  1.0000
  H   H4        1.0  0.46266  0.21616  0.33208  1.0000
  H   H5        1.0  0.12474  0.32142  0.33267  1.0000
  Fe  Fe2       1.0  0.39780  0.06023  0.28513  1.0000
  C   C2        1.0  0.47326  0.99540  0.12813  1.0000
  S   S2        1.0  0.42375  0.13004  0.30469  1.0000
  C   C3        1.0  0.43051  0.32774  0.26811  1.0000
  H   H6        1.0  0.36167  0.28970  0.25703  1.0000
  S   S3        1.0  0.45054  0.04370  0.27490  1.0000
  S   S4        1.0  0.35924  0.02521  0.23990  1.0000
  H   H7        1.0  0.04596  0.46040  0.03596  1.0000
  C   C4        1.0  0.02510  0.48768  0.32962  1.0000
  C   C5        1.0  0.34484  0.18355  0.30739  1.0000
  H   H8        1.0  0.05104  0.31888  0.02411  1.0000
  C   C6        1.0  0.43399  0.38732  0.22266  1.0000
  S   S5        1.0  0.35860  0.00143  0.31726  1.0000
  C   C7        1.0  0.42966  0.20685  0.32511  1.0000
  H   H9        1.0  0.01566  0.46419  0.17925  1.0000
  C   C8        1.0  0.03591  0.48278  0.04426  1.0000
  C   C9        1.0  0.00500  0.47728  0.19962  1.0000
  H   H10       1.0  0.00822  0.46287  0.22287  1.0000
  C   C10       1.0  0.40246  0.16552  0.31088  1.0000
  C   C11       1.0  0.35982  0.15406  0.30211  1.0000
  H   H11       1.0  0.36468  0.34359  0.21648  1.0000
  S   S6        1.0  0.35145  0.26112  0.32677  1.0000
  C   C12       1.0  0.47291  0.00923  0.16035  1.0000
  C   C13       1.0  0.39415  0.34949  0.22903  1.0000
  C   C14       1.0  0.39240  0.31929  0.25170  1.0000
  C   C15       1.0  0.37203  0.22485  0.32162  1.0000
  H   H12       1.0  0.43590  0.41113  0.20507  1.0000
  H   H13       1.0  0.44612  0.47930  0.25473  1.0000
  H   H14       1.0  0.31183  0.17420  0.30038  1.0000
  Fe  Fe3       1.0  0.40875  0.00409  0.23220  1.0000
  C   C16       1.0  0.47149  0.39456  0.23942  1.0000
  N   N1        1.0  0.46918  0.36542  0.26236  1.0000
  H   H15       1.0  0.19204  0.31740  0.32829  1.0000
  H   H16       1.0  0.43595  0.26764  0.34170  1.0000
  Fe  Fe4       1.0  0.42311  0.40050  0.40087  1.0000
  H   H17       1.0  0.17910  0.27662  0.42768  1.0000
  H   H18       1.0  0.08229  0.45182  0.61497  1.0000
  C   C17       1.0  0.13581  0.31038  0.35334  1.0000
  S   S7        1.0  0.29106  0.40646  0.35334  1.0000
  S   S8        1.0  0.35336  0.34748  0.39064  1.0000
  Fe  Fe5       1.0  0.07820  0.38876  0.44082  1.0000
  C   C18       1.0  0.21934  0.41264  0.37051  1.0000
  S   S9        1.0  0.13965  0.38425  0.45051  1.0000
  Fe  Fe6       1.0  0.01822  0.41776  0.47307  1.0000
  H   H19       1.0  0.45226  0.07619  0.34845  1.0000
  H   H20       1.0  0.38605  0.00001  0.65474  1.0000
  C   C19       1.0  0.01538  0.48736  0.53975  1.0000
  S   S10       1.0  0.02203  0.35652  0.47650  1.0000
  S   S11       1.0  0.07806  0.45198  0.44115  1.0000
  N   N2        1.0  0.44587  0.06055  0.39899  1.0000
  C   C20       1.0  0.22894  0.29371  0.37505  1.0000
  H   H21       1.0  0.16019  0.41339  0.38193  1.0000
  C   C21       1.0  0.11334  0.30042  0.38298  1.0000
  Fe  Fe7       1.0  0.03068  0.42286  0.39876  1.0000
  C   C22       1.0  0.17383  0.30798  0.35103  1.0000
  C   C23       1.0  0.11320  0.42427  0.52460  1.0000
  S   S12       1.0  0.41925  0.45210  0.37199  1.0000
  H   H22       1.0  0.10900  0.39405  0.51477  1.0000
  C   C24       1.0  0.18386  0.39494  0.42391  1.0000
  C   C25       1.0  0.21738  0.38824  0.43555  1.0000
  C   C26       1.0  0.25129  0.39309  0.41475  1.0000
  H   H23       1.0  0.38982  0.99994  0.38551  1.0000
  H   H24       1.0  0.21678  0.37859  0.46076  1.0000
  H   H25       1.0  0.27640  0.38727  0.42406  1.0000
  C   C27       1.0  0.16673  0.28547  0.40654  1.0000
  C   C28       1.0  0.44094  0.08406  0.37138  1.0000
  S   S13       1.0  0.00013  0.43616  0.52171  1.0000
  C   C29       1.0  0.08884  0.42376  0.55159  1.0000
  H   H26       1.0  0.16086  0.46447  0.48853  1.0000
  H   H27       1.0  0.45993  0.12000  0.37485  1.0000
  S   S14       1.0  0.45767  0.41242  0.45007  1.0000
  H   H28       1.0  0.24789  0.31034  0.35266  1.0000
  C   C30       1.0  0.25215  0.40470  0.38187  1.0000
  S   S15       1.0  0.03341  0.36084  0.39753  1.0000
  C   C31       1.0  0.18547  0.40784  0.39131  1.0000
  H   H29       1.0  0.06534  0.39270  0.56237  1.0000
  H   H30       1.0  0.21969  0.42189  0.34522  1.0000
  H   H31       1.0  0.08482  0.30383  0.38556  1.0000
  Fe  Fe8       1.0  0.35087  0.39804  0.35903  1.0000
  N   N3        1.0  0.09401  0.46182  0.56391  1.0000
  H   H32       1.0  0.07147  0.49211  0.59771  1.0000
  C   C32       1.0  0.12876  0.28776  0.40975  1.0000
  H   H33       1.0  0.11230  0.28148  0.43318  1.0000
  N   N4        1.0  0.18895  0.29594  0.37754  1.0000
  S   S16       1.0  0.44986  0.37968  0.35933  1.0000
  H   H34       1.0  0.03425  0.43563  0.58986  1.0000
  H   H35       1.0  0.22084  0.25920  0.37455  1.0000
  C   C33       1.0  0.06947  0.46033  0.59315  1.0000
  H   H36       1.0  0.25094  0.31074  0.39613  1.0000
  C   C34       1.0  0.48585  0.46424  0.46937  1.0000
  Fe  Fe9       1.0  0.38037  0.33113  0.34636  1.0000
  H   H37       1.0  0.40623  0.07488  0.36810  1.0000
  C   C35       1.0  0.48746  0.05858  0.44483  1.0000
  C   C36       1.0  0.48116  0.08138  0.41950  1.0000
  C   C37       1.0  0.14242  0.46392  0.50987  1.0000
  C   C38       1.0  0.41656  0.01699  0.40274  1.0000
  C   C39       1.0  0.45759  0.01420  0.44891  1.0000
  S   S17       1.0  0.04819  0.46031  0.35027  1.0000
  C   C40       1.0  0.99518  0.48799  0.56916  1.0000
  H   H38       1.0  0.46317  0.99577  0.46752  1.0000
  Fe  Fe10      1.0  0.41102  0.36039  0.84451  1.0000
  S   S18       1.0  0.36868  0.37024  0.80870  1.0000
  S   S19       1.0  0.43543  0.31199  0.83842  1.0000
  Fe  Fe11      1.0  0.42876  0.44075  0.88489  1.0000
  S   S20       1.0  0.38832  0.45632  0.85087  1.0000
  C   C41       1.0  0.32596  0.06672  0.86694  1.0000
  Fe  Fe12      1.0  0.33923  0.38479  0.85242  1.0000
  S   S21       1.0  0.26555  0.35986  0.85145  1.0000
  Fe  Fe13      1.0  0.42072  0.44131  0.80988  1.0000
  H   H39       1.0  0.37272  0.13204  0.85263  1.0000
  S   S22       1.0  0.37765  0.36919  0.88852  1.0000
  S   S23       1.0  0.46513  0.43147  0.84352  1.0000
  Fe  Fe14      1.0  0.08503  0.40305  0.93241  1.0000
  S   S24       1.0  0.04175  0.36386  0.89097  1.0000
  S   S25       1.0  0.15218  0.41113  0.94253  1.0000
  Fe  Fe15      1.0  0.02277  0.43577  0.95230  1.0000
  C   C42       1.0  0.09116  0.31683  0.98587  1.0000
  C   C43       1.0  0.09168  0.29803  0.95608  1.0000
  H   H40       1.0  0.31882  0.17366  0.78972  1.0000
  S   S26       1.0  0.02954  0.37898  0.96887  1.0000
  S   S27       1.0  0.08198  0.46297  0.91993  1.0000
  Fe  Fe16      1.0  0.44116  0.05039  0.73044  1.0000
  C   C44       1.0  0.05248  0.26618  0.94209  1.0000
  Fe  Fe17      1.0  0.38634  0.07604  0.77319  1.0000
  S   S28       1.0  0.37288  0.02334  0.80984  1.0000
  S   S29       1.0  0.35574  0.11896  0.77998  1.0000
  Fe  Fe18      1.0  0.44435  0.04571  0.80544  1.0000
  H   H41       1.0  0.47237  0.25787  0.82757  1.0000
  S   S30       1.0  0.45802  0.10030  0.77036  1.0000
  S   S31       1.0  0.36973  0.02987  0.73034  1.0000
  C   C45       1.0  0.35560  0.02740  0.89448  1.0000
  C   C46       1.0  0.36816  0.10291  0.86467  1.0000
  H   H42       1.0  0.34804  0.24805  0.81298  1.0000
  C   C47       1.0  0.05126  0.30321  0.00142  1.0000
  H   H43       1.0  0.12368  0.42003  0.83927  1.0000
  H   H44       1.0  0.12243  0.30885  0.94361  1.0000
  H   H45       1.0  0.47110  0.13825  0.88926  1.0000
  S   S32       1.0  0.05529  0.45292  0.82902  1.0000
  C   C48       1.0  0.23419  0.37278  0.87815  1.0000
  C   C49       1.0  0.19007  0.35752  0.87043  1.0000
  C   C50       1.0  0.16452  0.36889  0.88978  1.0000
  C   C51       1.0  0.18267  0.39528  0.91746  1.0000
  C   C52       1.0  0.22646  0.40971  0.92562  1.0000
  C   C53       1.0  0.25218  0.39880  0.90602  1.0000
  H   H46       1.0  0.17577  0.33721  0.84903  1.0000
  H   H47       1.0  0.13083  0.35719  0.88326  1.0000
  H   H48       1.0  0.24081  0.42984  0.94710  1.0000
  H   H49       1.0  0.28595  0.41060  0.91242  1.0000
  C   C54       1.0  0.41216  0.25818  0.82218  1.0000
  C   C55       1.0  0.43878  0.23958  0.81931  1.0000
  C   C56       1.0  0.42248  0.19762  0.80571  1.0000
  C   C57       1.0  0.37905  0.17339  0.79505  1.0000
  C   C58       1.0  0.35251  0.19210  0.79773  1.0000
  C   C59       1.0  0.36894  0.23425  0.81106  1.0000
  H   H50       1.0  0.12147  0.34277  0.99625  1.0000
  H   H51       1.0  0.44344  0.18393  0.80364  1.0000
  N   N5        1.0  0.19349  0.45332  0.84325  1.0000
  S   S33       1.0  0.43543  0.47833  0.76147  1.0000
  C   C60       1.0  0.27332  0.45969  0.83039  1.0000
  S   S34       1.0  0.00813  0.48242  0.98024  1.0000
  C   C61       1.0  0.31969  0.02872  0.88195  1.0000
  H   H52       1.0  0.29860  0.06800  0.85629  1.0000
  H   H53       1.0  0.17049  0.41464  0.79990  1.0000
  H   H54       1.0  0.36984  0.26296  0.73237  1.0000
  H   H55       1.0  0.24102  0.41872  0.78879  1.0000
  H   H56       1.0  0.30384  0.46041  0.82619  1.0000
  H   H57       1.0  0.15089  0.47869  0.84020  1.0000
  C   C62       1.0  0.15144  0.44994  0.85021  1.0000
  C   C63       1.0  0.44878  0.38570  0.74748  1.0000
  Fe  Fe19      1.0  0.03581  0.42270  0.87991  1.0000
  H   H58       1.0  0.42527  0.06238  0.90044  1.0000
  H   H59       1.0  0.45845  0.13655  0.84648  1.0000
  C   C64       1.0  0.40905  0.37225  0.73152  1.0000
  C   C65       1.0  0.19804  0.43353  0.81609  1.0000
  N   N6        1.0  0.40323  0.10127  0.87674  1.0000
  N   N7        1.0  0.45977  0.35586  0.75751  1.0000
  C   C66       1.0  0.44738  0.13842  0.87153  1.0000
  C   C67       1.0  0.39200  0.29764  0.73610  1.0000
  H   H60       1.0  0.34898  0.31696  0.71444  1.0000
  C   C68       1.0  0.39741  0.06414  0.89151  1.0000
  H   H61       1.0  0.40032  0.39621  0.72418  1.0000
  H   H62       1.0  0.44102  0.28861  0.75929  1.0000
  C   C69       1.0  0.23788  0.43607  0.80943  1.0000
  C   C70       1.0  0.03729  0.48562  0.80948  1.0000
  H   H63       1.0  0.44813  0.16986  0.87426  1.0000
  C   C71       1.0  0.22829  0.47713  0.86367  1.0000
  H   H64       1.0  0.14539  0.44790  0.87702  1.0000
  H   H65       1.0  0.28723  0.00011  0.88326  1.0000
  C   C72       1.0  0.43231  0.31235  0.75153  1.0000
  H   H66       1.0  0.35135  0.99777  0.90555  1.0000
  C   C73       1.0  0.38033  0.32787  0.72610  1.0000
  H   H67       1.0  0.47049  0.42013  0.75223  1.0000
  H   H68       1.0  0.05245  0.25215  0.91853  1.0000
  S   S35       1.0  0.43316  0.99767  0.76517  1.0000
  S   S36       1.0  0.45206  0.48354  0.93077  1.0000
  S   S37       1.0  0.47471  0.06761  0.68046  1.0000
  H   H69       1.0  0.22446  0.49217  0.88551  1.0000
  S   S38       1.0  0.48504  0.06801  0.85252  1.0000
  C   C74       1.0  0.26868  0.48062  0.85759  1.0000
  N   N8        1.0  0.01297  0.27146  0.98779  1.0000
  C   C75       1.0  0.01317  0.25319  0.95837  1.0000
  C   C76       1.0  0.00427  0.49120  0.82276  1.0000
  S   S39       1.0  0.37149  0.94256  0.26184  1.0000
  Fe  Fe20      1.0  0.32387  0.96475  0.27125  1.0000
  S   S40       1.0  0.24928  0.92031  0.26800  1.0000
  C   C77       1.0  0.24719  0.87044  0.15551  1.0000
  S   S41       1.0  0.05972  0.61709  0.20354  1.0000
  C   C78       1.0  0.04315  0.50794  0.29946  1.0000
  S   S42       1.0  0.03003  0.65316  0.14022  1.0000
  Fe  Fe21      1.0  0.02321  0.58957  0.15628  1.0000
  H   H70       1.0  0.11232  0.58699  0.33035  1.0000
  Fe  Fe22      1.0  0.06297  0.67990  0.18939  1.0000
  S   S43       1.0  0.13372  0.73772  0.19409  1.0000
  H   H71       1.0  0.19236  0.91743  0.18663  1.0000
  C   C79       1.0  0.21746  0.86745  0.25012  1.0000
  C   C80       1.0  0.17161  0.84770  0.24918  1.0000
  C   C81       1.0  0.14521  0.80731  0.23322  1.0000
  C   C82       1.0  0.16442  0.78614  0.21782  1.0000
  C   C83       1.0  0.21016  0.80533  0.21947  1.0000
  C   C84       1.0  0.23653  0.84560  0.23556  1.0000
  H   H72       1.0  0.15644  0.86422  0.26038  1.0000
  H   H73       1.0  0.11018  0.79332  0.23203  1.0000
  H   H74       1.0  0.22545  0.78928  0.20774  1.0000
  H   H75       1.0  0.27165  0.86014  0.23618  1.0000
  H   H76       1.0  0.34356  0.89829  0.17925  1.0000
  S   S44       1.0  0.99946  0.66226  0.21493  1.0000
  H   H77       1.0  0.32997  0.96507  0.18407  1.0000
  H   H78       1.0  0.07006  0.50576  0.28932  1.0000
  H   H79       1.0  0.44266  0.97521  0.11547  1.0000
  C   C85       1.0  0.05841  0.63860  0.31815  1.0000
  C   C86       1.0  0.02983  0.52606  0.08842  1.0000
  H   H80       1.0  0.00057  0.56384  0.07461  1.0000
  C   C87       1.0  0.05493  0.66679  0.29608  1.0000
  C   C88       1.0  0.29682  0.94000  0.17797  1.0000
  H   H81       1.0  0.15189  0.70495  0.25715  1.0000
  Fe  Fe23      1.0  0.99527  0.59800  0.22591  1.0000
  C   C89       1.0  0.26226  0.94625  0.18625  1.0000
  C   C90       1.0  0.21951  0.91375  0.17902  1.0000
  H   H82       1.0  0.26848  0.97532  0.19944  1.0000
  S   S45       1.0  0.42196  0.99253  0.17944  1.0000
  H   H83       1.0  0.24068  0.84006  0.14440  1.0000
  H   H84       1.0  0.17862  0.84954  0.15860  1.0000
  H   H85       1.0  0.31560  0.86427  0.14449  1.0000
  N   N9        1.0  0.09443  0.63411  0.31805  1.0000
  H   H86       1.0  0.34942  0.92255  0.13952  1.0000
  H   H87       1.0  0.04163  0.54723  0.25958  1.0000
  S   S46       1.0  0.03858  0.54214  0.13025  1.0000
  H   H88       1.0  0.08652  0.71282  0.25685  1.0000
  C   C91       1.0  0.08886  0.69097  0.27420  1.0000
  N   N10       1.0  0.28900  0.90231  0.16311  1.0000
  C   C92       1.0  0.12560  0.68649  0.27441  1.0000
  C   C93       1.0  0.01044  0.54128  0.06636  1.0000
  C   C94       1.0  0.21183  0.87569  0.16332  1.0000
  H   H89       1.0  0.02563  0.66908  0.29553  1.0000
  C   C95       1.0  0.02710  0.53144  0.28254  1.0000
  H   H90       1.0  0.15659  0.65447  0.29670  1.0000
  C   C96       1.0  0.32600  0.89627  0.15611  1.0000
  H   H91       1.0  0.47582  0.64400  0.13940  1.0000
  C   C97       1.0  0.12792  0.65779  0.29669  1.0000
  C   C98       1.0  0.04237  0.49664  0.07721  1.0000
  Fe  Fe24      1.0  0.40948  0.98382  0.30525  1.0000
  H   H92       1.0  0.03148  0.61946  0.33471  1.0000
  C   C99       1.0  0.99237  0.53445  0.29546  1.0000
  C   C100      1.0  0.00398  0.52743  0.03342  1.0000
  C   C101      1.0  0.48710  0.51767  0.21434  1.0000
  H   H93       1.0  0.47995  0.60574  0.16579  1.0000
  H   H94       1.0  0.46010  0.51521  0.20025  1.0000
  C   C102      1.0  0.01672  0.49820  0.02214  1.0000
  H   H95       1.0  0.02748  0.51321  0.20030  1.0000
  C   C103      1.0  0.47905  0.49729  0.24523  1.0000
  C   C104      1.0  0.09829  0.60540  0.34192  1.0000
  H   H96       1.0  0.09777  0.81252  0.63194  1.0000
  N   N11       1.0  0.99767  0.77898  0.66328  1.0000
  S   S47       1.0  0.03746  0.69412  0.64106  1.0000
  Fe  Fe25      1.0  0.04113  0.63266  0.64306  1.0000
  S   S48       1.0  0.06418  0.61664  0.59559  1.0000
  C   C105      1.0  0.04189  0.79630  0.66218  1.0000
  C   C106      1.0  0.04352  0.56648  0.57421  1.0000
  H   H97       1.0  0.26895  0.87391  0.66108  1.0000
  C   C107      1.0  0.48412  0.50000  0.45706  1.0000
  H   H98       1.0  0.30787  0.95012  0.63989  1.0000
  H   H99       1.0  0.16918  0.53349  0.51071  1.0000
  C   C108      1.0  0.30330  0.89568  0.66661  1.0000
  H   H100      1.0  0.06587  0.58059  0.35178  1.0000
  H   H101      1.0  0.39952  0.95831  0.42969  1.0000
  H   H102      1.0  0.46348  0.92345  0.39729  1.0000
  C   C109      1.0  0.04914  0.52668  0.52724  1.0000
  H   H103      1.0  0.99363  0.52717  0.60910  1.0000
  H   H104      1.0  0.06492  0.52673  0.50464  1.0000
  C   C110      1.0  0.06282  0.79994  0.63241  1.0000
  C   C111      1.0  0.48676  0.95792  0.39455  1.0000
  C   C112      1.0  0.32505  0.93845  0.65490  1.0000
  C   C113      1.0  0.00914  0.52727  0.58634  1.0000
  H   H105      1.0  0.08968  0.59620  0.53483  1.0000
  C   C114      1.0  0.06321  0.56596  0.54448  1.0000
  C   C115      1.0  0.99301  0.76798  0.60502  1.0000
  C   C116      1.0  0.48039  0.98161  0.36969  1.0000
  C   C117      1.0  0.12276  0.50095  0.54972  1.0000
  C   C118      1.0  0.03811  0.78538  0.60370  1.0000
  S   S49       1.0  0.43243  0.95481  0.34514  1.0000
  C   C119      1.0  0.36878  0.96640  0.66321  1.0000
  H   H106      1.0  0.05379  0.78681  0.58062  1.0000
  H   H107      1.0  0.11943  0.62489  0.36267  1.0000
  H   H108      1.0  0.46382  0.49597  0.43606  1.0000
  C   C120      1.0  0.42183  0.99321  0.42780  1.0000
  H   H109      1.0  0.12642  0.53111  0.55919  1.0000
  C   C121      1.0  0.14710  0.50255  0.52234  1.0000
  H   H110      1.0  0.38360  0.89830  0.74260  1.0000
  H   H111      1.0  0.30800  0.84887  0.69685  1.0000
  S   S50       1.0  0.31132  0.90576  0.76604  1.0000
  Fe  Fe26      1.0  0.02157  0.62088  0.71595  1.0000
  C   C122      1.0  0.08711  0.61928  0.82554  1.0000
  C   C123      1.0  0.04664  0.53655  0.76542  1.0000
  C   C124      1.0  0.05303  0.61801  0.84325  1.0000
  H   H112      1.0  0.09792  0.63778  0.80289  1.0000
  S   S51       1.0  0.01756  0.68200  0.71841  1.0000
  C   C125      1.0  0.25970  0.87377  0.74612  1.0000
  C   C126      1.0  0.23798  0.82796  0.74877  1.0000
  C   C127      1.0  0.19793  0.80100  0.73242  1.0000
  C   C128      1.0  0.17895  0.81953  0.71314  1.0000
  C   C129      1.0  0.20066  0.86537  0.71053  1.0000
  C   C130      1.0  0.24067  0.89233  0.72692  1.0000
  H   H113      1.0  0.25227  0.81314  0.76355  1.0000
  H   H114      1.0  0.18180  0.76590  0.73471  1.0000
  H   H115      1.0  0.42688  0.91323  0.71329  1.0000
  H   H116      1.0  0.25684  0.92743  0.72458  1.0000
  C   C131      1.0  0.03749  0.59190  0.87128  1.0000
  C   C132      1.0  0.01447  0.54307  0.77925  1.0000
  H   H117      1.0  0.06473  0.54146  0.92561  1.0000
  H   H118      1.0  0.10146  0.54773  0.87107  1.0000
  C   C133      1.0  0.39089  0.89428  0.71682  1.0000
  C   C134      1.0  0.10510  0.59438  0.83588  1.0000
  N   N12       1.0  0.05565  0.56794  0.88145  1.0000
  Fe  Fe27      1.0  0.36201  0.97922  0.76686  1.0000
  C   C135      1.0  0.99298  0.51978  0.80770  1.0000
  H   H119      1.0  0.01011  0.59008  0.88432  1.0000
  C   C136      1.0  0.32565  0.88157  0.68672  1.0000
  S   S52       1.0  0.12885  0.78743  0.69130  1.0000
  N   N13       1.0  0.36861  0.90913  0.69459  1.0000
  H   H120      1.0  0.37977  0.85934  0.71258  1.0000
  Fe  Fe28      1.0  0.07794  0.71390  0.68735  1.0000
  C   C137      1.0  0.05792  0.50789  0.78049  1.0000
  H   H121      1.0  0.06349  0.55431  0.74359  1.0000
  C   C138      1.0  0.39007  0.95116  0.68334  1.0000
  H   H122      1.0  0.06113  0.80656  0.68453  1.0000
  H   H123      1.0  0.01824  0.54798  0.92588  1.0000
  H   H124      1.0  0.18636  0.88019  0.69577  1.0000
  C   C139      1.0  0.03798  0.53924  0.91000  1.0000
  S   S53       1.0  0.08510  0.65446  0.68782  1.0000
  H   H125      1.0  0.13015  0.59355  0.82139  1.0000
  C   C140      1.0  0.08871  0.56854  0.86398  1.0000
  H   H126      1.0  0.45651  0.52285  0.69975  1.0000
  C   C141      1.0  0.48641  0.52630  0.70957  1.0000
  H   H127      1.0  0.47340  0.52426  0.99348  1.0000
  H   H128      1.0  0.03744  0.63554  0.83430  1.0000
  S   S54       1.0  0.00333  0.58336  0.76443  1.0000
  H   H129      1.0  0.01687  0.50484  0.90202  1.0000
  H   H130      1.0  0.42371  0.97340  0.69023  1.0000
  C   C142      1.0  0.48580  0.50781  0.74018  1.0000
  H   H131      1.0  0.08328  0.50354  0.76988  1.0000
  H   H132      1.0  0.47840  0.57695  0.93420  1.0000
  H   H133      1.0  0.99142  0.80619  0.70775  1.0000
  H   H134      1.0  0.29569  0.49789  0.87455  1.0000
  Fe  Fe29      1.0  0.62262  0.03421  0.06012  1.0000
  C   C143      1.0  0.90093  0.45438  0.15870  1.0000
  S   S55       1.0  0.69211  0.04890  0.06085  1.0000
  C   C144      1.0  0.87707  0.45553  0.18536  1.0000
  S   S56       1.0  0.50536  0.47329  0.30188  1.0000
  H   H135      1.0  0.51297  0.04666  0.20102  1.0000
  C   C145      1.0  0.55272  0.03400  0.12805  1.0000
  H   H136      1.0  0.96153  0.46109  0.14286  1.0000
  H   H137      1.0  0.58298  0.06863  0.17272  1.0000
  H   H138      1.0  0.88779  0.44991  0.13407  1.0000
  S   S57       1.0  0.60371  0.04849  0.11005  1.0000
  H   H139      1.0  0.50235  0.42402  0.23435  1.0000
  H   H140      1.0  0.97415  0.25681  0.03087  1.0000
  H   H141      1.0  0.50085  0.35805  0.30427  1.0000
  H   H142      1.0  0.87753  0.46501  0.23761  1.0000
  C   C146      1.0  0.51293  0.00761  0.11204  1.0000
  C   C147      1.0  0.55236  0.04802  0.16018  1.0000
  H   H143      1.0  0.53127  0.40911  0.28361  1.0000
  H   H144      1.0  0.84515  0.45190  0.18161  1.0000
  C   C148      1.0  0.51272  0.03557  0.17633  1.0000
  C   C149      1.0  0.89509  0.46273  0.21674  1.0000
  C   C150      1.0  0.93684  0.46871  0.22099  1.0000
  N   N14       1.0  0.96008  0.46768  0.19474  1.0000
  C   C151      1.0  0.50882  0.37354  0.27966  1.0000
  C   C152      1.0  0.94271  0.46073  0.16385  1.0000
  H   H145      1.0  0.52587  0.36025  0.26525  1.0000
  H   H146      1.0  0.95084  0.47505  0.24536  1.0000
  S   S58       1.0  0.63294  0.07234  0.01359  1.0000
  H   H147      1.0  0.61754  0.00919  0.18250  1.0000
  H   H148      1.0  0.68767  0.02665  0.15720  1.0000
  Fe  Fe30      1.0  0.70127  0.08305  0.01269  1.0000
  H   H149      1.0  0.51272  0.99665  0.08732  1.0000
  C   C153      1.0  0.65750  0.99826  0.14918  1.0000
  Fe  Fe31      1.0  0.70645  0.07128  0.52122  1.0000
  C   C154      1.0  0.76446  0.18742  0.40967  1.0000
  S   S59       1.0  0.76895  0.13822  0.52751  1.0000
  H   H150      1.0  0.81919  0.23247  0.37975  1.0000
  H   H151      1.0  0.50661  0.04463  0.34712  1.0000
  S   S60       1.0  0.64445  0.07305  0.52692  1.0000
  H   H152      1.0  0.60961  0.12714  0.64392  1.0000
  C   C155      1.0  0.70627  0.13784  0.44728  1.0000
  S   S61       1.0  0.91920  0.26324  0.42694  1.0000
  C   C156      1.0  0.54390  0.04500  0.61199  1.0000
  S   S62       1.0  0.59496  0.05230  0.44240  1.0000
  S   S63       1.0  0.68378  0.01511  0.55679  1.0000
  C   C157      1.0  0.81261  0.17099  0.50007  1.0000
  C   C158      1.0  0.84423  0.21372  0.50951  1.0000
  C   C159      1.0  0.87789  0.24192  0.48794  1.0000
  C   C160      1.0  0.88048  0.22771  0.45655  1.0000
  C   C161      1.0  0.84947  0.18461  0.44742  1.0000
  C   C162      1.0  0.81574  0.15645  0.46894  1.0000
  H   H153      1.0  0.84243  0.22537  0.53355  1.0000
  H   H154      1.0  0.90139  0.27490  0.49541  1.0000
  H   H155      1.0  0.85124  0.17311  0.42330  1.0000
  H   H156      1.0  0.79212  0.12358  0.46136  1.0000
  C   C163      1.0  0.56327  0.45300  0.42298  1.0000
  H   H157      1.0  0.96898  0.45775  0.57905  1.0000
  H   H158      1.0  0.56953  0.08134  0.38555  1.0000
  S   S64       1.0  0.97052  0.39314  0.43069  1.0000
  Fe  Fe32      1.0  0.61955  0.01354  0.55857  1.0000
  C   C164      1.0  0.81787  0.26088  0.42584  1.0000
  H   H159      1.0  0.50537  0.11546  0.41574  1.0000
  C   C165      1.0  0.50510  0.04710  0.66085  1.0000
  H   H160      1.0  0.51073  0.08151  0.61595  1.0000
  C   C166      1.0  0.66763  0.08069  0.64847  1.0000
  C   C167      1.0  0.72503  0.10664  0.60822  1.0000
  H   H161      1.0  0.51641  0.07464  0.46021  1.0000
  H   H162      1.0  0.69307  0.11606  0.42557  1.0000
  C   C168      1.0  0.79676  0.25364  0.45589  1.0000
  H   H163      1.0  0.75292  0.16132  0.39183  1.0000
  H   H164      1.0  0.67914  0.14118  0.45740  1.0000
  C   C169      1.0  0.63080  0.12171  0.66101  1.0000
  C   C170      1.0  0.80173  0.22762  0.40255  1.0000
  C   C171      1.0  0.68873  0.14676  0.62011  1.0000
  C   C172      1.0  0.55489  0.01705  0.62786  1.0000
  H   H165      1.0  0.74468  0.20681  0.48625  1.0000
  S   S65       1.0  0.68259  0.02719  0.47731  1.0000
  C   C173      1.0  0.54657  0.04678  0.38808  1.0000
  H   H166      1.0  0.68492  0.17463  0.61543  1.0000
  H   H167      1.0  0.84797  0.29144  0.42121  1.0000
  N   N15       1.0  0.66291  0.11596  0.64266  1.0000
  N   N16       1.0  0.74386  0.18067  0.43919  1.0000
  C   C174      1.0  0.75970  0.21300  0.46226  1.0000
  H   H168      1.0  0.55460  0.05523  0.58711  1.0000
  C   C175      1.0  0.51087  0.02609  0.36628  1.0000
  H   H169      1.0  0.71605  0.12156  0.46582  1.0000
  H   H170      1.0  0.59269  0.45304  0.41401  1.0000
  C   C176      1.0  0.69850  0.07535  0.63119  1.0000
  H   H171      1.0  0.81028  0.27867  0.47465  1.0000
  Fe  Fe33      1.0  0.61942  0.02675  0.48396  1.0000
  H   H172      1.0  0.70097  0.04648  0.63496  1.0000
  C   C177      1.0  0.55224  0.02335  0.41352  1.0000
  C   C178      1.0  0.72017  0.14259  0.60259  1.0000
  C   C179      1.0  0.51907  0.05986  0.62842  1.0000
  H   H173      1.0  0.74039  0.16673  0.58443  1.0000
  H   H174      1.0  0.74883  0.10270  0.59436  1.0000
  C   C180      1.0  0.51213  0.47010  0.49694  1.0000
  H   H175      1.0  0.53359  0.42509  0.41189  1.0000
  S   S66       1.0  0.58787  0.99897  0.60920  1.0000
  C   C181      1.0  0.99046  0.49083  0.34258  1.0000
  C   C182      1.0  0.54069  0.00408  0.66023  1.0000
  H   H176      1.0  0.56006  0.44715  0.44985  1.0000
  Fe  Fe34      1.0  0.97697  0.33335  0.43320  1.0000
  H   H177      1.0  0.51340  0.44254  0.50681  1.0000
  H   H178      1.0  0.97632  0.47544  0.36577  1.0000
  H   H179      1.0  0.64644  0.05555  0.66565  1.0000
  H   H180      1.0  0.52804  0.47051  0.37149  1.0000
  N   N17       1.0  0.56620  0.49461  0.41512  1.0000
  H   H181      1.0  0.63717  0.08389  0.93709  1.0000
  C   C183      1.0  0.86355  0.19238  0.94773  1.0000
  C   C184      1.0  0.66947  0.09668  0.92686  1.0000
  S   S67       1.0  0.75502  0.15468  0.00457  1.0000
  C   C185      1.0  0.67866  0.06849  0.90949  1.0000
  H   H182      1.0  0.56134  0.06007  0.95040  1.0000
  H   H183      1.0  0.67321  0.17996  0.93277  1.0000
  C   C186      1.0  0.52784  0.06296  0.90696  1.0000
  S   S68       1.0  0.93502  0.26957  0.92721  1.0000
  C   C187      1.0  0.50786  0.04322  0.87703  1.0000
  H   H184      1.0  0.76662  0.18948  0.92173  1.0000
  C   C188      1.0  0.82806  0.23140  0.98581  1.0000
  C   C189      1.0  0.50136  0.37113  0.77467  1.0000
  C   C190      1.0  0.54685  0.04492  0.92721  1.0000
  C   C191      1.0  0.75211  0.12818  0.90095  1.0000
  S   S69       1.0  0.68200  0.02165  0.98426  1.0000
  C   C192      1.0  0.80608  0.18553  0.98404  1.0000
  N   N18       1.0  0.70092  0.13946  0.93135  1.0000
  H   H185      1.0  0.96188  0.28368  0.99837  1.0000
  C   C193      1.0  0.88543  0.23828  0.94946  1.0000
  C   C194      1.0  0.86754  0.25762  0.96882  1.0000
  H   H186      1.0  0.88384  0.29281  0.97046  1.0000
  C   C195      1.0  0.82429  0.16613  0.96503  1.0000
  H   H187      1.0  0.66915  0.15140  0.97058  1.0000
  H   H188      1.0  0.50487  0.34353  0.78361  1.0000
  H   H189      1.0  0.53653  0.48845  0.92091  1.0000
  H   H190      1.0  0.87707  0.17696  0.93292  1.0000
  C   C196      1.0  0.74161  0.15555  0.91817  1.0000
  C   C197      1.0  0.72039  0.08432  0.89672  1.0000
  H   H191      1.0  0.98274  0.22898  0.94701  1.0000
  H   H192      1.0  0.65362  0.03440  0.90648  1.0000
  C   C198      1.0  0.69026  0.16852  0.94920  1.0000
  S   S70       1.0  0.97569  0.39877  0.91101  1.0000
  H   H193      1.0  0.80789  0.13095  0.96341  1.0000
  H   H194      1.0  0.72016  0.19713  0.95941  1.0000
  H   H195      1.0  0.78485  0.14089  0.89145  1.0000
  C   C199      1.0  0.97146  0.25908  0.00394  1.0000
  H   H196      1.0  0.52848  0.09235  0.91462  1.0000
  C   C200      1.0  0.51605  0.01909  0.67671  1.0000
  Fe  Fe35      1.0  0.61313  0.00923  0.98779  1.0000
  H   H197      1.0  0.72811  0.06254  0.88375  1.0000
  C   C201      1.0  0.50702  0.00508  0.86756  1.0000
  H   H198      1.0  0.94467  0.22686  0.99522  1.0000
  C   C202      1.0  0.54663  0.00713  0.91751  1.0000
  H   H199      1.0  0.50284  0.39017  0.79669  1.0000
  H   H200      1.0  0.52911  0.39196  0.75825  1.0000
  Fe  Fe36      1.0  0.98534  0.34315  0.92606  1.0000
  H   H201      1.0  0.50602  0.00940  0.70177  1.0000
  H   H202      1.0  0.98765  0.47376  0.84474  1.0000
  H   H203      1.0  0.81435  0.24685  0.00040  1.0000
  H   H204      1.0  0.64767  0.15001  0.67785  1.0000
  H   H205      1.0  0.60884  0.09242  0.67581  1.0000
  C   C203      1.0  0.57942  0.92835  0.12704  1.0000
  S   S71       1.0  0.69441  0.94261  0.05002  1.0000
  H   H206      1.0  0.52437  0.91161  0.18134  1.0000
  Fe  Fe37      1.0  0.69715  0.65820  0.11751  1.0000
  S   S72       1.0  0.65063  0.67639  0.14085  1.0000
  S   S73       1.0  0.76679  0.68657  0.13775  1.0000
  Fe  Fe38      1.0  0.63305  0.60737  0.06266  1.0000
  S   S74       1.0  0.58287  0.62127  0.08216  1.0000
  H   H207      1.0  0.59719  0.56187  0.21043  1.0000
  Fe  Fe39      1.0  0.63730  0.69057  0.08958  1.0000
  S   S75       1.0  0.61388  0.73686  0.07203  1.0000
  Fe  Fe40      1.0  0.59927  0.60613  0.13193  1.0000
  S   S76       1.0  0.53760  0.56614  0.16255  1.0000
  S   S77       1.0  0.68712  0.67742  0.06684  1.0000
  S   S78       1.0  0.64626  0.58706  0.11172  1.0000
  C   C204      1.0  0.65793  0.97241  0.12373  1.0000
  S   S79       1.0  0.90244  0.61885  0.14153  1.0000
  S   S80       1.0  0.95832  0.56612  0.18001  1.0000
  C   C205      1.0  0.80180  0.66462  0.14338  1.0000
  C   C206      1.0  0.84449  0.69201  0.15541  1.0000
  C   C207      1.0  0.87500  0.67772  0.15707  1.0000
  C   C208      1.0  0.86328  0.63576  0.14651  1.0000
  C   C209      1.0  0.82011  0.60786  0.13556  1.0000
  C   C210      1.0  0.78950  0.62203  0.13415  1.0000
  H   H208      1.0  0.85443  0.72498  0.16274  1.0000
  H   H209      1.0  0.90805  0.69977  0.16531  1.0000
  H   H210      1.0  0.81059  0.57536  0.12730  1.0000
  H   H211      1.0  0.75678  0.60035  0.12515  1.0000
  H   H212      1.0  0.86263  0.73013  0.08011  1.0000
  C   C211      1.0  0.67119  0.88519  0.05584  1.0000
  C   C212      1.0  0.69771  0.86957  0.06838  1.0000
  C   C213      1.0  0.68097  0.82450  0.07351  1.0000
  C   C214      1.0  0.63729  0.79428  0.06615  1.0000
  C   C215      1.0  0.61066  0.80989  0.05387  1.0000
  C   C216      1.0  0.62742  0.85494  0.04869  1.0000
  H   H213      1.0  0.70199  0.81326  0.08297  1.0000
  H   H214      1.0  0.54814  0.71042  0.12126  1.0000
  H   H215      1.0  0.78500  0.69012  0.06364  1.0000
  C   C217      1.0  0.52968  0.54103  0.20150  1.0000
  H   H216      1.0  0.60659  0.86621  0.03884  1.0000
  C   C218      1.0  0.56428  0.54403  0.21998  1.0000
  C   C219      1.0  0.59986  0.74114  0.15663  1.0000
  S   S81       1.0  0.59738  0.96957  0.03459  1.0000
  H   H217      1.0  0.61878  0.91758  0.09232  1.0000
  H   H218      1.0  0.62792  0.69071  0.01620  1.0000
  C   C220      1.0  0.87208  0.67599  0.07039  1.0000
  N   N19       1.0  0.78465  0.63161  0.05159  1.0000
  C   C221      1.0  0.80401  0.67416  0.06151  1.0000
  H   H219      1.0  0.90558  0.69257  0.07922  1.0000
  H   H220      1.0  0.60704  0.69230  0.22602  1.0000
  C   C222      1.0  0.53762  0.94259  0.16746  1.0000
  N   N20       1.0  0.53825  0.66840  0.16168  1.0000
  C   C223      1.0  0.73781  0.60748  0.04395  1.0000
  H   H221      1.0  0.50610  0.61816  0.12662  1.0000
  C   C224      1.0  0.61869  0.93724  0.11254  1.0000
  H   H222      1.0  0.68851  0.98014  0.11215  1.0000
  C   C225      1.0  0.55453  0.66316  0.19066  1.0000
  S   S82       1.0  0.62778  0.57177  0.01510  1.0000
  H   H223      1.0  0.51363  0.93918  0.14845  1.0000
  H   H224      1.0  0.73162  0.89256  0.07399  1.0000
  H   H225      1.0  0.53767  0.63237  0.20375  1.0000
  H   H226      1.0  0.79224  0.57641  0.04466  1.0000
  C   C226      1.0  0.80796  0.61063  0.05120  1.0000
  C   C227      1.0  0.84803  0.69706  0.07086  1.0000
  H   H227      1.0  0.72769  0.62866  0.03135  1.0000
  H   H228      1.0  0.87009  0.61545  0.06151  1.0000
  C   C228      1.0  0.85206  0.63255  0.06043  1.0000
  C   C229      1.0  0.97414  0.51405  0.32550  1.0000
  H   H229      1.0  0.54901  0.90142  0.11779  1.0000
  H   H230      1.0  0.64764  0.76233  0.19540  1.0000
  H   H231      1.0  0.72890  0.57940  0.02739  1.0000
  H   H232      1.0  0.57685  0.78696  0.04799  1.0000
  S   S83       1.0  0.97076  0.56325  0.27488  1.0000
  Fe  Fe41      1.0  0.96601  0.63116  0.16681  1.0000
  N   N21       1.0  0.57928  0.95361  0.15218  1.0000
  C   C230      1.0  0.59383  0.69698  0.20341  1.0000
  C   C231      1.0  0.61658  0.73621  0.18623  1.0000
  H   H233      1.0  0.61788  0.77093  0.14243  1.0000
  C   C232      1.0  0.56043  0.70668  0.14466  1.0000
  C   C233      1.0  0.55623  0.52366  0.25088  1.0000
  H   H234      1.0  0.58323  0.52595  0.26487  1.0000
  Fe  Fe42      1.0  0.66742  0.98610  0.03280  1.0000
  H   H235      1.0  0.71868  0.59496  0.06689  1.0000
  H   H236      1.0  0.94722  0.51619  0.33568  1.0000
  H   H237      1.0  0.54109  0.55899  0.02690  1.0000
  H   H238      1.0  0.54119  0.96846  0.18458  1.0000
  C   C234      1.0  0.51364  0.50015  0.26365  1.0000
  C   C235      1.0  0.61766  0.98815  0.16339  1.0000
  C   C236      1.0  0.49795  0.63240  0.14773  1.0000
  H   H239      1.0  0.55600  0.68596  0.01513  1.0000
  H   H240      1.0  0.98905  0.53950  0.01656  1.0000
  C   C237      1.0  0.84734  0.67569  0.65717  1.0000
  H   H241      1.0  0.54918  0.98257  0.67275  1.0000
  C   C238      1.0  0.76417  0.55609  0.63466  1.0000
  H   H242      1.0  0.67145  0.83603  0.49510  1.0000
  H   H243      1.0  0.60557  0.70556  0.54120  1.0000
  H   H244      1.0  0.52535  0.56330  0.66796  1.0000
  C   C239      1.0  0.53611  0.54741  0.49888  1.0000
  Fe  Fe43      1.0  0.97735  0.65836  0.67221  1.0000
  S   S84       1.0  0.58953  0.96681  0.51623  1.0000
  H   H245      1.0  0.97326  0.75587  0.58298  1.0000
  S   S85       1.0  0.65944  0.90928  0.50457  1.0000
  Fe  Fe44      1.0  0.70670  0.65400  0.58724  1.0000
  S   S86       1.0  0.69325  0.68165  0.63199  1.0000
  S   S87       1.0  0.76876  0.65137  0.57681  1.0000
  Fe  Fe45      1.0  0.61431  0.62213  0.55924  1.0000
  S   S88       1.0  0.59458  0.64603  0.60341  1.0000
  S   S89       1.0  0.57012  0.60104  0.51407  1.0000
  Fe  Fe46      1.0  0.66056  0.70702  0.59802  1.0000
  S   S90       1.0  0.66458  0.77310  0.60495  1.0000
  Fe  Fe47      1.0  0.62848  0.61854  0.63325  1.0000
  H   H246      1.0  0.53332  0.54038  0.35759  1.0000
  S   S91       1.0  0.67916  0.68422  0.55299  1.0000
  S   S92       1.0  0.64313  0.58983  0.58930  1.0000
  H   H247      1.0  0.56764  0.68961  0.50756  1.0000
  C   C240      1.0  0.55725  0.77662  0.58403  1.0000
  H   H248      1.0  0.57024  0.75537  0.49345  1.0000
  C   C241      1.0  0.81116  0.65808  0.60394  1.0000
  C   C242      1.0  0.81423  0.67260  0.63618  1.0000
  C   C243      1.0  0.54958  0.53797  0.37938  1.0000
  C   C244      1.0  0.87759  0.66398  0.64639  1.0000
  C   C245      1.0  0.87510  0.65027  0.61399  1.0000
  C   C246      1.0  0.84214  0.64745  0.59292  1.0000
  H   H249      1.0  0.79095  0.68127  0.64494  1.0000
  H   H250      1.0  0.89826  0.64143  0.60522  1.0000
  H   H251      1.0  0.84026  0.63639  0.56799  1.0000
  C   C247      1.0  0.66542  0.87453  0.53312  1.0000
  C   C248      1.0  0.66960  0.83968  0.52123  1.0000
  C   C249      1.0  0.67062  0.80905  0.54275  1.0000
  C   C250      1.0  0.66758  0.81288  0.57661  1.0000
  C   C251      1.0  0.66476  0.84850  0.58854  1.0000
  C   C252      1.0  0.66358  0.87905  0.56702  1.0000
  H   H252      1.0  0.67348  0.78235  0.53310  1.0000
  H   H253      1.0  0.66268  0.85206  0.61466  1.0000
  H   H254      1.0  0.66052  0.90566  0.57665  1.0000
  C   C253      1.0  0.52245  0.97863  0.41638  1.0000
  C   C254      1.0  0.59379  0.57017  0.42763  1.0000
  C   C255      1.0  0.56132  0.74098  0.57494  1.0000
  H   H255      1.0  0.55804  0.51578  0.53240  1.0000
  H   H256      1.0  0.50756  0.56876  0.46198  1.0000
  H   H257      1.0  0.56350  0.72076  0.59393  1.0000
  H   H258      1.0  0.54827  0.66674  0.54719  1.0000
  C   C256      1.0  0.56531  0.76035  0.51887  1.0000
  C   C257      1.0  0.50888  0.54125  0.47190  1.0000
  H   H259      1.0  0.52642  0.96015  0.43575  1.0000
  H   H260      1.0  0.57509  0.60475  0.39420  1.0000
  S   S93       1.0  0.97795  0.59523  0.67132  1.0000
  H   H261      1.0  0.55635  0.83343  0.56664  1.0000
  H   H262      1.0  0.55614  0.78370  0.60970  1.0000
  H   H263      1.0  0.60512  0.52697  0.45715  1.0000
  H   H264      1.0  0.93815  0.75127  0.63598  1.0000
  H   H265      1.0  0.61121  0.59762  0.44422  1.0000
  C   C258      1.0  0.56138  0.79636  0.52709  1.0000
  C   C259      1.0  0.55739  0.80449  0.55990  1.0000
  N   N22       1.0  0.56507  0.73314  0.54270  1.0000
  C   C260      1.0  0.57194  0.69711  0.53416  1.0000
  H   H266      1.0  0.68573  0.58156  0.64828  1.0000
  H   H267      1.0  0.81351  0.56516  0.66983  1.0000
  C   C261      1.0  0.57318  0.57403  0.39976  1.0000
  C   C262      1.0  0.53735  0.51153  0.51156  1.0000
  H   H268      1.0  0.71276  0.55334  0.60465  1.0000
  H   H269      1.0  0.77699  0.54486  0.61536  1.0000
  C   C263      1.0  0.71340  0.57744  0.65321  1.0000
  Fe  Fe48      1.0  0.65495  0.97072  0.51339  1.0000
  C   C264      1.0  0.72813  0.56080  0.62863  1.0000
  C   C265      1.0  0.59002  0.52999  0.43494  1.0000
  C   C266      1.0  0.97326  0.76528  0.63517  1.0000
  H   H270      1.0  0.56380  0.81916  0.50834  1.0000
  C   C267      1.0  0.78466  0.56750  0.66521  1.0000
  C   C268      1.0  0.54659  0.49834  0.38741  1.0000
  S   S94       1.0  0.91755  0.66736  0.67460  1.0000
  C   C269      1.0  0.97673  0.77421  0.69509  1.0000
  C   C270      1.0  0.53346  0.64429  0.97227  1.0000
  H   H271      1.0  0.59359  0.53884  0.74421  1.0000
  C   C271      1.0  0.58319  0.62570  0.94943  1.0000
  H   H272      1.0  0.68736  0.58110  0.71841  1.0000
  C   C272      1.0  0.61416  0.65003  0.97356  1.0000
  H   H273      1.0  0.52583  0.95788  0.88003  1.0000
  C   C273      1.0  0.50196  0.52387  0.98492  1.0000
  C   C274      1.0  0.57598  0.52358  0.96310  1.0000
  H   H274      1.0  0.59082  0.60810  0.93153  1.0000
  C   C275      1.0  0.56429  0.55388  0.70379  1.0000
  C   C276      1.0  0.51135  0.59809  0.92342  1.0000
  H   H275      1.0  0.94099  0.76088  0.69257  1.0000
  S   S95       1.0  0.57146  0.98372  0.94141  1.0000
  H   H276      1.0  0.96791  0.52446  0.81847  1.0000
  H   H277      1.0  0.74258  0.62413  0.72774  1.0000
  N   N23       1.0  0.54334  0.62288  0.94916  1.0000
  H   H278      1.0  0.64512  0.65094  0.97437  1.0000
  C   C277      1.0  0.76907  0.58412  0.68922  1.0000
  C   C278      1.0  0.71837  0.60756  0.70780  1.0000
  H   H279      1.0  0.60469  0.52357  0.95442  1.0000
  C   C279      1.0  0.50018  0.50381  0.95487  1.0000
  H   H280      1.0  0.52486  0.49882  0.77619  1.0000
  C   C280      1.0  0.57774  0.54390  0.99305  1.0000
  C   C281      1.0  0.54037  0.54364  0.00395  1.0000
  C   C282      1.0  0.56368  0.53533  0.73440  1.0000
  H   H281      1.0  0.49174  0.98948  0.84466  1.0000
  C   C283      1.0  0.52472  0.51253  0.75258  1.0000
  H   H282      1.0  0.71156  0.63211  0.69670  1.0000
  C   C284      1.0  0.60432  0.67186  0.99725  1.0000
  H   H283      1.0  0.51946  0.57574  0.91031  1.0000
  C   C285      1.0  0.52541  0.54927  0.69146  1.0000
  H   H284      1.0  0.50190  0.64209  0.97200  1.0000
  H   H285      1.0  0.50992  0.62060  0.90531  1.0000
  C   C286      1.0  0.56377  0.66907  0.99666  1.0000
  C   C287      1.0  0.52642  0.98725  0.88768  1.0000
  C   C288      1.0  0.53737  0.50357  0.94407  1.0000
  H   H286      1.0  0.78589  0.59389  0.71258  1.0000
  S   S96       1.0  0.61432  0.58193  0.68194  1.0000
  H   H287      1.0  0.84916  0.68675  0.68209  1.0000
  H   H288      1.0  0.98100  0.75082  0.71050  1.0000
  N   N24       1.0  0.73427  0.58953  0.68281  1.0000
